No_1223-complexes_sdf/6BKW-FPZ/2024-09-17-14-21-01/
     RDKit          3D

 24 25  0  0  0  0  0  0  0  0999 V2000
   -7.9040    3.9820   27.1177 C   0  0  0  0  0  0  0  0  0  0  0  0
   -9.0711    4.3164   27.0630 C   0  0  0  0  0  0  0  0  0  0  0  0
   -9.9692    3.7224   26.1073 C   0  0  0  0  0  0  0  0  0  0  0  0
   -6.9787    4.6761   28.1003 C   0  0  0  0  0  0  0  0  0  0  0  0
   -9.4538    2.6801   25.3673 C   0  0  0  0  0  0  0  0  0  0  0  0
   -8.1927    2.1957   25.6621 C   0  0  0  0  0  0  0  0  0  0  0  0
   -7.4333    2.8255   26.6299 C   0  0  0  0  0  0  0  0  0  0  0  0
  -10.3181    2.0008   24.3846 C   0  0  0  0  0  0  0  0  0  0  0  0
   -9.7183    1.2105   23.5031 C   0  0  0  0  0  0  0  0  0  0  0  0
  -10.4449    0.6689   22.4496 C   0  0  0  0  0  0  0  0  0  0  0  0
  -11.8038    0.9417   22.3133 C   0  0  0  0  0  0  0  0  0  0  0  0
  -11.6370    2.3180   24.1156 C   0  0  0  0  0  0  0  0  0  0  0  0
  -12.3653    1.8143   23.1543 C   0  0  0  0  0  0  0  0  0  0  0  0
   -6.9236    5.6643   28.3445 N   0  0  0  0  0  0  0  0  0  0  0  0
   -5.6287    4.1294   28.0835 N   0  0  0  0  0  0  0  0  0  0  0  0
  -14.0399    2.2554   23.0289 Cl  0  0  0  0  0  0  0  0  0  0  0  0
   -9.7747   -0.3243   21.5179 C   0  0  0  0  0  0  0  0  0  0  0  0
  -10.1212   -0.4326   20.4256 O   0  0  0  0  0  0  0  0  0  0  0  0
   -8.6159   -0.9057   21.9451 O   0  0  0  0  0  0  0  0  0  0  0  0
   -8.2686   -2.1322   21.4131 C   0  0  0  0  0  0  0  0  0  0  0  0
   -6.9583   -2.3439   21.8810 C   0  0  0  0  0  0  0  0  0  0  0  0
   -6.4746   -1.5813   22.8917 C   0  0  0  0  0  0  0  0  0  0  0  0
   -6.1864   -1.9156   24.0708 O   0  0  0  0  0  0  0  0  0  0  0  0
   -6.1290   -0.2610   22.6339 O   0  0  0  0  0  0  0  0  0  0  0  0
  1  4  1  0
  5  8  1  0
  4 14  2  0
  4 15  1  0
 13 16  1  0
 10 17  1  0
 17 18  2  0
 17 19  1  0
 19 20  1  0
 20 21  1  0
 21 22  1  0
 22 23  2  0
 22 24  1  0
  8  9  2  0
  9 10  1  0
 10 11  2  0
 11 13  1  0
 13 12  2  0
 12  8  1  0
  1  2  2  0
  2  3  1  0
  3  5  2  0
  5  6  1  0
  6  7  2  0
  7  1  1  0
M  END
$$$$
