No_124-complexes_sdf/6BKW-FPZ/2024-09-17-14-21-01/
     RDKit          3D

 24 27  0  0  0  0  0  0  0  0999 V2000
   -7.9040    3.9820   27.1177 C   0  0  1  0  0  0  0  0  0  0  0  0
   -7.8663    4.8694   27.9238 C   0  0  0  0  0  0  0  0  0  0  0  0
   -7.4547    2.7080   27.4594 C   0  0  0  0  0  0  0  0  0  0  0  0
   -8.7044    6.0412   27.8492 C   0  0  0  0  0  0  0  0  0  0  0  0
   -7.9501    1.5743   26.8848 C   0  0  0  0  0  0  0  0  0  0  0  0
   -7.5077    0.3045   27.2899 C   0  0  0  0  0  0  0  0  0  0  0  0
   -8.3304   -0.7842   27.0095 C   0  0  0  0  0  0  0  0  0  0  0  0
   -9.4084   -0.5876   26.1198 C   0  0  0  0  0  0  0  0  0  0  0  0
   -9.7507    0.6325   25.6557 C   0  0  0  0  0  0  0  0  0  0  0  0
   -8.9988    1.7506   26.0743 C   0  0  0  0  0  0  0  0  0  0  0  0
   -8.8595    4.0194   26.0327 C   0  0  2  0  0  0  0  0  0  0  0  0
   -9.4222    5.3890   26.4507 C   0  0  0  0  0  0  0  0  0  0  0  0
   -9.4338    3.0346   25.6765 C   0  0  1  0  0  0  0  0  0  0  0  0
  -10.4592    3.1681   24.6103 C   0  0  0  0  0  0  0  0  0  0  0  0
  -10.2752    3.9677   23.6654 C   0  0  0  0  0  0  0  0  0  0  0  0
  -11.2317    4.2470   22.6093 C   0  0  0  0  0  0  0  0  0  0  0  0
  -12.4198    3.5521   22.6621 C   0  0  0  0  0  0  0  0  0  0  0  0
  -11.7003    2.4393   24.6464 C   0  0  0  0  0  0  0  0  0  0  0  0
  -12.6684    2.7007   23.6893 C   0  0  0  0  0  0  0  0  0  0  0  0
  -10.2040   -1.7735   25.7335 C   0  0  0  0  0  0  0  0  0  0  0  0
  -11.1358   -1.7060   24.9585 N   0  0  0  0  0  0  0  0  0  0  0  0
  -11.7853   -2.5501   24.2544 C   0  0  0  0  0  0  0  0  0  0  0  0
  -11.5342   -3.7156   24.3608 C   0  0  0  0  0  0  0  0  0  0  0  0
  -12.9442   -2.2556   23.7601 O   0  0  0  0  0  0  0  0  0  0  0  0
  1  2  1  0
  1  3  1  1
  2  4  2  0
  3  5  1  0
  1 11  1  0
  4 12  1  0
 11 12  1  1
 10 13  1  0
 11 13  1  0
 13 14  1  6
  8 20  1  0
 20 21  2  3
 21 22  1  0
 22 23  1  0
 22 24  2  0
 14 15  2  0
 15 16  1  0
 16 17  2  0
 17 19  1  0
 19 18  2  0
 18 14  1  0
  5  6  2  0
  6  7  1  0
  7  8  2  0
  8  9  1  0
  9 10  2  0
 10  5  1  0
M  END
$$$$
