No_1630-complexes_sdf/6BKW-FPZ/2024-09-17-14-21-01/
     RDKit          3D

 31 34  0  0  0  0  0  0  0  0999 V2000
   -7.7129    4.2099   27.0854 C   0  0  0  0  0  0  0  0  0  0  0  0
   -7.7814    5.1722   27.8972 C   0  0  0  0  0  0  0  0  0  0  0  0
   -7.3155    2.9699   27.6145 C   0  0  0  0  0  0  0  0  0  0  0  0
   -7.6814    1.8188   26.9581 C   0  0  0  0  0  0  0  0  0  0  0  0
   -8.6377    1.9131   25.9324 C   0  0  0  0  0  0  0  0  0  0  0  0
   -9.1866    3.0673   25.6037 C   0  0  0  0  0  0  0  0  0  0  0  0
   -8.8394    4.1752   26.2513 C   0  0  0  0  0  0  0  0  0  0  0  0
   -8.2782    6.4669   27.5870 N   0  0  0  0  0  0  0  0  0  0  0  0
   -9.1782    6.6191   26.5818 C   0  0  0  0  0  0  0  0  0  0  0  0
   -9.4874    5.4604   25.8830 C   0  0  0  0  0  0  0  0  0  0  0  0
   -7.0154    0.5462   27.2654 C   0  0  0  0  0  0  0  0  0  0  0  0
   -5.8082    0.4824   27.9784 C   0  0  0  0  0  0  0  0  0  0  0  0
   -5.2390   -0.7604   28.2999 C   0  0  0  0  0  0  0  0  0  0  0  0
   -5.9293   -1.8904   27.9568 C   0  0  0  0  0  0  0  0  0  0  0  0
   -7.4774   -0.7686   27.1010 C   0  0  0  0  0  0  0  0  0  0  0  0
   -7.0622   -1.8845   27.4137 C   0  0  0  0  0  0  0  0  0  0  0  0
   -3.9016   -0.7014   29.0342 C   0  0  2  0  0  0  0  0  0  0  0  0
   -2.7688   -1.2846   28.5732 C   0  0  0  0  0  0  0  0  0  0  0  0
   -3.8600   -0.0819   30.3875 C   0  0  0  0  0  0  0  0  0  0  0  0
   -3.9686   -0.8892   31.5787 C   0  0  0  0  0  0  0  0  0  0  0  0
   -4.6003   -0.6798   32.4981 C   0  0  0  0  0  0  0  0  0  0  0  0
   -4.7054   -1.5203   33.6865 C   0  0  0  0  0  0  0  0  0  0  0  0
   -2.6602   -1.6675   31.8614 C   0  0  0  0  0  0  0  0  0  0  0  0
   -2.6078   -2.4329   33.0220 C   0  0  0  0  0  0  0  0  0  0  0  0
   -3.6268   -2.3228   33.9913 C   0  0  0  0  0  0  0  0  0  0  0  0
   -2.6108   -1.3728   27.1857 C   0  0  2  0  0  0  0  0  0  0  0  0
   -2.4145   -0.1542   26.5430 C   0  0  0  0  0  0  0  0  0  0  0  0
   -2.7951   -2.5602   26.4963 C   0  0  0  0  0  0  0  0  0  0  0  0
   -3.7121   -3.0917   26.2645 C   0  0  0  0  0  0  0  0  0  0  0  0
   -4.1576   -3.6227   25.5258 C   0  0  0  0  0  0  0  0  0  0  0  0
   -3.2552   -4.1417   24.5030 C   0  0  0  0  0  0  0  0  0  0  0  0
  4 11  1  0
 13 17  1  0
 17 18  1  1
 17 19  1  0
 19 20  1  0
 18 26  1  0
 26 27  1  6
 26 28  1  0
 28 29  1  0
 29 30  2  3
 30 31  1  0
  1  2  2  0
  2  8  1  0
  8  9  2  0
  9 10  1  0
 10  7  2  0
 20 21  2  0
 21 22  1  0
 22 25  2  0
 25 24  1  0
 24 23  2  0
 23 20  1  0
 11 12  2  0
 12 13  1  0
 13 14  2  0
 14 16  1  0
 16 15  2  0
 15 11  1  0
  1  3  1  0
  3  4  2  0
  4  5  1  0
  5  6  2  0
  6  7  1  0
  7  1  1  0
M  END
$$$$
