No_1783-complexes_sdf/6BKW-FPZ/2024-09-17-14-21-01/
     RDKit          3D

 16 17  0  0  0  0  0  0  0  0999 V2000
   -7.7129    4.2099   27.0854 C   0  0  0  0  0  0  0  0  0  0  0  0
   -8.9133    4.4736   27.0998 C   0  0  0  0  0  0  0  0  0  0  0  0
   -9.7937    3.7367   26.2091 C   0  0  0  0  0  0  0  0  0  0  0  0
   -6.8266    5.0441   28.0594 C   0  0  0  0  0  0  0  0  0  0  0  0
  -11.0884    4.1572   25.9278 C   0  0  0  0  0  0  0  0  0  0  0  0
  -11.6770    4.9422   26.9825 C   0  0  0  0  0  0  0  0  0  0  0  0
  -10.9362    5.5084   27.9806 C   0  0  0  0  0  0  0  0  0  0  0  0
   -9.5453    5.3326   28.0614 C   0  0  0  0  0  0  0  0  0  0  0  0
  -11.9312    3.5037   24.9551 C   0  0  0  0  0  0  0  0  0  0  0  0
  -11.4695    2.6161   24.3325 C   0  0  0  0  0  0  0  0  0  0  0  0
  -11.8741    2.3253   23.0564 C   0  0  0  0  0  0  0  0  0  0  0  0
  -13.0419    3.0178   22.5710 C   0  0  0  0  0  0  0  0  0  0  0  0
  -12.6521    4.4540   24.1620 C   0  0  0  0  0  0  0  0  0  0  0  0
  -13.3717    4.2007   23.1010 C   0  0  0  0  0  0  0  0  0  0  0  0
   -5.7722    4.5745   28.4822 N   0  0  0  0  0  0  0  0  0  0  0  0
   -7.0973    6.2819   28.1052 O   0  0  0  0  0  0  0  0  0  0  0  0
  1  4  1  0
  5  9  1  0
  4 15  1  0
  4 16  2  0
  1  2  1  0
  2  3  2  0
  3  5  1  0
  5  6  2  0
  6  7  1  0
  7  8  2  0
  8  2  1  0
  9 10  2  0
 10 11  1  0
 11 12  2  0
 12 14  1  0
 14 13  2  0
 13  9  1  0
M  END
$$$$
