No_105-complexes_sdf/6BKW-FPZ/2024-09-17-14-21-01/
     RDKit          3D

 16 18  0  0  0  0  0  0  0  0999 V2000
   -7.7129    4.2099   27.0854 C   0  0  0  0  0  0  0  0  0  0  0  0
   -7.7814    5.1722   27.8972 C   0  0  0  0  0  0  0  0  0  0  0  0
   -8.8776    3.8408   26.3416 C   0  0  0  0  0  0  0  0  0  0  0  0
   -8.9136    2.6330   25.5655 C   0  0  0  0  0  0  0  0  0  0  0  0
   -8.8361    6.1389   27.9032 C   0  0  0  0  0  0  0  0  0  0  0  0
   -9.9718    4.7048   26.3433 C   0  0  0  0  0  0  0  0  0  0  0  0
   -9.9205    5.8499   27.1013 C   0  0  0  0  0  0  0  0  0  0  0  0
   -9.6976    1.6828   26.0761 C   0  0  0  0  0  0  0  0  0  0  0  0
  -10.5858    1.6606   26.8699 C   0  0  0  0  0  0  0  0  0  0  0  0
  -11.1838    0.7570   27.4960 C   0  0  0  0  0  0  0  0  0  0  0  0
  -12.1420    0.8623   28.6204 C   0  0  0  0  0  0  0  0  0  0  0  0
  -12.4312    2.1871   29.0251 C   0  0  0  0  0  0  0  0  0  0  0  0
  -11.7400    3.2438   28.5562 C   0  0  0  0  0  0  0  0  0  0  0  0
  -10.8777    3.0705   27.6260 C   0  0  0  0  0  0  0  0  0  0  0  0
  -10.4706    4.1901   27.0541 N   0  0  0  0  0  0  0  0  0  0  0  0
  -11.7749    5.0564   27.4647 C   0  0  0  0  0  0  0  0  0  0  0  0
  3  4  1  0
  4  8  1  0
  6 15  1  0
 14 15  1  0
 15 16  1  0
  8  9  1  0
  9 10  2  0
 10 11  1  0
 11 12  2  0
 12 13  1  0
 13 14  2  0
 14  9  1  0
  1  2  2  0
  2  5  1  0
  5  7  2  0
  7  6  1  0
  6  3  2  0
  3  1  1  0
M  END
$$$$
