No_1998-complexes_sdf/6BKW-FPZ/2024-09-17-14-21-01/
     RDKit          3D

 19 19  0  0  0  0  0  0  0  0999 V2000
   -7.2496    3.8871   27.4508 C   0  0  0  0  0  0  0  0  0  0  0  0
   -7.9379    4.9063   27.8518 C   0  0  1  0  0  0  0  0  0  0  0  0
   -7.5112    6.1898   27.6280 C   0  0  0  0  0  0  0  0  0  0  0  0
   -9.3085    4.6933   28.2930 C   0  0  0  0  0  0  0  0  0  0  0  0
   -6.9426    2.7754   27.7936 C   0  0  0  0  0  0  0  0  0  0  0  0
   -6.4784    1.5536   27.2625 C   0  0  0  0  0  0  0  0  0  0  0  0
   -7.3779    0.6458   26.8953 C   0  0  0  0  0  0  0  0  0  0  0  0
   -8.5609    0.8885   26.2930 C   0  0  0  0  0  0  0  0  0  0  0  0
   -9.4578   -0.1160   25.8504 C   0  0  0  0  0  0  0  0  0  0  0  0
   -9.1960   -1.3458   26.1875 C   0  0  0  0  0  0  0  0  0  0  0  0
   -7.1327   -0.7766   27.1756 C   0  0  0  0  0  0  0  0  0  0  0  0
   -8.0343   -1.7239   26.8266 C   0  0  0  0  0  0  0  0  0  0  0  0
   -8.3438    7.1772   26.8076 C   0  0  0  0  0  0  0  0  0  0  0  0
  -10.2811    4.3255   27.3641 C   0  0  0  0  0  0  0  0  0  0  0  0
  -11.5656    3.9582   27.8979 C   0  0  0  0  0  0  0  0  0  0  0  0
  -12.6594    4.4486   27.4363 C   0  0  0  0  0  0  0  0  0  0  0  0
  -13.9006    4.3422   28.0698 C   0  0  0  0  0  0  0  0  0  0  0  0
  -13.9278    3.5599   29.2635 C   0  0  0  0  0  0  0  0  0  0  0  0
  -12.8087    2.9689   29.7523 C   0  0  0  0  0  0  0  0  0  0  0  0
  1  2  1  0
  2  3  1  6
  2  4  1  0
  1  5  2  3
  5  6  1  0
  6  7  1  0
  3 13  1  0
  4 14  1  0
 14 15  2  3
 15 16  1  0
 16 17  2  3
 17 18  1  0
 18 19  2  0
  7  8  2  0
  8  9  1  0
  9 10  2  0
 10 12  1  0
 12 11  2  0
 11  7  1  0
M  END
$$$$
