No_1846-complexes_sdf/6BKW-FPZ/2024-09-17-14-21-01/
     RDKit          3D

 19 20  0  0  0  0  0  0  0  0999 V2000
   -7.2496    3.8871   27.4508 C   0  0  0  0  0  0  0  0  0  0  0  0
   -7.9379    4.9063   27.8518 C   0  0  0  0  0  0  0  0  0  0  0  0
   -9.3376    4.8647   27.7795 C   0  0  0  0  0  0  0  0  0  0  0  0
   -7.8544    2.6294   27.0414 C   0  0  0  0  0  0  0  0  0  0  0  0
   -9.2852    2.6570   27.0666 C   0  0  0  0  0  0  0  0  0  0  0  0
  -10.0126    3.7528   27.4890 C   0  0  0  0  0  0  0  0  0  0  0  0
  -11.4946    3.6924   27.5201 C   0  0  0  0  0  0  0  0  0  0  0  0
  -12.0181    2.6419   28.0792 C   0  0  0  0  0  0  0  0  0  0  0  0
  -13.3310    2.5853   28.5250 C   0  0  0  0  0  0  0  0  0  0  0  0
  -14.1287    3.7151   28.1959 C   0  0  0  0  0  0  0  0  0  0  0  0
  -13.5913    4.8072   27.6114 C   0  0  0  0  0  0  0  0  0  0  0  0
  -12.1875    4.8538   27.3506 C   0  0  0  0  0  0  0  0  0  0  0  0
   -7.1366    1.4691   26.7401 C   0  0  0  0  0  0  0  0  0  0  0  0
   -6.0509    1.2156   27.3679 O   0  0  0  0  0  0  0  0  0  0  0  0
   -7.7468    0.4916   26.1044 N   0  0  0  0  0  0  0  0  0  0  0  0
   -7.1376   -0.7624   25.7480 C   0  0  0  0  0  0  0  0  0  0  0  0
   -7.0983    6.3684   28.2856 Cl  0  0  0  0  0  0  0  0  0  0  0  0
   -6.2642   -1.1720   26.2698 C   0  0  0  0  0  0  0  0  0  0  0  0
   -5.9413   -0.7663   27.5703 C   0  0  0  0  0  0  0  0  0  0  0  0
  6  7  1  0
  4 13  1  0
 13 14  2  0
 13 15  1  0
 15 16  1  0
  2 17  1  0
 16 18  2  3
 18 19  1  0
  1  2  2  0
  2  3  1  0
  3  6  2  0
  6  5  1  0
  5  4  2  0
  4  1  1  0
  7  8  2  0
  8  9  1  0
  9 10  2  0
 10 11  1  0
 11 12  2  0
 12  7  1  0
M  END
$$$$
