No_1476-complexes_sdf/6BKW-FPZ/2024-09-17-14-21-01/
     RDKit          3D

 26 28  0  0  0  0  0  0  0  0999 V2000
   -7.7129    4.2099   27.0854 C   0  0  0  0  0  0  0  0  0  0  0  0
   -8.9133    4.4736   27.0998 C   0  0  0  0  0  0  0  0  0  0  0  0
   -9.4643    5.5426   27.7628 C   0  0  0  0  0  0  0  0  0  0  0  0
   -6.8373    4.9942   27.9785 C   0  0  0  0  0  0  0  0  0  0  0  0
   -7.3717    6.0428   28.6744 C   0  0  0  0  0  0  0  0  0  0  0  0
   -8.6869    6.3937   28.5345 C   0  0  0  0  0  0  0  0  0  0  0  0
   -9.8077    3.6185   26.2213 C   0  0  0  0  0  0  0  0  0  0  0  0
   -9.9211    2.3431   26.3758 C   0  0  0  0  0  0  0  0  0  0  0  0
  -10.6481    1.5044   25.5349 C   0  0  0  0  0  0  0  0  0  0  0  0
  -11.3582    2.0711   24.5204 C   0  0  0  0  0  0  0  0  0  0  0  0
  -11.2878    3.4896   24.3240 C   0  0  0  0  0  0  0  0  0  0  0  0
  -10.5257    4.3083   25.1524 C   0  0  0  0  0  0  0  0  0  0  0  0
  -12.0362    4.1222   23.2097 C   0  0  0  0  0  0  0  0  0  0  0  0
  -11.9051    4.2469   22.1304 C   0  0  0  0  0  0  0  0  0  0  0  0
  -12.7384    4.7983   21.1077 C   0  0  0  0  0  0  0  0  0  0  0  0
  -14.0575    5.1110   21.5659 C   0  0  0  0  0  0  0  0  0  0  0  0
  -13.4844    4.5404   23.6693 C   0  0  0  0  0  0  0  0  0  0  0  0
  -14.3392    5.0287   22.8691 C   0  0  0  0  0  0  0  0  0  0  0  0
  -10.6316    0.0569   25.7172 C   0  0  0  0  0  0  0  0  0  0  0  0
   -9.5458   -0.5298   25.6704 C   0  0  0  0  0  0  0  0  0  0  0  0
   -8.3408    0.0987   25.4653 C   0  0  0  0  0  0  0  0  0  0  0  0
   -7.1916   -0.5609   25.1559 C   0  0  0  0  0  0  0  0  0  0  0  0
   -6.0535   -0.1578   25.6529 C   0  0  0  0  0  0  0  0  0  0  0  0
   -4.8695   -1.0119   25.4830 C   0  0  0  0  0  0  0  0  0  0  0  0
   -4.9268   -2.0485   24.5926 C   0  0  0  0  0  0  0  0  0  0  0  0
   -6.1052   -2.3541   23.9836 C   0  0  0  0  0  0  0  0  0  0  0  0
  2  7  1  0
 11 13  1  0
  9 19  1  0
 19 20  2  3
 20 21  1  0
 21 22  2  3
 22 23  1  0
 23 24  2  3
 24 25  1  0
 25 26  2  0
  1  2  2  0
  2  3  1  0
  3  6  2  0
  6  5  1  0
  5  4  2  0
  4  1  1  0
 13 14  2  0
 14 15  1  0
 15 16  2  0
 16 18  1  0
 18 17  2  0
 17 13  1  0
  7  8  2  0
  8  9  1  0
  9 10  2  0
 10 11  1  0
 11 12  2  0
 12  7  1  0
M  END
$$$$
