No_1790-complexes_sdf/6BKW-FPZ/2024-09-17-14-21-01/
     RDKit          3D

 20 23  0  0  0  0  0  0  0  0999 V2000
   -7.9040    3.9820   27.1177 C   0  0  0  0  0  0  0  0  0  0  0  0
   -7.8663    4.8694   27.9238 C   0  0  0  0  0  0  0  0  0  0  0  0
   -7.4698    2.6989   27.4277 C   0  0  0  0  0  0  0  0  0  0  0  0
   -7.9683    1.5964   26.8266 C   0  0  0  0  0  0  0  0  0  0  0  0
   -8.9447    1.7923   25.8533 C   0  0  0  0  0  0  0  0  0  0  0  0
   -9.4405    2.9988   25.5757 C   0  0  0  0  0  0  0  0  0  0  0  0
   -8.9424    4.1117   26.2388 C   0  0  0  0  0  0  0  0  0  0  0  0
   -8.0991    6.0941   27.8047 N   0  0  0  0  0  0  0  0  0  0  0  0
   -7.2681    0.3417   27.2250 C   0  0  2  0  0  0  0  0  0  0  0  0
   -6.0093    0.2850   27.6323 C   0  0  0  0  0  0  0  0  0  0  0  0
   -5.1377    1.4563   27.6850 C   0  0  0  0  0  0  0  0  0  0  0  0
   -6.0035    2.6669   27.7410 N   0  0  0  0  0  0  0  0  0  0  0  0
   -5.3455   -0.9309   27.9184 C   0  0  0  0  0  0  0  0  0  0  0  0
   -4.0456   -0.9109   28.2552 C   0  0  0  0  0  0  0  0  0  0  0  0
   -3.3327    0.3740   28.3974 C   0  0  0  0  0  0  0  0  0  0  0  0
   -4.0594    1.5692   28.5947 C   0  0  0  0  0  0  0  0  0  0  0  0
   -9.6419    5.3076   25.9432 C   0  0  0  0  0  0  0  0  0  0  0  0
   -9.1337    6.4084   26.7828 C   0  0  0  0  0  0  0  0  0  0  0  0
   -7.9265   -0.8794   26.7756 C   0  0  0  0  0  0  0  0  0  0  0  0
   -7.5473   -1.5509   25.7612 C   0  0  0  0  0  0  0  0  0  0  0  0
  4  9  1  0
  9 10  1  0
  3 12  1  0
 11 12  1  0
  9 19  1  6
 19 20  2  0
  1  2  2  0
  2  8  1  0
  8 18  2  0
 18 17  1  0
 17  7  2  0
 10 11  2  0
 11 16  1  0
 16 15  2  0
 15 14  1  0
 14 13  2  0
 13 10  1  0
  1  3  1  0
  3  4  2  0
  4  5  1  0
  5  6  2  0
  6  7  1  0
  7  1  1  0
M  END
$$$$
