No_1643-complexes_sdf/6BKW-FPZ/2024-09-17-14-21-01/
     RDKit          3D

 25 26  0  0  0  0  0  0  0  0999 V2000
   -7.9040    3.9820   27.1177 C   0  0  0  0  0  0  0  0  0  0  0  0
   -7.8663    4.8694   27.9238 C   0  0  0  0  0  0  0  0  0  0  0  0
   -7.4547    2.7080   27.4594 C   0  0  0  0  0  0  0  0  0  0  0  0
   -7.9337    1.5946   26.8372 C   0  0  0  0  0  0  0  0  0  0  0  0
   -8.9032    1.7881   25.8510 C   0  0  0  0  0  0  0  0  0  0  0  0
   -9.3787    2.9871   25.5530 C   0  0  0  0  0  0  0  0  0  0  0  0
   -8.9781    4.0300   26.2200 C   0  0  0  0  0  0  0  0  0  0  0  0
   -8.2132    6.2312   27.6173 N   0  0  0  0  0  0  0  0  0  0  0  0
   -9.1014    6.5119   26.6241 C   0  0  0  0  0  0  0  0  0  0  0  0
   -9.5143    5.3947   25.8857 C   0  0  0  0  0  0  0  0  0  0  0  0
   -7.1831    0.3363   27.2408 C   0  0  0  0  0  0  0  0  0  0  0  0
   -8.0225   -0.5194   27.7545 F   0  0  0  0  0  0  0  0  0  0  0  0
   -6.1974    0.5672   28.0744 F   0  0  0  0  0  0  0  0  0  0  0  0
   -6.7015   -0.3011   26.1028 F   0  0  0  0  0  0  0  0  0  0  0  0
  -10.5501    3.0382   24.1833 P   0  0  1  0  0  0  0  0  0  0  0  0
  -11.3946    2.2129   24.2987 O   0  0  0  0  0  0  0  0  0  0  0  0
  -11.0924    4.4335   24.4000 O   0  0  0  0  0  0  0  0  0  0  0  0
   -9.6597    3.0819   22.9809 O   0  0  0  0  0  0  0  0  0  0  0  0
  -12.3835    1.9470   25.1193 C   0  0  0  0  0  0  0  0  0  0  0  0
  -12.2825    0.8249   25.8445 C   0  0  0  0  0  0  0  0  0  0  0  0
  -11.9187   -0.3754   25.4911 C   0  0  0  0  0  0  0  0  0  0  0  0
  -11.6754   -1.4844   26.3512 C   0  0  0  0  0  0  0  0  0  0  0  0
  -11.9269   -1.2885   27.7520 C   0  0  0  0  0  0  0  0  0  0  0  0
  -12.3183   -0.0371   28.2481 C   0  0  0  0  0  0  0  0  0  0  0  0
  -12.4017    1.0506   27.3727 C   0  0  0  0  0  0  0  0  0  0  0  0
  4 11  1  0
 11 12  1  0
 11 13  1  0
 11 14  1  0
  6 15  1  0
 15 16  1  0
 15 17  1  1
 15 18  2  0
 16 19  1  0
 19 20  2  3
 20 21  1  0
 21 22  2  3
 22 23  1  0
 23 24  2  3
 24 25  1  0
  1  2  2  0
  2  8  1  0
  8  9  2  0
  9 10  1  0
 10  7  2  0
  1  3  1  0
  3  4  2  0
  4  5  1  0
  5  6  2  0
  6  7  1  0
  7  1  1  0
M  END
$$$$
