No_1289-complexes_sdf/6BKW-FPZ/2024-09-17-14-21-01/
     RDKit          3D

 40 45  0  0  0  0  0  0  0  0999 V2000
   -7.7129    4.2099   27.0854 C   0  0  0  0  0  0  0  0  0  0  0  0
   -8.2112    3.0637   26.9225 C   0  0  0  0  0  0  0  0  0  0  0  0
   -7.5138    1.9223   27.4249 C   0  0  1  0  0  0  0  0  0  0  0  0
   -8.5309    5.4147   26.8151 C   0  0  0  0  0  0  0  0  0  0  0  0
   -9.6817    5.2393   26.1100 C   0  0  0  0  0  0  0  0  0  0  0  0
  -10.1032    3.9957   25.8534 C   0  0  0  0  0  0  0  0  0  0  0  0
   -9.4035    2.8430   26.2573 C   0  0  0  0  0  0  0  0  0  0  0  0
   -7.0477    0.9420   26.9242 N   0  0  0  0  0  0  0  0  0  0  0  0
   -6.2158    0.0850   27.5692 C   0  0  0  0  0  0  0  0  0  0  0  0
   -5.3526    0.8332   28.3373 C   0  0  0  0  0  0  0  0  0  0  0  0
   -6.1849    2.3238   28.2702 C   0  0  0  0  0  0  0  0  0  0  0  0
   -8.0078    6.7780   27.1096 C   0  0  0  0  0  0  0  0  0  0  0  0
   -7.0415    6.8843   27.9158 N   0  0  0  0  0  0  0  0  0  0  0  0
   -8.5607    7.8692   26.6336 N   0  0  0  0  0  0  0  0  0  0  0  0
   -7.8386    0.2409   25.8574 C   0  0  0  0  0  0  0  0  0  0  0  0
   -8.9936   -0.1807   25.9896 C   0  0  0  0  0  0  0  0  0  0  0  0
   -9.7057   -0.6687   24.9333 C   0  0  0  0  0  0  0  0  0  0  0  0
   -9.1079   -0.5955   23.6282 C   0  0  0  0  0  0  0  0  0  0  0  0
   -7.8185   -0.0296   23.4294 C   0  0  0  0  0  0  0  0  0  0  0  0
   -7.1556    0.3892   24.5724 C   0  0  0  0  0  0  0  0  0  0  0  0
   -4.2389    0.6974   29.0472 C   0  0  0  0  0  0  0  0  0  0  0  0
   -3.6713   -0.5327   29.1211 C   0  0  0  0  0  0  0  0  0  0  0  0
   -3.7461   -1.3174   29.8243 C   0  0  0  0  0  0  0  0  0  0  0  0
   -3.0270   -2.6293   29.8430 C   0  0  0  0  0  0  0  0  0  0  0  0
   -2.5872   -0.6947   28.0849 C   0  0  0  0  0  0  0  0  0  0  0  0
   -1.8032   -1.7975   27.9861 C   0  0  0  0  0  0  0  0  0  0  0  0
   -2.0376   -2.7861   28.9285 C   0  0  0  0  0  0  0  0  0  0  0  0
   -9.8295   -1.0819   22.4198 C   0  0  0  0  0  0  0  0  0  0  0  0
  -10.5404   -0.1089   21.7182 C   0  0  0  0  0  0  0  0  0  0  0  0
  -11.6436    0.0951   21.7977 C   0  0  0  0  0  0  0  0  0  0  0  0
  -12.3371    1.1946   20.9960 C   0  0  0  0  0  0  0  0  0  0  0  0
  -11.5470    1.9668   20.2002 C   0  0  0  0  0  0  0  0  0  0  0  0
  -10.1929    1.8101   20.1518 C   0  0  0  0  0  0  0  0  0  0  0  0
   -9.6133    0.8462   20.8957 C   0  0  0  0  0  0  0  0  0  0  0  0
   -9.6717   -2.3622   21.9380 C   0  0  0  0  0  0  0  0  0  0  0  0
   -9.6569   -2.6259   20.6874 C   0  0  0  0  0  0  0  0  0  0  0  0
   -9.4879   -3.8751   20.1299 C   0  0  0  0  0  0  0  0  0  0  0  0
   -9.6503   -3.4302   22.8083 C   0  0  0  0  0  0  0  0  0  0  0  0
   -9.5502   -4.7258   22.3613 C   0  0  0  0  0  0  0  0  0  0  0  0
   -9.4837   -4.9266   20.9930 C   0  0  0  0  0  0  0  0  0  0  0  0
  3  2  1  6
  3  8  1  0
  8  9  1  0
  9 10  2  0
  3 11  1  0
 10 11  1  0
  4 12  1  0
 12 13  1  0
 12 14  2  0
  8 15  1  0
 10 21  1  0
 18 28  1  0
 28 29  1  0
 28 35  1  0
 21 22  1  0
 15 16  2  0
 16 17  1  0
 17 18  2  0
 18 19  1  0
 19 20  2  0
 20 15  1  0
  1  2  2  0
  2  7  1  0
  7  6  2  0
  6  5  1  0
  5  4  2  0
  4  1  1  0
 22 23  2  0
 23 24  1  0
 24 27  2  0
 27 26  1  0
 26 25  2  0
 25 22  1  0
 29 30  2  0
 30 31  1  0
 31 32  2  0
 32 33  1  0
 33 34  2  0
 34 29  1  0
 35 36  2  0
 36 37  1  0
 37 40  2  0
 40 39  1  0
 39 38  2  0
 38 35  1  0
M  END
$$$$
