No_1251-complexes_sdf/6BKW-FPZ/2024-09-17-14-21-01/
     RDKit          3D

 11 11  0  0  0  0  0  0  0  0999 V2000
   -7.7129    4.2099   27.0854 C   0  0  0  0  0  0  0  0  0  0  0  0
   -8.9133    4.4736   27.0998 C   0  0  1  0  0  0  0  0  0  0  0  0
   -9.4643    5.5426   27.7628 C   0  0  0  0  0  0  0  0  0  0  0  0
   -9.8091    3.6358   26.2841 C   0  0  0  0  0  0  0  0  0  0  0  0
   -9.4101    2.5938   25.7918 C   0  0  0  0  0  0  0  0  0  0  0  0
   -6.8235    4.9017   28.1362 C   0  0  0  0  0  0  0  0  0  0  0  0
   -9.9053    2.0288   24.6487 C   0  0  0  0  0  0  0  0  0  0  0  0
   -9.5620    0.8259   24.1209 C   0  0  0  0  0  0  0  0  0  0  0  0
   -8.5331    0.0948   24.7638 C   0  0  0  0  0  0  0  0  0  0  0  0
   -7.9738    0.5521   25.9356 C   0  0  0  0  0  0  0  0  0  0  0  0
   -8.3681    1.7549   26.4765 C   0  0  0  0  0  0  0  0  0  0  0  0
  1  2  1  0
  2  3  1  6
  2  4  1  0
  4  5  1  0
  1  6  1  0
  5  7  2  0
  7  8  1  0
  8  9  2  0
  9 10  1  0
 10 11  2  0
 11  5  1  0
M  END
$$$$
