No_157-complexes_sdf/6BKW-FPZ/2024-09-17-14-21-01/
     RDKit          3D

 18 20  0  0  0  0  0  0  0  0999 V2000
   -7.7129    4.2099   27.0854 C   0  0  0  0  0  0  0  0  0  0  0  0
   -7.7814    5.1722   27.8972 C   0  0  0  0  0  0  0  0  0  0  0  0
   -8.8998    3.8713   26.3707 C   0  0  0  0  0  0  0  0  0  0  0  0
   -9.9938    4.6774   26.5446 C   0  0  0  0  0  0  0  0  0  0  0  0
   -8.7789    6.1536   27.9256 C   0  0  0  0  0  0  0  0  0  0  0  0
   -9.9428    5.8398   27.2296 C   0  0  0  0  0  0  0  0  0  0  0  0
   -8.9044    2.7318   25.6159 O   0  0  0  0  0  0  0  0  0  0  0  0
   -9.8444    2.5120   24.7145 C   0  0  2  0  0  0  0  0  0  0  0  0
   -9.9466    1.5355   24.0069 C   0  0  0  0  0  0  0  0  0  0  0  0
   -8.8858    0.4846   24.2237 C   0  0  0  0  0  0  0  0  0  0  0  0
  -10.8184    3.6403   24.4776 C   0  0  0  0  0  0  0  0  0  0  0  0
  -10.9722    4.5809   25.5209 N   0  0  0  0  0  0  0  0  0  0  0  0
   -8.8036   -0.6780   23.3701 C   0  0  0  0  0  0  0  0  0  0  0  0
   -9.3377   -0.6921   22.4642 C   0  0  0  0  0  0  0  0  0  0  0  0
  -10.1689    0.2340   21.9855 C   0  0  0  0  0  0  0  0  0  0  0  0
  -10.4507    1.3929   22.7418 C   0  0  0  0  0  0  0  0  0  0  0  0
  -11.7632    3.6374   23.7053 O   0  0  0  0  0  0  0  0  0  0  0  0
   -6.7346    5.7315   28.6406 O   0  0  0  0  0  0  0  0  0  0  0  0
  3  7  1  0
  7  8  1  0
  8 11  1  0
  4 12  1  0
 11 12  1  0
 11 17  2  0
  2 18  1  0
  8  9  1  6
  9 10  2  0
 10 13  1  0
 13 14  2  0
 14 15  1  0
 15 16  2  0
 16  9  1  0
  1  2  2  0
  2  5  1  0
  5  6  2  0
  6  4  1  0
  4  3  2  0
  3  1  1  0
M  END
$$$$
