No_1795-complexes_sdf/6BKW-FPZ/2024-09-17-14-21-01/
     RDKit          3D

 25 27  0  0  0  0  0  0  0  0999 V2000
   -7.7129    4.2099   27.0854 C   0  0  0  0  0  0  0  0  0  0  0  0
   -8.2112    3.0637   26.9225 C   0  0  0  0  0  0  0  0  0  0  0  0
   -7.0021    4.5281   28.2396 C   0  0  0  0  0  0  0  0  0  0  0  0
   -9.4237    2.7810   26.2714 C   0  0  0  0  0  0  0  0  0  0  0  0
   -9.8781    3.7859   25.4663 C   0  0  0  0  0  0  0  0  0  0  0  0
  -10.9397    3.5736   24.5634 C   0  0  0  0  0  0  0  0  0  0  0  0
  -11.5359    2.3470   24.6136 C   0  0  0  0  0  0  0  0  0  0  0  0
  -11.1244    1.3559   25.4414 C   0  0  0  0  0  0  0  0  0  0  0  0
   -9.9988    1.5206   26.2320 C   0  0  0  0  0  0  0  0  0  0  0  0
   -7.3320    1.9389   27.2764 C   0  0  0  0  0  0  0  0  0  0  0  0
   -6.1200    2.2449   27.9797 C   0  0  0  0  0  0  0  0  0  0  0  0
   -5.2025    1.1862   28.3557 C   0  0  0  0  0  0  0  0  0  0  0  0
   -5.9085    3.5964   28.4177 C   0  0  0  0  0  0  0  0  0  0  0  0
   -4.5362    0.4926   27.5949 C   0  0  0  0  0  0  0  0  0  0  0  0
   -3.4376    0.0000   27.9720 N   0  0  0  0  0  0  0  0  0  0  0  0
   -2.3926   -0.3394   27.1493 C   0  0  0  0  0  0  0  0  0  0  0  0
   -3.0928   -0.3689   29.3692 C   0  0  0  0  0  0  0  0  0  0  0  0
   -2.1809   -1.2400   29.7362 C   0  0  0  0  0  0  0  0  0  0  0  0
   -1.4295   -1.3360   27.4090 C   0  0  0  0  0  0  0  0  0  0  0  0
   -1.1701   -1.5765   28.7632 C   0  0  0  0  0  0  0  0  0  0  0  0
   -4.9715    0.1845   26.4779 O   0  0  0  0  0  0  0  0  0  0  0  0
  -12.7670    2.1778   23.7428 C   0  0  0  0  0  0  0  0  0  0  0  0
  -13.0755    2.8569   22.9958 F   0  0  0  0  0  0  0  0  0  0  0  0
  -13.8126    2.0501   24.7053 F   0  0  0  0  0  0  0  0  0  0  0  0
  -12.6694    0.9258   23.1455 F   0  0  0  0  0  0  0  0  0  0  0  0
  2  4  1  0
 11 12  1  0
 12 14  1  0
 14 15  1  0
 15 16  1  0
 15 17  1  0
 18 20  1  0
 19 20  1  0
 14 21  2  0
  7 22  1  0
 22 23  1  0
 22 24  1  0
 22 25  1  0
 16 19  1  0
 18 17  1  0
  1  2  2  0
  2 10  1  0
 10 11  2  0
 11 13  1  0
 13  3  2  0
  3  1  1  0
  4  5  2  0
  5  6  1  0
  6  7  2  0
  7  8  1  0
  8  9  2  0
  9  4  1  0
M  END
$$$$
