No_1263-complexes_sdf/6BKW-FPZ/2024-09-17-14-21-01/
     RDKit          3D

 26 29  0  0  0  0  0  0  0  0999 V2000
   -7.7129    4.2099   27.0854 C   0  0  0  0  0  0  0  0  0  0  0  0
   -8.2112    3.0637   26.9225 C   0  0  0  0  0  0  0  0  0  0  0  0
   -8.4224    5.2106   27.8516 C   0  0  0  0  0  0  0  0  0  0  0  0
   -9.5628    2.7160   27.4089 C   0  0  0  0  0  0  0  0  0  0  0  0
  -10.2428    3.7496   28.1155 C   0  0  0  0  0  0  0  0  0  0  0  0
   -9.6677    4.9738   28.3232 C   0  0  0  0  0  0  0  0  0  0  0  0
   -7.7834    6.4141   28.0170 O   0  0  0  0  0  0  0  0  0  0  0  0
  -10.1026    1.3916   27.2160 C   0  0  0  0  0  0  0  0  0  0  0  0
   -9.2909    0.3666   27.1025 C   0  0  0  0  0  0  0  0  0  0  0  0
   -7.8816    0.6085   27.1217 C   0  0  0  0  0  0  0  0  0  0  0  0
   -7.3374    1.9014   26.8953 C   0  0  0  0  0  0  0  0  0  0  0  0
   -6.9823   -0.5731   26.7536 C   0  0  0  0  0  0  0  0  0  0  0  0
   -5.8518   -0.6333   26.8563 N   0  0  0  0  0  0  0  0  0  0  0  0
   -7.6145   -1.7646   26.4305 N   0  0  0  0  0  0  0  0  0  0  0  0
   -5.1948   -1.7722   26.5233 C   0  0  0  0  0  0  0  0  0  0  0  0
   -7.0635   -2.7762   26.0813 C   0  0  0  0  0  0  0  0  0  0  0  0
   -5.7226   -2.8793   26.1400 C   0  0  0  0  0  0  0  0  0  0  0  0
  -11.6282    3.5116   28.6111 C   0  0  0  0  0  0  0  0  0  0  0  0
  -12.5692    4.0258   28.2558 C   0  0  0  0  0  0  0  0  0  0  0  0
  -13.9117    3.9813   28.8255 C   0  0  0  0  0  0  0  0  0  0  0  0
  -15.0165    4.7274   28.4550 C   0  0  0  0  0  0  0  0  0  0  0  0
  -14.8181    5.4940   27.2574 C   0  0  0  0  0  0  0  0  0  0  0  0
  -13.6201    5.4603   26.5443 C   0  0  0  0  0  0  0  0  0  0  0  0
  -12.5657    4.8512   27.0001 C   0  0  0  0  0  0  0  0  0  0  0  0
  -11.6704    2.3408   29.2635 O   0  0  0  0  0  0  0  0  0  0  0  0
  -15.8990    6.2107   26.7629 F   0  0  0  0  0  0  0  0  0  0  0  0
  3  7  1  0
 10 12  1  0
  5 18  1  0
 18 19  1  0
 18 25  2  0
 22 26  1  0
  1  2  2  0
  4  5  2  0
  5  6  1  0
  6  3  2  0
  3  1  1  0
  2  4  1  0
  4  8  1  0
  8  9  2  0
  9 10  1  0
 10 11  2  0
 11  2  1  0
 19 20  2  0
 20 21  1  0
 21 22  2  0
 22 23  1  0
 23 24  2  0
 24 19  1  0
 12 13  2  0
 13 15  1  0
 15 17  2  0
 17 16  1  0
 16 14  2  0
 14 12  1  0
M  END
$$$$
