No_1753-complexes_sdf/6BKW-FPZ/2024-09-17-14-21-01/
     RDKit          3D

 37 41  0  0  0  0  0  0  0  0999 V2000
   -7.2496    3.8871   27.4508 C   0  0  0  0  0  0  0  0  0  0  0  0
   -7.9379    4.9063   27.8518 C   0  0  0  0  0  0  0  0  0  0  0  0
   -9.3460    4.8223   27.8695 C   0  0  0  0  0  0  0  0  0  0  0  0
   -7.8628    2.6163   27.1065 C   0  0  0  0  0  0  0  0  0  0  0  0
   -9.2787    2.5744   27.1970 C   0  0  0  0  0  0  0  0  0  0  0  0
  -10.0108    3.6770   27.6340 C   0  0  0  0  0  0  0  0  0  0  0  0
  -11.4834    3.5674   27.7432 C   0  0  0  0  0  0  0  0  0  0  0  0
  -11.9395    2.6434   28.4995 C   0  0  0  0  0  0  0  0  0  0  0  0
  -13.2991    2.5755   28.9391 C   0  0  0  0  0  0  0  0  0  0  0  0
  -14.1285    3.5751   28.4315 C   0  0  0  0  0  0  0  0  0  0  0  0
  -13.6635    4.5859   27.6241 C   0  0  0  0  0  0  0  0  0  0  0  0
  -12.2733    4.7017   27.3545 C   0  0  0  0  0  0  0  0  0  0  0  0
   -7.0925    1.4743   26.7694 C   0  0  0  0  0  0  0  0  0  0  0  0
   -7.2461    0.3150   27.5484 C   0  0  0  0  0  0  0  0  0  0  0  0
   -8.3295   -0.3909   27.4931 C   0  0  0  0  0  0  0  0  0  0  0  0
   -8.4769   -1.6330   28.2329 C   0  0  0  0  0  0  0  0  0  0  0  0
   -7.4192   -2.0517   29.0177 C   0  0  0  0  0  0  0  0  0  0  0  0
   -6.2242   -1.3425   29.0222 C   0  0  0  0  0  0  0  0  0  0  0  0
   -6.0646   -0.1803   28.2887 C   0  0  0  0  0  0  0  0  0  0  0  0
   -4.7916    0.5607   28.3486 C   0  0  0  0  0  0  0  0  0  0  0  0
   -4.1849    0.6779   29.3617 O   0  0  0  0  0  0  0  0  0  0  0  0
   -4.3407    0.9576   27.1566 O   0  0  0  0  0  0  0  0  0  0  0  0
   -7.1536    6.4121   28.1741 Cl  0  0  0  0  0  0  0  0  0  0  0  0
  -13.8384    1.4324   29.7167 C   0  0  0  0  0  0  0  0  0  0  0  0
  -14.0215    1.6235   30.9731 C   0  0  0  0  0  0  0  0  0  0  0  0
  -13.8996    0.2047   29.0813 C   0  0  0  0  0  0  0  0  0  0  0  0
  -14.1514   -0.8303   29.7046 C   0  0  0  0  0  0  0  0  0  0  0  0
  -14.4545    0.4987   31.8085 C   0  0  0  0  0  0  0  0  0  0  0  0
  -14.4895   -0.7412   31.1538 C   0  0  0  0  0  0  0  0  0  0  0  0
  -13.8981    2.9250   31.7339 C   0  0  0  0  0  0  0  0  0  0  0  0
  -13.5094    2.9653   32.9308 N   0  0  0  0  0  0  0  0  0  0  0  0
  -13.7505    3.9406   33.7852 C   0  0  0  0  0  0  0  0  0  0  0  0
  -12.8013    4.1767   34.7974 C   0  0  0  0  0  0  0  0  0  0  0  0
  -12.5320    5.3765   35.4577 C   0  0  0  0  0  0  0  0  0  0  0  0
  -13.6722    6.2905   35.4376 C   0  0  0  0  0  0  0  0  0  0  0  0
  -14.6459    5.0317   33.5406 C   0  0  0  0  0  0  0  0  0  0  0  0
  -14.6283    6.1432   34.4293 C   0  0  0  0  0  0  0  0  0  0  0  0
  6  7  1  0
  4 13  1  0
 13 14  1  0
 19 20  1  0
 20 21  2  0
 20 22  1  0
  2 23  1  0
  9 24  1  0
 25 30  1  0
 30 31  2  3
 31 32  1  0
  1  2  2  0
  2  3  1  0
  3  6  2  0
  6  5  1  0
  5  4  2  0
  4  1  1  0
 32 33  2  0
 33 34  1  0
 34 35  2  0
 35 37  1  0
 37 36  2  0
 36 32  1  0
  7  8  2  0
  8  9  1  0
  9 10  2  0
 10 11  1  0
 11 12  2  0
 12  7  1  0
 24 25  2  0
 25 28  1  0
 28 29  2  0
 29 27  1  0
 27 26  2  0
 26 24  1  0
 14 15  2  0
 15 16  1  0
 16 17  2  0
 17 18  1  0
 18 19  2  0
 19 14  1  0
M  END
$$$$
