No_174-complexes_sdf/6BKW-FPZ/2024-09-17-14-21-01/
     RDKit          3D

 29 33  0  0  0  0  0  0  0  0999 V2000
   -7.9040    3.9820   27.1177 C   0  0  0  0  0  0  0  0  0  0  0  0
   -7.8663    4.8694   27.9238 C   0  0  0  0  0  0  0  0  0  0  0  0
   -7.4547    2.7080   27.4594 C   0  0  0  0  0  0  0  0  0  0  0  0
   -7.9337    1.5946   26.8372 C   0  0  0  0  0  0  0  0  0  0  0  0
   -8.9032    1.7881   25.8510 C   0  0  0  0  0  0  0  0  0  0  0  0
   -9.3787    2.9871   25.5530 C   0  0  0  0  0  0  0  0  0  0  0  0
   -8.9781    4.0300   26.2200 C   0  0  0  0  0  0  0  0  0  0  0  0
   -8.2132    6.2312   27.6173 N   0  0  0  0  0  0  0  0  0  0  0  0
   -9.1014    6.5119   26.6241 C   0  0  0  0  0  0  0  0  0  0  0  0
   -9.5143    5.3947   25.8857 C   0  0  0  0  0  0  0  0  0  0  0  0
   -7.3356    0.2566   27.1267 C   0  0  0  0  0  0  0  0  0  0  0  0
   -6.0719    0.1269   27.6413 C   0  0  0  0  0  0  0  0  0  0  0  0
   -5.5510   -1.0886   28.0388 C   0  0  0  0  0  0  0  0  0  0  0  0
   -6.3973   -2.1752   27.8995 C   0  0  0  0  0  0  0  0  0  0  0  0
   -7.9994   -0.9778   27.1516 C   0  0  0  0  0  0  0  0  0  0  0  0
   -7.6064   -2.1061   27.5112 C   0  0  0  0  0  0  0  0  0  0  0  0
   -4.1462   -1.1255   28.5488 C   0  0  0  0  0  0  0  0  0  0  0  0
   -3.2542   -1.4129   27.9609 C   0  0  0  0  0  0  0  0  0  0  0  0
   -1.8184   -1.3136   28.4238 C   0  0  0  0  0  0  0  0  0  0  0  0
   -1.6150   -0.8099   29.7273 C   0  0  0  0  0  0  0  0  0  0  0  0
   -3.8865   -0.4789   29.9140 C   0  0  0  0  0  0  0  0  0  0  0  0
   -2.6706   -0.4201   30.4352 C   0  0  0  0  0  0  0  0  0  0  0  0
   -3.2751   -1.9199   26.5298 C   0  0  0  0  0  0  0  0  0  0  0  0
   -3.5611   -1.0366   25.5539 C   0  0  0  0  0  0  0  0  0  0  0  0
   -3.3024   -3.2951   26.3328 C   0  0  0  0  0  0  0  0  0  0  0  0
   -3.6618   -3.8138   25.1398 C   0  0  0  0  0  0  0  0  0  0  0  0
   -3.5024    0.2867   25.8261 N   0  0  0  0  0  0  0  0  0  0  0  0
   -4.1064   -2.8467   24.1180 C   0  0  0  0  0  0  0  0  0  0  0  0
   -4.0092   -1.5058   24.3781 N   0  0  0  0  0  0  0  0  0  0  0  0
  4 11  1  0
 13 17  1  0
 18 23  1  0
 24 27  1  0
  1  2  2  0
  2  8  1  0
  8  9  2  0
  9 10  1  0
 10  7  2  0
 17 18  1  0
 18 19  2  0
 19 20  1  0
 20 22  2  0
 22 21  1  0
 21 17  2  0
  1  3  1  0
  3  4  2  0
  4  5  1  0
  5  6  2  0
  6  7  1  0
  7  1  1  0
 23 24  2  0
 24 29  1  0
 29 28  2  0
 28 26  1  0
 26 25  2  0
 25 23  1  0
 11 12  2  0
 12 13  1  0
 13 14  2  0
 14 16  1  0
 16 15  2  0
 15 11  1  0
M  END
$$$$
