No_1316-complexes_sdf/6BKW-FPZ/2024-09-17-14-21-01/
     RDKit          3D

 36 38  0  0  0  0  0  0  0  0999 V2000
   -7.9040    3.9820   27.1177 C   0  0  0  0  0  0  0  0  0  0  0  0
   -8.2057    2.8231   26.8733 C   0  0  0  0  0  0  0  0  0  0  0  0
   -8.7695    5.0740   26.7916 C   0  0  0  0  0  0  0  0  0  0  0  0
   -9.9618    4.7598   26.1630 C   0  0  0  0  0  0  0  0  0  0  0  0
   -9.4200    2.4524   26.2849 C   0  0  0  0  0  0  0  0  0  0  0  0
  -10.2590    3.4815   25.9250 C   0  0  0  0  0  0  0  0  0  0  0  0
   -8.3837    6.4702   27.0872 C   0  0  0  0  0  0  0  0  0  0  0  0
   -7.9190    6.7629   28.1721 O   0  0  0  0  0  0  0  0  0  0  0  0
   -8.6238    7.3710   26.1801 O   0  0  0  0  0  0  0  0  0  0  0  0
   -7.2728    1.6765   27.2837 C   0  0  0  0  0  0  0  0  0  0  0  0
   -7.5818    0.3222   27.1986 C   0  0  0  0  0  0  0  0  0  0  0  0
   -6.6119   -0.5728   27.4816 C   0  0  0  0  0  0  0  0  0  0  0  0
   -5.3226   -0.1467   27.9075 C   0  0  0  0  0  0  0  0  0  0  0  0
   -5.0461    1.2101   28.0038 C   0  0  0  0  0  0  0  0  0  0  0  0
   -5.9270    2.0993   27.6674 C   0  0  0  0  0  0  0  0  0  0  0  0
   -4.3151   -1.1811   28.3120 C   0  0  0  0  0  0  0  0  0  0  0  0
   -3.3575   -1.2860   27.7964 O   0  0  0  0  0  0  0  0  0  0  0  0
   -4.4729   -1.5660   29.6318 O   0  0  0  0  0  0  0  0  0  0  0  0
  -11.5105    2.9968   25.3220 C   0  0  0  0  0  0  0  0  0  0  0  0
  -12.0247    3.8317   24.3053 C   0  0  0  0  0  0  0  0  0  0  0  0
  -11.1808    4.2943   23.3514 C   0  0  0  0  0  0  0  0  0  0  0  0
   -9.9927    3.8447   23.0798 C   0  0  0  0  0  0  0  0  0  0  0  0
  -11.8049    4.7829   22.0604 C   0  0  0  0  0  0  0  0  0  0  0  0
   -5.1623   -1.1563   30.5208 C   0  0  0  0  0  0  0  0  0  0  0  0
   -4.3645   -0.4849   31.6192 C   0  0  0  0  0  0  0  0  0  0  0  0
   -2.9918   -0.4770   31.5644 C   0  0  0  0  0  0  0  0  0  0  0  0
   -2.3807   -0.5452   32.9073 C   0  0  0  0  0  0  0  0  0  0  0  0
   -3.2031   -0.5057   33.8245 O   0  0  0  0  0  0  0  0  0  0  0  0
   -2.6991   -0.8549   35.0768 C   0  0  0  0  0  0  0  0  0  0  0  0
   -2.6451   -2.0787   35.4212 C   0  0  0  0  0  0  0  0  0  0  0  0
   -3.0846   -2.9554   34.7237 C   0  0  0  0  0  0  0  0  0  0  0  0
   -2.9905   -4.3741   35.0469 C   0  0  0  0  0  0  0  0  0  0  0  0
   -3.5661   -5.3348   34.2215 C   0  0  0  0  0  0  0  0  0  0  0  0
   -4.2415   -4.9386   33.0434 C   0  0  0  0  0  0  0  0  0  0  0  0
   -4.3291   -3.5964   32.7089 C   0  0  0  0  0  0  0  0  0  0  0  0
   -3.8068   -2.6796   33.4978 C   0  0  0  0  0  0  0  0  0  0  0  0
  3  7  1  0
  7  8  2  0
  7  9  1  0
  2 10  1  0
 13 16  1  0
 16 17  2  0
 16 18  1  0
  6 19  1  0
 19 20  1  0
 20 21  1  0
 21 22  2  0
 21 23  1  0
 18 24  1  0
 24 25  1  0
 25 26  1  0
 26 27  1  0
 27 28  1  0
 28 29  1  0
 29 30  2  3
 30 31  1  0
 31 32  2  0
 32 33  1  0
 33 34  2  0
 34 35  1  0
 35 36  2  0
 36 31  1  0
  1  2  2  0
  2  5  1  0
  5  6  2  0
  6  4  1  0
  4  3  2  0
  3  1  1  0
 10 11  2  0
 11 12  1  0
 12 13  2  0
 13 14  1  0
 14 15  2  0
 15 10  1  0
M  END
$$$$
