No_1297-complexes_sdf/6BKW-FPZ/2024-09-17-14-21-01/
     RDKit          3D

 29 32  0  0  0  0  0  0  0  0999 V2000
   -7.2496    3.8871   27.4508 C   0  0  0  0  0  0  0  0  0  0  0  0
   -7.9379    4.9063   27.8518 C   0  0  0  0  0  0  0  0  0  0  0  0
   -9.3376    4.8647   27.7795 C   0  0  0  0  0  0  0  0  0  0  0  0
   -7.8544    2.6294   27.0414 C   0  0  0  0  0  0  0  0  0  0  0  0
   -9.2665    2.6175   27.0340 C   0  0  0  0  0  0  0  0  0  0  0  0
   -9.9836    3.7042   27.4150 C   0  0  0  0  0  0  0  0  0  0  0  0
   -9.9053    1.3367   26.6546 C   0  0  0  0  0  0  0  0  0  0  0  0
  -10.8602    1.3508   25.9026 C   0  0  0  0  0  0  0  0  0  0  0  0
  -11.4658    0.2073   25.5114 C   0  0  0  0  0  0  0  0  0  0  0  0
   -9.0191    0.2377   26.5605 C   0  0  0  0  0  0  0  0  0  0  0  0
   -9.5406   -1.0234   26.2882 C   0  0  0  0  0  0  0  0  0  0  0  0
  -10.7766   -0.9886   25.6277 C   0  0  0  0  0  0  0  0  0  0  0  0
   -7.3447    6.0795   28.1854 O   0  0  0  0  0  0  0  0  0  0  0  0
  -11.4109   -2.2684   25.2579 C   0  0  0  0  0  0  0  0  0  0  0  0
  -12.1983   -2.4206   24.5361 C   0  0  0  0  0  0  0  0  0  0  0  0
  -12.7974   -3.7354   24.1492 C   0  0  0  0  0  0  0  0  0  0  0  0
  -12.3685   -4.6045   24.6239 C   0  0  0  0  0  0  0  0  0  0  0  0
  -11.3379   -4.6777   25.5995 C   0  0  0  0  0  0  0  0  0  0  0  0
  -10.7720   -3.4458   25.9944 C   0  0  0  0  0  0  0  0  0  0  0  0
  -10.8064   -5.9007   26.2365 C   0  0  0  0  0  0  0  0  0  0  0  0
  -10.2204   -5.8282   27.3327 N   0  0  0  0  0  0  0  0  0  0  0  0
  -10.9978   -6.9517   25.6403 O   0  0  0  0  0  0  0  0  0  0  0  0
   -9.6676   -6.9632   28.0391 C   0  0  0  0  0  0  0  0  0  0  0  0
   -9.1365   -6.6574   29.0871 C   0  0  0  0  0  0  0  0  0  0  0  0
   -8.5202   -7.5965   29.9712 C   0  0  0  0  0  0  0  0  0  0  0  0
   -7.9163   -7.2470   31.1963 C   0  0  0  0  0  0  0  0  0  0  0  0
   -7.8876   -5.8902   31.5653 C   0  0  0  0  0  0  0  0  0  0  0  0
   -8.4634   -4.8862   30.7350 C   0  0  0  0  0  0  0  0  0  0  0  0
   -9.0541   -5.2593   29.5524 C   0  0  0  0  0  0  0  0  0  0  0  0
  5  7  1  0
  2 13  1  0
 12 14  1  0
 18 20  1  0
 20 21  1  0
 20 22  2  0
 21 23  1  0
 23 24  1  0
 14 15  2  0
 15 16  1  0
 16 17  2  0
 17 18  1  0
 18 19  2  0
 19 14  1  0
 24 25  2  0
 25 26  1  0
 26 27  2  0
 27 28  1  0
 28 29  2  0
 29 24  1  0
  1  2  2  0
  2  3  1  0
  3  6  2  0
  6  5  1  0
  5  4  2  0
  4  1  1  0
  7  8  2  0
  8  9  1  0
  9 12  2  0
 12 11  1  0
 11 10  2  0
 10  7  1  0
M  END
$$$$
