No_1831-complexes_sdf/6BKW-FPZ/2024-09-17-14-21-01/
     RDKit          3D

 17 19  0  0  0  0  0  0  0  0999 V2000
   -7.9040    3.9820   27.1177 C   0  0  0  0  0  0  0  0  0  0  0  0
   -7.8663    4.8694   27.9238 C   0  0  0  0  0  0  0  0  0  0  0  0
   -9.0491    3.8523   26.2542 C   0  0  0  0  0  0  0  0  0  0  0  0
   -8.7661    5.9491   27.9690 C   0  0  0  0  0  0  0  0  0  0  0  0
   -9.1798    2.6731   25.4786 C   0  0  0  0  0  0  0  0  0  0  0  0
   -9.8964    5.8854   27.1460 C   0  0  0  0  0  0  0  0  0  0  0  0
   -9.9958    4.8034   26.3470 C   0  0  0  0  0  0  0  0  0  0  0  0
   -8.6595    1.4511   25.8687 C   0  0  0  0  0  0  0  0  0  0  0  0
   -9.8202    2.7632   24.2146 C   0  0  0  0  0  0  0  0  0  0  0  0
   -8.7617    0.3264   25.0769 C   0  0  0  0  0  0  0  0  0  0  0  0
   -9.9373    1.6031   23.4253 C   0  0  0  0  0  0  0  0  0  0  0  0
   -9.3888    0.4177   23.8514 C   0  0  0  0  0  0  0  0  0  0  0  0
   -8.2100   -0.9503   25.5462 C   0  0  0  0  0  0  0  0  0  0  0  0
   -8.3497   -1.2413   26.8680 C   0  0  0  0  0  0  0  0  0  0  0  0
   -8.9525   -0.3229   27.7841 C   0  0  0  0  0  0  0  0  0  0  0  0
   -9.4593    0.7560   27.2627 C   0  0  0  0  0  0  0  0  0  0  0  0
   -6.7446    5.1322   28.7543 O   0  0  0  0  0  0  0  0  0  0  0  0
  3  5  1  0
  2 17  1  0
 10 13  1  0
 13 14  2  0
 14 15  1  0
 15 16  2  0
 16  8  1  0
  1  2  2  0
  2  4  1  0
  4  6  2  0
  6  7  1  0
  7  3  2  0
  3  1  1  0
  5  8  2  0
  8 10  1  0
 10 12  2  0
 12 11  1  0
 11  9  2  0
  9  5  1  0
M  END
$$$$
