No_1375-complexes_sdf/6BKW-FPZ/2024-09-17-14-21-01/
     RDKit          3D

 40 43  0  0  0  0  0  0  0  0999 V2000
   -7.7129    4.2099   27.0854 C   0  0  0  0  0  0  0  0  0  0  0  0
   -8.9133    4.4736   27.0998 C   0  0  0  0  0  0  0  0  0  0  0  0
   -9.4643    5.5426   27.7628 C   0  0  0  0  0  0  0  0  0  0  0  0
   -7.2009    2.9448   26.6134 C   0  0  0  0  0  0  0  0  0  0  0  0
   -8.1365    1.9533   26.2981 C   0  0  0  0  0  0  0  0  0  0  0  0
   -7.6295    0.6861   25.9574 C   0  0  0  0  0  0  0  0  0  0  0  0
   -9.8338    3.6042   26.3509 C   0  0  0  0  0  0  0  0  0  0  0  0
   -9.3834    2.3678   26.0141 C   0  0  0  0  0  0  0  0  0  0  0  0
   -7.7499    0.1931   24.9019 O   0  0  0  0  0  0  0  0  0  0  0  0
   -7.0273   -0.0112   26.9991 O   0  0  0  0  0  0  0  0  0  0  0  0
   -6.8035    4.9744   27.8810 N   0  0  0  0  0  0  0  0  0  0  0  0
   -8.6465    6.7751   27.8333 C   0  0  0  0  0  0  0  0  0  0  0  0
   -7.3094    6.5101   27.2523 C   0  0  0  0  0  0  0  0  0  0  0  0
   -6.4892   -1.0563   27.0512 C   0  0  0  0  0  0  0  0  0  0  0  0
   -5.9364   -1.2441   28.2615 C   0  0  0  0  0  0  0  0  0  0  0  0
   -4.6821   -0.5364   28.6464 C   0  0  0  0  0  0  0  0  0  0  0  0
   -4.2139   -0.5020   29.9806 C   0  0  0  0  0  0  0  0  0  0  0  0
   -4.7686   -1.3194   30.9638 C   0  0  0  0  0  0  0  0  0  0  0  0
   -5.9125   -2.0475   30.6137 C   0  0  0  0  0  0  0  0  0  0  0  0
   -6.4515   -1.9727   29.3776 C   0  0  0  0  0  0  0  0  0  0  0  0
   -4.1558   -1.2785   32.2910 C   0  0  0  0  0  0  0  0  0  0  0  0
   -4.9114   -1.0098   33.3853 C   0  0  0  0  0  0  0  0  0  0  0  0
   -4.4357   -1.0395   34.7165 C   0  0  0  0  0  0  0  0  0  0  0  0
   -3.0693   -1.1119   34.9246 C   0  0  0  0  0  0  0  0  0  0  0  0
   -2.2150   -1.2594   33.7925 C   0  0  0  0  0  0  0  0  0  0  0  0
   -2.7453   -1.2754   32.4872 C   0  0  0  0  0  0  0  0  0  0  0  0
   -4.0443    0.3431   27.6326 C   0  0  0  0  0  0  0  0  0  0  0  0
   -4.3521    1.3541   27.3865 O   0  0  0  0  0  0  0  0  0  0  0  0
   -2.8412   -0.1666   27.2438 N   0  0  0  0  0  0  0  0  0  0  0  0
   -1.9605    0.5630   26.3475 C   0  0  0  0  0  0  0  0  0  0  0  0
   -2.6089   -1.6060   27.0938 C   0  0  0  0  0  0  0  0  0  0  0  0
   -0.7484   -1.2728   33.9958 C   0  0  2  0  0  0  0  0  0  0  0  0
   -0.2559   -0.2634   34.4792 O   0  0  0  0  0  0  0  0  0  0  0  0
   -0.0702   -2.2782   33.5967 N   0  0  0  0  0  0  0  0  0  0  0  0
    1.4156   -2.2370   33.6623 C   0  0  0  0  0  0  0  0  0  0  0  0
   -0.5810   -3.5008   33.0313 C   0  0  0  0  0  0  0  0  0  0  0  0
    0.3686   -4.4400   32.8113 C   0  0  0  0  0  0  0  0  0  0  0  0
    0.2025   -5.4862   32.7217 C   0  0  0  0  0  0  0  0  0  0  0  0
    1.1695   -6.5643   32.4198 C   0  0  0  0  0  0  0  0  0  0  0  0
    2.4686   -6.0950   32.3178 C   0  0  0  0  0  0  0  0  0  0  0  0
  5  6  1  0
  6  9  2  0
  6 10  1  0
 10 14  1  0
 18 21  1  0
 16 27  1  0
 27 28  2  0
 27 29  1  0
 29 30  1  0
 29 31  1  0
 25 32  1  0
 32 33  1  6
 32 34  1  0
 34 35  1  0
 34 36  1  0
 36 37  2  3
 37 38  1  0
 38 39  2  3
 39 40  1  0
 14 15  1  0
 15 16  2  0
 16 17  1  0
 17 18  2  0
 18 19  1  0
 19 20  2  0
 20 15  1  0
  2  7  1  0
  7  8  2  0
  8  5  1  0
  5  4  2  0
  4  1  1  0
  1  2  1  0
  2  3  2  0
  3 12  1  0
 12 13  2  0
 13 11  1  0
 11  1  2  0
 21 22  2  0
 22 23  1  0
 23 24  2  0
 24 25  1  0
 25 26  2  0
 26 21  1  0
M  END
$$$$
