No_1541-complexes_sdf/6BKW-FPZ/2024-09-17-14-21-01/
     RDKit          3D

 13 13  0  0  0  0  0  0  0  0999 V2000
   -7.9040    3.9820   27.1177 C   0  0  0  0  0  0  0  0  0  0  0  0
   -7.8663    4.8694   27.9238 C   0  0  0  0  0  0  0  0  0  0  0  0
   -9.0491    3.8523   26.2542 C   0  0  0  0  0  0  0  0  0  0  0  0
   -8.7661    5.9491   27.9690 C   0  0  0  0  0  0  0  0  0  0  0  0
   -9.9295    4.8502   26.2323 C   0  0  0  0  0  0  0  0  0  0  0  0
   -9.8077    5.9288   27.0933 C   0  0  0  0  0  0  0  0  0  0  0  0
   -7.0146    2.9513   27.1368 F   0  0  0  0  0  0  0  0  0  0  0  0
   -9.0710    2.8499   25.3499 F   0  0  0  0  0  0  0  0  0  0  0  0
  -11.1789    4.8967   25.1110 Cl  0  0  0  0  0  0  0  0  0  0  0  0
   -6.7852    5.0761   28.8190 O   0  0  0  0  0  0  0  0  0  0  0  0
   -6.3853    6.3314   29.1239 C   0  0  0  0  0  0  0  0  0  0  0  0
   -5.4497    6.3378   30.0972 O   0  0  0  0  0  0  0  0  0  0  0  0
   -6.6026    7.2113   28.2638 O   0  0  0  0  0  0  0  0  0  0  0  0
  1  7  1  0
  3  8  1  0
  5  9  1  0
  2 10  1  0
 10 11  1  0
 11 12  1  0
 11 13  2  0
  1  2  2  0
  2  4  1  0
  4  6  2  0
  6  5  1  0
  5  3  2  0
  3  1  1  0
M  END
$$$$
