No_1133-complexes_sdf/6BKW-FPZ/2024-09-17-14-21-01/
     RDKit          3D

 17 18  0  0  0  0  0  0  0  0999 V2000
   -7.9040    3.9820   27.1177 C   0  0  0  0  0  0  0  0  0  0  0  0
   -8.2057    2.8231   26.8733 C   0  0  0  0  0  0  0  0  0  0  0  0
   -8.7695    5.0740   26.7916 C   0  0  0  0  0  0  0  0  0  0  0  0
   -9.9618    4.7598   26.1630 C   0  0  0  0  0  0  0  0  0  0  0  0
   -9.4200    2.4524   26.2849 C   0  0  0  0  0  0  0  0  0  0  0  0
  -10.2590    3.4815   25.9250 C   0  0  0  0  0  0  0  0  0  0  0  0
   -8.3840    6.4693   27.0829 C   0  0  0  0  0  0  0  0  0  0  0  0
   -8.8815    7.3355   26.4985 F   0  0  0  0  0  0  0  0  0  0  0  0
   -8.5474    6.6598   28.4698 F   0  0  0  0  0  0  0  0  0  0  0  0
   -6.9650    6.5759   27.0431 F   0  0  0  0  0  0  0  0  0  0  0  0
   -7.2688    1.6772   27.2925 C   0  0  0  0  0  0  0  0  0  0  0  0
   -6.0647    1.9544   27.7471 N   0  0  0  0  0  0  0  0  0  0  0  0
   -5.2439    0.8834   28.1066 C   0  0  0  0  0  0  0  0  0  0  0  0
   -7.6880    0.3709   27.3787 C   0  0  0  0  0  0  0  0  0  0  0  0
   -6.9504   -0.6319   27.8585 C   0  0  0  0  0  0  0  0  0  0  0  0
   -5.6558   -0.3230   28.2696 C   0  0  0  0  0  0  0  0  0  0  0  0
   -3.9356    1.3421   28.5478 N   0  0  0  0  0  0  0  0  0  0  0  0
  3  7  1  0
  7  8  1  0
  7  9  1  0
  7 10  1  0
  2 11  1  0
 13 17  1  0
  1  2  2  0
  2  5  1  0
  5  6  2  0
  6  4  1  0
  4  3  2  0
  3  1  1  0
 11 12  2  0
 12 13  1  0
 13 16  2  0
 16 15  1  0
 15 14  2  0
 14 11  1  0
M  END
$$$$
