No_1920-complexes_sdf/6BKW-FPZ/2024-09-17-14-21-01/
     RDKit          3D

 16 17  0  0  0  0  0  0  0  0999 V2000
   -7.9040    3.9820   27.1177 C   0  0  0  0  0  0  0  0  0  0  0  0
   -8.2057    2.8231   26.8733 C   0  0  0  0  0  0  0  0  0  0  0  0
   -8.7695    5.0740   26.7916 C   0  0  0  0  0  0  0  0  0  0  0  0
   -9.9618    4.7598   26.1630 C   0  0  0  0  0  0  0  0  0  0  0  0
   -9.4200    2.4524   26.2849 C   0  0  0  0  0  0  0  0  0  0  0  0
  -10.2590    3.4815   25.9250 C   0  0  0  0  0  0  0  0  0  0  0  0
   -8.3840    6.4693   27.0829 C   0  0  0  0  0  0  0  0  0  0  0  0
   -7.9048    6.7586   28.1698 O   0  0  0  0  0  0  0  0  0  0  0  0
   -8.6411    7.3706   26.1769 O   0  0  0  0  0  0  0  0  0  0  0  0
   -7.2778    1.6722   27.2827 C   0  0  0  0  0  0  0  0  0  0  0  0
   -6.0222    1.9833   27.8511 C   0  0  0  0  0  0  0  0  0  0  0  0
   -5.1192    0.9166   28.1980 C   0  0  0  0  0  0  0  0  0  0  0  0
   -5.4980   -0.3796   28.0659 C   0  0  0  0  0  0  0  0  0  0  0  0
   -7.4045    0.2823   27.1987 C   0  0  0  0  0  0  0  0  0  0  0  0
   -8.7861   -0.0033   26.6331 C   0  0  0  0  0  0  0  0  0  0  0  0
   -6.6559   -0.6574   27.6281 C   0  0  0  0  0  0  0  0  0  0  0  0
  3  7  1  0
  7  8  2  0
  7  9  1  0
  2 10  1  0
 15 14  1  0
 10 11  2  0
 11 12  1  0
 12 13  2  0
 13 16  1  0
 16 14  2  0
 14 10  1  0
  1  2  2  0
  2  5  1  0
  5  6  2  0
  6  4  1  0
  4  3  2  0
  3  1  1  0
M  END
$$$$
