No_1264-complexes_sdf/6BKW-FPZ/2024-09-17-14-21-01/
     RDKit          3D

 23 24  0  0  0  0  0  0  0  0999 V2000
   -7.7129    4.2099   27.0854 C   0  0  0  0  0  0  0  0  0  0  0  0
   -8.9133    4.4736   27.0998 C   0  0  0  0  0  0  0  0  0  0  0  0
   -9.4643    5.5426   27.7628 C   0  0  0  0  0  0  0  0  0  0  0  0
   -6.8373    4.9942   27.9785 C   0  0  0  0  0  0  0  0  0  0  0  0
   -7.3717    6.0428   28.6744 C   0  0  0  0  0  0  0  0  0  0  0  0
   -8.6869    6.3937   28.5345 C   0  0  0  0  0  0  0  0  0  0  0  0
   -9.8029    3.6153   26.2122 C   0  0  0  0  0  0  0  0  0  0  0  0
   -9.9429    3.9817   24.8854 N   0  0  0  0  0  0  0  0  0  0  0  0
  -10.4934    3.2455   23.9643 C   0  0  0  0  0  0  0  0  0  0  0  0
  -10.6807    3.7868   22.6941 C   0  0  0  0  0  0  0  0  0  0  0  0
  -10.7151    1.8706   24.1415 C   0  0  0  0  0  0  0  0  0  0  0  0
  -10.5570    5.1958   22.4338 C   0  0  0  0  0  0  0  0  0  0  0  0
  -10.6699    1.3754   25.1854 C   0  0  0  0  0  0  0  0  0  0  0  0
  -10.0040    2.2209   26.4891 C   0  0  0  0  0  0  0  0  0  0  0  0
  -11.0630    3.0054   21.6091 C   0  0  0  0  0  0  0  0  0  0  0  0
   -9.7864    1.6549   27.7507 C   0  0  1  0  0  0  0  0  0  0  0  0
  -10.6800    1.8642   28.6401 C   0  0  0  0  0  0  0  0  0  0  0  0
   -9.3816    0.1244   27.5975 C   0  0  0  0  0  0  0  0  0  0  0  0
   -8.0565   -0.1615   27.4322 C   0  0  0  0  0  0  0  0  0  0  0  0
   -7.4999   -1.0935   27.4265 C   0  0  0  0  0  0  0  0  0  0  0  0
   -6.0560   -1.2191   27.1723 C   0  0  0  0  0  0  0  0  0  0  0  0
   -5.3017   -0.6214   27.5974 C   0  0  0  0  0  0  0  0  0  0  0  0
   -5.7283    0.8725   27.8263 C   0  0  0  0  0  0  0  0  0  0  0  0
  2  7  1  0
 10 12  1  0
 10 15  1  0
 14 16  1  0
 16 17  1  1
 16 18  1  0
 18 19  2  3
 19 20  1  0
 20 21  2  3
 21 22  1  0
 22 23  2  0
 10  9  1  0
  1  2  2  0
  2  3  1  0
  3  6  2  0
  6  5  1  0
  5  4  2  0
  4  1  1  0
  7  8  2  0
  8  9  1  0
  9 11  2  0
 11 13  1  0
 13 14  2  0
 14  7  1  0
M  END
$$$$
