No_1785-complexes_sdf/6BKW-FPZ/2024-09-17-14-21-01/
     RDKit          3D

 26 29  0  0  0  0  0  0  0  0999 V2000
   -7.7129    4.2099   27.0854 C   0  0  0  0  0  0  0  0  0  0  0  0
   -8.2112    3.0637   26.9225 C   0  0  0  0  0  0  0  0  0  0  0  0
   -9.4446    2.8304   26.1868 C   0  0  0  0  0  0  0  0  0  0  0  0
   -6.6388    4.5347   28.1122 C   0  0  1  0  0  0  0  0  0  0  0  0
   -9.9056    3.6854   25.8005 C   0  0  0  0  0  0  0  0  0  0  0  0
   -9.4745    5.1149   25.8420 C   0  0  0  0  0  0  0  0  0  0  0  0
   -8.4483    5.3628   26.6017 C   0  0  0  0  0  0  0  0  0  0  0  0
   -5.6516    3.6065   28.0850 N   0  0  0  0  0  0  0  0  0  0  0  0
   -6.6566    5.5580   28.7145 F   0  0  0  0  0  0  0  0  0  0  0  0
  -11.1773    3.5905   24.8133 C   0  0  0  0  0  0  0  0  0  0  0  0
  -12.3477    3.3469   25.3304 C   0  0  0  0  0  0  0  0  0  0  0  0
  -11.1611    4.4577   23.6741 C   0  0  0  0  0  0  0  0  0  0  0  0
  -12.1638    4.3111   22.7067 C   0  0  0  0  0  0  0  0  0  0  0  0
  -12.4293    2.6617   26.5654 C   0  0  0  0  0  0  0  0  0  0  0  0
  -13.6939    2.4308   27.1853 C   0  0  0  0  0  0  0  0  0  0  0  0
  -13.4805    3.3332   24.4892 C   0  0  0  0  0  0  0  0  0  0  0  0
  -13.3771    3.9455   23.2309 C   0  0  0  0  0  0  0  0  0  0  0  0
  -14.7304    3.1053   26.7405 C   0  0  0  0  0  0  0  0  0  0  0  0
  -14.8092    3.3224   25.1569 C   0  0  0  0  0  0  0  0  0  0  0  0
  -16.0336    3.6991   24.5646 C   0  0  0  0  0  0  0  0  0  0  0  0
  -17.1895    3.3754   25.0756 C   0  0  0  0  0  0  0  0  0  0  0  0
  -17.2163    2.7007   26.3104 C   0  0  0  0  0  0  0  0  0  0  0  0
  -15.7254    3.9165   27.4425 C   0  0  0  0  0  0  0  0  0  0  0  0
  -16.9766    3.3898   27.4526 C   0  0  1  0  0  0  0  0  0  0  0  0
  -17.8942    3.6712   28.4999 C   0  0  0  0  0  0  0  0  0  0  0  0
  -17.7546    3.8617   29.7324 S   0  0  0  0  0  0  0  0  0  0  0  0
  1  4  1  0
  4  8  1  6
  4  9  1  0
  5 10  1  0
 19 20  1  0
 20 21  2  0
 21 22  1  0
 18 23  1  0
 22 24  1  0
 23 24  1  0
 24 25  1  6
 25 26  2  0
 11 14  1  0
 14 15  2  0
 15 18  1  0
 18 19  2  0
 19 16  1  0
 10 11  2  0
 11 16  1  0
 16 17  2  0
 17 13  1  0
 13 12  2  0
 12 10  1  0
  1  2  2  0
  2  3  1  0
  3  5  2  0
  5  6  1  0
  6  7  2  0
  7  1  1  0
M  END
$$$$
