No_145-complexes_sdf/6BKW-FPZ/2024-09-17-14-21-01/
     RDKit          3D

 26 28  0  0  0  0  0  0  0  0999 V2000
   -7.2496    3.8871   27.4508 C   0  0  0  0  0  0  0  0  0  0  0  0
   -7.9379    4.9063   27.8518 C   0  0  0  0  0  0  0  0  0  0  0  0
   -8.9501    5.3664   27.1340 C   0  0  0  0  0  0  0  0  0  0  0  0
   -6.1760    3.3069   28.2733 C   0  0  0  0  0  0  0  0  0  0  0  0
   -9.4085    4.7897   25.9343 C   0  0  0  0  0  0  0  0  0  0  0  0
   -8.7240    3.6012   25.5494 C   0  0  0  0  0  0  0  0  0  0  0  0
   -7.7568    3.1254   26.3556 C   0  0  0  0  0  0  0  0  0  0  0  0
   -5.5882    2.0365   27.9387 C   0  0  0  0  0  0  0  0  0  0  0  0
   -5.9176    1.0494   27.7589 C   0  0  0  0  0  0  0  0  0  0  0  0
   -5.1135   -0.1802   27.6790 C   0  0  0  0  0  0  0  0  0  0  0  0
   -3.7868    0.0978   27.7885 C   0  0  0  0  0  0  0  0  0  0  0  0
   -3.2319    1.2832   27.8568 C   0  0  0  0  0  0  0  0  0  0  0  0
   -4.0084    2.2886   28.0108 C   0  0  0  0  0  0  0  0  0  0  0  0
   -3.0006   -1.1220   27.6860 O   0  0  0  0  0  0  0  0  0  0  0  0
   -2.5834   -1.4927   26.6224 C   0  0  0  0  0  0  0  0  0  0  0  0
   -9.5799    6.6168   27.4488 F   0  0  0  0  0  0  0  0  0  0  0  0
   -2.6603   -2.8353   26.3253 C   0  0  0  0  0  0  0  0  0  0  0  0
   -3.7986   -3.4566   26.8507 C   0  0  0  0  0  0  0  0  0  0  0  0
   -4.6102   -3.7985   26.2782 C   0  0  0  0  0  0  0  0  0  0  0  0
   -5.8842   -4.4856   26.7754 C   0  0  0  0  0  0  0  0  0  0  0  0
   -5.9273   -4.6659   28.1521 C   0  0  0  0  0  0  0  0  0  0  0  0
   -7.0677   -5.2547   28.7221 C   0  0  0  0  0  0  0  0  0  0  0  0
   -3.8449   -3.7306   28.3604 C   0  0  0  0  0  0  0  0  0  0  0  0
   -4.8962   -4.2234   28.9228 C   0  0  0  0  0  0  0  0  0  0  0  0
   -8.1683   -4.9331   28.7364 C   0  0  0  0  0  0  0  0  0  0  0  0
   -9.3190   -5.5612   29.3952 C   0  0  0  0  0  0  0  0  0  0  0  0
  1  4  1  0
 11 14  1  0
 14 15  1  0
  3 16  1  0
 15 17  1  0
 17 18  1  0
 21 22  1  0
 22 25  2  3
 25 26  1  0
  4  8  1  0
 18 19  2  0
 19 20  1  0
 20 21  2  0
 21 24  1  0
 24 23  2  0
 23 18  1  0
  8  9  2  0
  9 10  1  0
 10 11  2  0
 11 12  1  0
 12 13  2  0
 13  8  1  0
  1  2  2  0
  2  3  1  0
  3  5  2  0
  5  6  1  0
  6  7  2  0
  7  1  1  0
M  END
$$$$
