No_1108-complexes_sdf/6BKW-FPZ/2024-09-17-14-21-01/
     RDKit          3D

 24 26  0  0  0  0  0  0  0  0999 V2000
   -7.7129    4.2099   27.0854 C   0  0  0  0  0  0  0  0  0  0  0  0
   -7.7814    5.1722   27.8972 C   0  0  0  0  0  0  0  0  0  0  0  0
   -7.2983    2.9533   27.5684 C   0  0  0  0  0  0  0  0  0  0  0  0
   -7.6908    1.8111   26.9553 C   0  0  0  0  0  0  0  0  0  0  0  0
   -8.6533    1.9165   25.9430 C   0  0  0  0  0  0  0  0  0  0  0  0
   -9.0481    0.6432   25.3571 C   0  0  0  0  0  0  0  0  0  0  0  0
   -8.7931    4.0666   26.1359 C   0  0  0  0  0  0  0  0  0  0  0  0
   -9.2244    3.0102   25.5992 C   0  0  0  0  0  0  0  0  0  0  0  0
   -9.3367   -0.3552   25.8100 N   0  0  0  0  0  0  0  0  0  0  0  0
   -9.6430   -1.4876   25.2980 C   0  0  0  0  0  0  0  0  0  0  0  0
   -9.3541    0.7496   24.0552 O   0  0  0  0  0  0  0  0  0  0  0  0
   -8.1873    6.5012   27.5185 N   0  0  0  0  0  0  0  0  0  0  0  0
   -8.3242    6.8718   26.3591 C   0  0  0  0  0  0  0  0  0  0  0  0
   -9.3343    5.4322   25.6348 C   0  0  0  0  0  0  0  0  0  0  0  0
   -8.7739   -2.2743   24.9130 C   0  0  0  0  0  0  0  0  0  0  0  0
   -7.7272   -2.5077   25.6817 C   0  0  0  0  0  0  0  0  0  0  0  0
   -7.8432   -2.4903   26.9907 C   0  0  0  0  0  0  0  0  0  0  0  0
   -6.6289   -2.6236   27.8896 C   0  0  0  0  0  0  0  0  0  0  0  0
   -6.7530   -2.3850   29.3062 C   0  0  0  0  0  0  0  0  0  0  0  0
   -5.6301   -2.2672   30.1661 C   0  0  0  0  0  0  0  0  0  0  0  0
   -5.7429   -1.8003   31.4841 C   0  0  0  0  0  0  0  0  0  0  0  0
   -7.0290   -1.9842   32.1018 C   0  0  0  0  0  0  0  0  0  0  0  0
   -8.0961   -2.4159   31.3187 C   0  0  0  0  0  0  0  0  0  0  0  0
   -7.9965   -2.5506   29.9771 C   0  0  0  0  0  0  0  0  0  0  0  0
  5  6  1  0
  6  9  1  0
  9 10  1  0
  6 11  2  0
 10 15  1  0
 15 16  1  0
 16 17  2  3
 17 18  1  0
 18 19  1  0
  1  2  2  0
  2 12  1  0
 12 13  2  0
 13 14  1  0
 14  7  2  0
  1  3  1  0
  3  4  2  0
  4  5  1  0
  5  8  2  0
  8  7  1  0
  7  1  1  0
 19 20  2  0
 20 21  1  0
 21 22  2  0
 22 23  1  0
 23 24  2  0
 24 19  1  0
M  END
$$$$
