No_1063-complexes_sdf/6BKW-FPZ/2024-09-17-14-21-01/
     RDKit          3D

 16 18  0  0  0  0  0  0  0  0999 V2000
   -7.9040    3.9820   27.1177 C   0  0  0  0  0  0  0  0  0  0  0  0
   -8.2057    2.8231   26.8733 C   0  0  0  0  0  0  0  0  0  0  0  0
   -9.2962    2.4021   26.1155 C   0  0  0  0  0  0  0  0  0  0  0  0
   -6.8682    4.5169   28.0704 C   0  0  0  0  0  0  0  0  0  0  0  0
  -10.0578    3.3688   25.5520 C   0  0  0  0  0  0  0  0  0  0  0  0
   -9.6997    4.7480   25.6981 C   0  0  0  0  0  0  0  0  0  0  0  0
   -8.6783    5.1111   26.5262 C   0  0  0  0  0  0  0  0  0  0  0  0
  -11.1704    3.0677   24.6150 C   0  0  0  0  0  0  0  0  0  0  0  0
  -12.3590    2.8658   25.1091 C   0  0  0  0  0  0  0  0  0  0  0  0
  -12.6536    2.5971   26.2590 C   0  0  0  0  0  0  0  0  0  0  0  0
  -13.3450    2.6417   27.0822 C   0  0  0  0  0  0  0  0  0  0  0  0
  -13.6035    2.6122   28.4652 C   0  0  0  0  0  0  0  0  0  0  0  0
  -12.3806    2.3460   29.0982 C   0  0  0  0  0  0  0  0  0  0  0  0
  -11.1993    2.3012   28.3788 C   0  0  0  0  0  0  0  0  0  0  0  0
  -11.2651    2.4626   27.0063 C   0  0  0  0  0  0  0  0  0  0  0  0
  -10.1579    1.8637   26.5707 C   0  0  0  0  0  0  0  0  0  0  0  0
  1  4  1  0
  5  8  1  0
  8  9  1  0
  3 16  1  0
 15 16  1  0
  9 10  1  0
 10 11  2  0
 11 12  1  0
 12 13  2  0
 13 14  1  0
 14 15  2  0
 15 10  1  0
  1  2  2  0
  2  3  1  0
  3  5  2  0
  5  6  1  0
  6  7  2  0
  7  1  1  0
M  END
$$$$
