No_1539-complexes_sdf/6BKW-FPZ/2024-09-17-14-21-01/
     RDKit          3D

 23 25  0  0  0  0  0  0  0  0999 V2000
   -7.7129    4.2099   27.0854 C   0  0  0  0  0  0  0  0  0  0  0  0
   -8.2112    3.0637   26.9225 C   0  0  0  0  0  0  0  0  0  0  0  0
   -9.4446    2.8304   26.1868 C   0  0  0  0  0  0  0  0  0  0  0  0
   -8.4697    5.3956   26.7238 C   0  0  0  0  0  0  0  0  0  0  0  0
   -9.6172    5.2111   25.9513 C   0  0  0  0  0  0  0  0  0  0  0  0
  -10.0424    3.9782   25.6873 C   0  0  0  0  0  0  0  0  0  0  0  0
   -7.7142    1.7268   27.3793 C   0  0  0  0  0  0  0  0  0  0  0  0
   -6.2947    1.6902   27.6953 C   0  0  0  0  0  0  0  0  0  0  0  0
   -5.6943    0.5200   28.0808 C   0  0  0  0  0  0  0  0  0  0  0  0
   -4.3080    0.5541   28.5101 C   0  0  0  0  0  0  0  0  0  0  0  0
   -3.7507   -0.6191   28.9568 C   0  0  0  0  0  0  0  0  0  0  0  0
   -4.4326   -1.7829   28.9222 C   0  0  0  0  0  0  0  0  0  0  0  0
   -6.2538   -0.7531   28.1159 C   0  0  0  0  0  0  0  0  0  0  0  0
   -5.7235   -1.8332   28.5607 C   0  0  0  0  0  0  0  0  0  0  0  0
   -7.9314    6.7240   27.0208 C   0  0  0  0  0  0  0  0  0  0  0  0
   -7.1183    6.8060   27.9788 O   0  0  0  0  0  0  0  0  0  0  0  0
   -8.1578    7.8142   26.3053 O   0  0  0  0  0  0  0  0  0  0  0  0
  -11.1995    3.9727   24.7814 C   0  0  0  0  0  0  0  0  0  0  0  0
  -12.4125    3.6616   25.2255 C   0  0  0  0  0  0  0  0  0  0  0  0
  -13.5208    3.7218   24.3952 C   0  0  0  0  0  0  0  0  0  0  0  0
  -10.9623    4.0918   23.3917 C   0  0  0  0  0  0  0  0  0  0  0  0
  -11.9753    4.2201   22.4952 C   0  0  0  0  0  0  0  0  0  0  0  0
  -13.2598    3.9966   22.9892 C   0  0  0  0  0  0  0  0  0  0  0  0
  2  7  1  0
  7  8  2  3
  8  9  1  0
  4 15  1  0
 15 16  2  0
 15 17  1  0
  6 18  1  0
  1  2  2  0
  2  3  1  0
  3  6  2  0
  6  5  1  0
  5  4  2  0
  4  1  1  0
  9 10  2  0
 10 11  1  0
 11 12  2  0
 12 14  1  0
 14 13  2  0
 13  9  1  0
 18 19  2  0
 19 20  1  0
 20 23  2  0
 23 22  1  0
 22 21  2  0
 21 18  1  0
M  END
$$$$
