No_1421-complexes_sdf/6BKW-FPZ/2024-09-17-14-21-01/
     RDKit          3D

 11 11  0  0  0  0  0  0  0  0999 V2000
   -7.9040    3.9820   27.1177 C   0  0  0  0  0  0  0  0  0  0  0  0
   -7.8663    4.8694   27.9238 C   0  0  0  0  0  0  0  0  0  0  0  0
   -7.4547    2.7080   27.4594 C   0  0  0  0  0  0  0  0  0  0  0  0
   -7.9337    1.5946   26.8372 C   0  0  0  0  0  0  0  0  0  0  0  0
   -7.4948    0.3059   27.1189 C   0  0  0  0  0  0  0  0  0  0  0  0
   -8.3103   -0.7960   26.8543 C   0  0  0  0  0  0  0  0  0  0  0  0
   -8.6814    6.0274   27.8017 C   0  0  0  0  0  0  0  0  0  0  0  0
   -9.4118   -0.5704   25.9915 C   0  0  0  0  0  0  0  0  0  0  0  0
   -9.7831    0.6641   25.6089 C   0  0  0  0  0  0  0  0  0  0  0  0
   -9.0281    1.7788   26.0593 C   0  0  0  0  0  0  0  0  0  0  0  0
   -9.3326    6.2655   26.5038 C   0  0  0  0  0  0  0  0  0  0  0  0
  1  2  1  0
  1  3  2  3
  3  4  1  0
  2  7  2  3
  7 11  1  0
  4  5  2  0
  5  6  1  0
  6  8  2  0
  8  9  1  0
  9 10  2  0
 10  4  1  0
M  END
$$$$
