No_1593-complexes_sdf/6BKW-FPZ/2024-09-17-14-21-01/
     RDKit          3D

 10 10  0  0  0  0  0  0  0  0999 V2000
   -7.9040    3.9820   27.1177 C   0  0  0  0  0  0  0  0  0  0  0  0
   -9.0711    4.3164   27.0630 C   0  0  0  0  0  0  0  0  0  0  0  0
   -9.8698    3.9665   25.9495 C   0  0  0  0  0  0  0  0  0  0  0  0
   -7.4046    2.7946   26.4568 C   0  0  0  0  0  0  0  0  0  0  0  0
   -8.3645    2.1023   25.7152 C   0  0  0  0  0  0  0  0  0  0  0  0
   -9.5483    2.7427   25.4386 C   0  0  0  0  0  0  0  0  0  0  0  0
   -7.0080    4.5094   28.0245 F   0  0  0  0  0  0  0  0  0  0  0  0
  -10.4665    2.1434   24.4253 C   0  0  0  0  0  0  0  0  0  0  0  0
  -11.2944    2.5199   23.7844 C   0  0  0  0  0  0  0  0  0  0  0  0
  -12.1398    1.8585   22.8051 C   0  0  0  0  0  0  0  0  0  0  0  0
  1  7  1  0
  6  8  1  0
  8  9  2  3
  9 10  1  0
  1  2  2  0
  2  3  1  0
  3  6  2  0
  6  5  1  0
  5  4  2  0
  4  1  1  0
M  END
$$$$
