No_1579-complexes_sdf/6BKW-FPZ/2024-09-17-14-21-01/
     RDKit          3D

 19 20  0  0  0  0  0  0  0  0999 V2000
   -7.2496    3.8871   27.4508 C   0  0  0  0  0  0  0  0  0  0  0  0
   -8.5096    4.0291   27.2770 C   0  0  0  0  0  0  0  0  0  0  0  0
   -9.3451    2.8786   26.9046 C   0  0  0  0  0  0  0  0  0  0  0  0
  -10.6709    3.0505   26.6789 C   0  0  0  0  0  0  0  0  0  0  0  0
   -6.6581    2.5721   27.5327 C   0  0  0  0  0  0  0  0  0  0  0  0
   -7.4631    1.4726   27.2657 C   0  0  0  0  0  0  0  0  0  0  0  0
   -8.8003    1.6549   26.9477 C   0  0  0  0  0  0  0  0  0  0  0  0
  -11.4701    2.4379   26.9404 C   0  0  0  0  0  0  0  0  0  0  0  0
  -12.9956    2.5679   26.8163 C   0  0  0  0  0  0  0  0  0  0  0  0
  -13.3049    3.8134   26.3245 C   0  0  0  0  0  0  0  0  0  0  0  0
  -14.6506    4.1380   26.2041 C   0  0  0  0  0  0  0  0  0  0  0  0
   -9.1175    5.3355   27.2169 C   0  0  0  0  0  0  0  0  0  0  0  0
   -8.2347    6.4776   27.1964 C   0  0  0  0  0  0  0  0  0  0  0  0
   -8.7055    7.7939   26.8426 C   0  0  0  0  0  0  0  0  0  0  0  0
  -14.9574    5.4927   25.7581 C   0  0  0  0  0  0  0  0  0  0  0  0
  -16.2339    5.9883   25.8811 C   0  0  0  0  0  0  0  0  0  0  0  0
  -17.2534    5.1833   26.2810 C   0  0  0  0  0  0  0  0  0  0  0  0
  -16.9990    3.9469   26.6640 C   0  0  0  0  0  0  0  0  0  0  0  0
  -15.7300    3.4925   26.7431 C   0  0  0  0  0  0  0  0  0  0  0  0
  3  4  1  0
  4  8  2  3
  8  9  1  0
  9 10  2  3
 10 11  1  0
  2 12  1  0
 12 13  1  0
 13 14  2  0
  1  2  2  0
  2  3  1  0
  3  7  2  0
  7  6  1  0
  6  5  2  0
  5  1  1  0
 11 15  2  0
 15 16  1  0
 16 17  2  0
 17 18  1  0
 18 19  2  0
 19 11  1  0
M  END
$$$$
