No_1497-complexes_sdf/6BKW-FPZ/2024-09-17-14-21-01/
     RDKit          3D

 32 35  0  0  0  0  0  0  0  0999 V2000
   -7.9040    3.9820   27.1177 C   0  0  0  0  0  0  0  0  0  0  0  0
   -7.8663    4.8694   27.9238 C   0  0  0  0  0  0  0  0  0  0  0  0
   -9.0491    3.8523   26.2542 C   0  0  0  0  0  0  0  0  0  0  0  0
   -8.7661    5.9491   27.9690 C   0  0  0  0  0  0  0  0  0  0  0  0
   -9.9295    4.8502   26.2323 C   0  0  0  0  0  0  0  0  0  0  0  0
   -9.8077    5.9288   27.0933 C   0  0  0  0  0  0  0  0  0  0  0  0
   -7.1473    2.8227   27.0397 N   0  0  0  0  0  0  0  0  0  0  0  0
   -6.1772    2.6584   27.9698 C   0  0  0  0  0  0  0  0  0  0  0  0
   -5.3151    1.3919   27.7530 C   0  0  0  0  0  0  0  0  0  0  0  0
   -5.7621    0.4486   27.0088 C   0  0  0  0  0  0  0  0  0  0  0  0
   -7.3143    1.4943   26.5024 C   0  0  0  0  0  0  0  0  0  0  0  0
   -7.9526    0.8823   25.7606 O   0  0  0  0  0  0  0  0  0  0  0  0
   -4.1428    1.2677   28.6731 C   0  0  0  0  0  0  0  0  0  0  0  0
   -3.1790    1.1663   27.9741 F   0  0  0  0  0  0  0  0  0  0  0  0
   -4.3350    0.1036   29.4174 F   0  0  0  0  0  0  0  0  0  0  0  0
  -11.0352    4.8116   25.2645 C   0  0  0  0  0  0  0  0  0  0  0  0
  -10.8142    4.8767   24.0468 O   0  0  0  0  0  0  0  0  0  0  0  0
  -12.2465    4.5799   25.6681 O   0  0  0  0  0  0  0  0  0  0  0  0
  -13.2905    4.1957   24.8480 C   0  0  0  0  0  0  0  0  0  0  0  0
  -14.5349    4.3813   25.2984 C   0  0  0  0  0  0  0  0  0  0  0  0
  -14.7616    4.4093   26.6527 C   0  0  0  0  0  0  0  0  0  0  0  0
  -16.1052    4.6507   27.2105 C   0  0  0  0  0  0  0  0  0  0  0  0
  -17.1097    4.8649   26.2894 C   0  0  0  0  0  0  0  0  0  0  0  0
  -15.7876    4.6948   24.5744 C   0  0  0  0  0  0  0  0  0  0  0  0
  -16.9521    4.9225   25.0062 C   0  0  0  0  0  0  0  0  0  0  0  0
  -13.0686    3.8219   23.6836 O   0  0  0  0  0  0  0  0  0  0  0  0
  -18.0590    5.1642   24.0837 C   0  0  0  0  0  0  0  0  0  0  0  0
  -19.1041    5.4850   24.2210 C   0  0  0  0  0  0  0  0  0  0  0  0
  -20.1305    5.6780   23.1991 C   0  0  0  0  0  0  0  0  0  0  0  0
  -19.7201    5.4230   21.9138 C   0  0  0  0  0  0  0  0  0  0  0  0
  -18.4501    5.0505   21.6416 C   0  0  0  0  0  0  0  0  0  0  0  0
  -17.5096    4.9169   22.6508 C   0  0  0  0  0  0  0  0  0  0  0  0
  1  7  1  0
  7  8  1  0
  8  9  2  0
  9 10  1  0
  7 11  1  0
 10 11  1  0
 11 12  2  0
  9 13  1  0
 13 14  1  0
 13 15  1  0
  5 16  1  0
 16 17  2  0
 16 18  1  0
 18 19  1  0
 19 20  1  0
 19 26  2  0
 25 27  1  0
 27 28  2  0
 28 29  1  0
 29 30  2  0
 30 31  1  0
 31 32  2  0
 32 27  1  0
  1  2  2  0
  2  4  1  0
  4  6  2  0
  6  5  1  0
  5  3  2  0
  3  1  1  0
 20 21  2  0
 21 22  1  0
 22 23  2  0
 23 25  1  0
 25 24  2  0
 24 20  1  0
M  END
$$$$
