No_1241-complexes_sdf/6BKW-FPZ/2024-09-17-14-21-01/
     RDKit          3D

 15 16  0  0  0  0  0  0  0  0999 V2000
   -7.9040    3.9820   27.1177 C   0  0  0  0  0  0  0  0  0  0  0  0
   -9.0711    4.3164   27.0630 C   0  0  0  0  0  0  0  0  0  0  0  0
   -9.9692    3.7224   26.1073 C   0  0  0  0  0  0  0  0  0  0  0  0
   -6.9787    4.6761   28.1003 C   0  0  0  0  0  0  0  0  0  0  0  0
   -9.4538    2.6801   25.3673 C   0  0  0  0  0  0  0  0  0  0  0  0
   -8.1927    2.1957   25.6621 C   0  0  0  0  0  0  0  0  0  0  0  0
   -7.4333    2.8255   26.6299 C   0  0  0  0  0  0  0  0  0  0  0  0
  -10.3181    2.0008   24.3846 C   0  0  0  0  0  0  0  0  0  0  0  0
  -11.0032    1.2902   24.6312 N   0  0  0  0  0  0  0  0  0  0  0  0
  -10.4845    2.8199   23.1688 C   0  0  0  0  0  0  0  0  0  0  0  0
  -11.0575    2.1764   22.0854 C   0  0  0  0  0  0  0  0  0  0  0  0
  -11.6988    0.4948   23.6379 C   0  0  0  0  0  0  0  0  0  0  0  0
  -11.8022    1.0433   22.3856 C   0  0  0  0  0  0  0  0  0  0  0  0
   -7.4951    5.8048   28.6570 N   0  0  0  0  0  0  0  0  0  0  0  0
   -5.8236    4.3125   28.2826 O   0  0  0  0  0  0  0  0  0  0  0  0
  1  4  1  0
  5  8  1  0
  4 14  1  0
  4 15  2  0
  8  9  2  0
  9 12  1  0
 12 13  2  0
 13 11  1  0
 11 10  2  0
 10  8  1  0
  1  2  2  0
  2  3  1  0
  3  5  2  0
  5  6  1  0
  6  7  2  0
  7  1  1  0
M  END
$$$$
