No_1523-complexes_sdf/6BKW-FPZ/2024-09-17-14-21-01/
     RDKit          3D

 19 21  0  0  0  0  0  0  0  0999 V2000
   -7.9040    3.9820   27.1177 C   0  0  0  0  0  0  0  0  0  0  0  0
   -9.0711    4.3164   27.0630 C   0  0  0  0  0  0  0  0  0  0  0  0
   -9.9692    3.7224   26.1073 C   0  0  0  0  0  0  0  0  0  0  0  0
   -7.4776    2.6994   26.6283 C   0  0  0  0  0  0  0  0  0  0  0  0
   -8.4406    1.9440   25.9776 C   0  0  0  0  0  0  0  0  0  0  0  0
   -9.6379    2.5001   25.6881 C   0  0  0  0  0  0  0  0  0  0  0  0
   -6.7822    4.7986   28.1887 Cl  0  0  0  0  0  0  0  0  0  0  0  0
  -10.6003    1.7344   24.8207 C   0  0  2  0  0  0  0  0  0  0  0  0
  -11.3148    0.7964   25.2632 C   0  0  0  0  0  0  0  0  0  0  0  0
   -9.9516    1.4012   23.4501 C   0  0  0  0  0  0  0  0  0  0  0  0
  -11.6197    2.9083   24.2282 C   0  0  0  0  0  0  0  0  0  0  0  0
  -11.7411    3.1029   23.0460 C   0  0  0  0  0  0  0  0  0  0  0  0
   -9.0887    0.2908   23.4640 C   0  0  0  0  0  0  0  0  0  0  0  0
  -10.2523    2.2001   22.3414 C   0  0  0  0  0  0  0  0  0  0  0  0
  -10.8145   -0.4814   25.3504 C   0  0  1  0  0  0  0  0  0  0  0  0
  -11.3479   -1.5942   26.0623 C   0  0  0  0  0  0  0  0  0  0  0  0
   -9.6593   -0.8517   24.3751 C   0  0  0  0  0  0  0  0  0  0  0  0
  -10.0526    2.9735   26.5376 Br  0  0  0  0  0  0  0  0  0  0  0  0
   -9.5266    5.4962   27.8788 C   0  0  0  0  0  0  0  0  0  0  0  0
  1  7  1  0
  8  6  1  1
  8  9  1  0
  8 10  1  0
  8 11  1  0
 11 12  2  0
 10 13  1  0
 10 14  1  0
 12 14  1  0
 15 16  1  6
 15 17  1  0
  3 18  1  0
  2 19  1  0
  9 15  1  0
 17 13  1  0
  1  2  2  0
  2  3  1  0
  3  6  2  0
  6  5  1  0
  5  4  2  0
  4  1  1  0
M  END
$$$$
