No_1298-complexes_sdf/6BKW-FPZ/2024-09-17-14-21-01/
     RDKit          3D

 17 18  0  0  0  0  0  0  0  0999 V2000
   -7.7129    4.2099   27.0854 C   0  0  0  0  0  0  0  0  0  0  0  0
   -8.2112    3.0637   26.9225 C   0  0  0  0  0  0  0  0  0  0  0  0
   -8.5108    5.3904   26.9436 C   0  0  0  0  0  0  0  0  0  0  0  0
   -9.7256    5.1955   26.3518 C   0  0  0  0  0  0  0  0  0  0  0  0
   -9.4995    2.8258   26.4878 C   0  0  0  0  0  0  0  0  0  0  0  0
  -10.2542    3.9691   26.2055 C   0  0  0  0  0  0  0  0  0  0  0  0
   -7.9168    6.7086   27.1908 C   0  0  0  0  0  0  0  0  0  0  0  0
   -7.3556    1.8215   27.2519 C   0  0  0  0  0  0  0  0  0  0  0  0
   -7.7773    0.5907   27.0987 N   0  0  0  0  0  0  0  0  0  0  0  0
   -6.0945    1.9948   27.6900 N   0  0  0  0  0  0  0  0  0  0  0  0
   -8.8675    0.0910   26.6301 C   0  0  0  0  0  0  0  0  0  0  0  0
   -9.0289   -1.3057   26.6323 C   0  0  0  0  0  0  0  0  0  0  0  0
   -8.5856    7.8216   26.8057 N   0  0  0  0  0  0  0  0  0  0  0  0
  -10.2065   -1.8394   26.3976 C   0  0  0  0  0  0  0  0  0  0  0  0
  -11.1628   -1.4169   26.5202 C   0  0  0  0  0  0  0  0  0  0  0  0
  -11.2530    0.1364   26.5795 C   0  0  0  0  0  0  0  0  0  0  0  0
  -10.1166    0.8396   26.7489 C   0  0  0  0  0  0  0  0  0  0  0  0
  3  7  1  0
  2  8  1  0
  8  9  2  3
  8 10  1  0
  9 11  1  0
  7 13  1  0
 11 12  2  0
 12 14  1  0
 14 15  2  0
 15 16  1  0
 16 17  2  0
 17 11  1  0
  1  2  2  0
  2  5  1  0
  5  6  2  0
  6  4  1  0
  4  3  2  0
  3  1  1  0
M  END
$$$$
