No_1692-complexes_sdf/6BKW-FPZ/2024-09-17-14-21-01/
     RDKit          3D

  8  8  0  0  0  0  0  0  0  0999 V2000
   -7.2496    3.8871   27.4508 C   0  0  0  0  0  0  0  0  0  0  0  0
   -8.5096    4.0291   27.2770 C   0  0  0  0  0  0  0  0  0  0  0  0
   -9.2669    5.1645   27.5845 C   0  0  0  0  0  0  0  0  0  0  0  0
  -10.6621    5.2321   27.4284 C   0  0  0  0  0  0  0  0  0  0  0  0
   -9.2831    2.8719   26.7564 C   0  0  0  0  0  0  0  0  0  0  0  0
  -10.6359    2.9721   26.5036 C   0  0  0  0  0  0  0  0  0  0  0  0
  -11.3526    4.1308   26.9064 C   0  0  0  0  0  0  0  0  0  0  0  0
   -6.4950    4.8496   27.9814 N   0  0  0  0  0  0  0  0  0  0  0  0
  1  8  2  0
  1  2  1  0
  2  3  2  0
  3  4  1  0
  4  7  2  0
  7  6  1  0
  6  5  2  0
  5  2  1  0
M  END
$$$$
