No_181-complexes_sdf/6BKW-FPZ/2024-09-17-14-21-01/
     RDKit          3D

 22 24  0  0  0  0  0  0  0  0999 V2000
   -7.2496    3.8871   27.4508 C   0  0  0  0  0  0  0  0  0  0  0  0
   -7.6161    2.7143   27.1523 C   0  0  0  0  0  0  0  0  0  0  0  0
   -7.1618    1.8631   27.5233 C   0  0  0  0  0  0  0  0  0  0  0  0
   -8.0036    5.1085   27.2100 C   0  0  0  0  0  0  0  0  0  0  0  0
   -9.0765    5.1561   26.4023 C   0  0  0  0  0  0  0  0  0  0  0  0
   -9.5423    3.9740   25.8512 C   0  0  0  0  0  0  0  0  0  0  0  0
   -8.8464    2.7351   26.2620 C   0  0  0  0  0  0  0  0  0  0  0  0
   -5.7682    1.7949   28.0890 C   0  0  0  0  0  0  0  0  0  0  0  0
   -4.7571    1.3373   27.5633 C   0  0  0  0  0  0  0  0  0  0  0  0
   -4.7467    0.3358   26.6031 C   0  0  0  0  0  0  0  0  0  0  0  0
   -3.5703   -0.3365   26.2281 C   0  0  0  0  0  0  0  0  0  0  0  0
   -2.4422    0.2030   26.7592 N   0  0  0  0  0  0  0  0  0  0  0  0
   -7.5057    6.4298   27.8454 C   0  0  0  0  0  0  0  0  0  0  0  0
   -2.3478    0.6679   27.7988 C   0  0  0  0  0  0  0  0  0  0  0  0
   -3.4248    1.3467   28.3513 C   0  0  0  0  0  0  0  0  0  0  0  0
  -10.5955    3.9274   24.9008 C   0  0  0  0  0  0  0  0  0  0  0  0
  -10.9804    3.1092   24.2363 N   0  0  0  0  0  0  0  0  0  0  0  0
  -11.6485    2.2846   24.3230 C   0  0  0  0  0  0  0  0  0  0  0  0
  -11.8313    1.2427   23.3510 C   0  0  0  0  0  0  0  0  0  0  0  0
  -10.2690    3.0889   22.8733 C   0  0  0  0  0  0  0  0  0  0  0  0
  -10.7394    2.8251   21.9187 C   0  0  0  0  0  0  0  0  0  0  0  0
  -11.3730    1.4491   22.0650 C   0  0  0  0  0  0  0  0  0  0  0  0
  3  8  1  0
  4 13  1  0
  6 16  1  0
 16 17  1  0
 17 18  1  0
 17 20  1  0
 19 22  1  0
 21 22  1  0
  8  9  1  0
  3  2  1  0
 18 19  1  0
 21 20  1  0
  9 10  2  0
 10 11  1  0
 11 12  2  0
 12 14  1  0
 14 15  2  0
 15  9  1  0
  1  2  2  0
  2  7  1  0
  7  6  2  0
  6  5  1  0
  5  4  2  0
  4  1  1  0
M  END
$$$$
