No_1733-complexes_sdf/6BKW-FPZ/2024-09-17-14-21-01/
     RDKit          3D

 24 26  0  0  0  0  0  0  0  0999 V2000
   -7.9040    3.9820   27.1177 C   0  0  0  0  0  0  0  0  0  0  0  0
   -8.2057    2.8231   26.8733 C   0  0  0  0  0  0  0  0  0  0  0  0
   -7.0130    4.3706   28.1140 C   0  0  0  0  0  0  0  0  0  0  0  0
   -9.3829    2.4374   26.1668 C   0  0  0  0  0  0  0  0  0  0  0  0
   -9.6934    1.0230   26.0164 C   0  0  0  0  0  0  0  0  0  0  0  0
   -8.8160    0.1163   26.5021 C   0  0  0  0  0  0  0  0  0  0  0  0
   -7.7036    0.4823   27.0746 C   0  0  0  0  0  0  0  0  0  0  0  0
   -7.3023    1.7920   27.3952 C   0  0  0  0  0  0  0  0  0  0  0  0
   -8.8408    5.0890   26.6846 C   0  0  0  0  0  0  0  0  0  0  0  0
   -8.5432    6.4672   26.9689 C   0  0  0  0  0  0  0  0  0  0  0  0
   -6.8761    5.8096   28.5127 C   0  0  0  0  0  0  0  0  0  0  0  0
   -7.6115    6.7648   27.8612 C   0  0  0  0  0  0  0  0  0  0  0  0
   -6.7545   -0.6176   27.6465 C   0  0  0  0  0  0  0  0  0  0  0  0
   -5.5272   -0.3088   27.9726 N   0  0  0  0  0  0  0  0  0  0  0  0
   -4.8053    0.4363   27.4801 C   0  0  0  0  0  0  0  0  0  0  0  0
   -3.3467    0.0408   27.4703 C   0  0  0  0  0  0  0  0  0  0  0  0
   -2.9352   -0.2992   28.6750 C   0  0  0  0  0  0  0  0  0  0  0  0
   -4.8535   -1.1225   29.0460 C   0  0  0  0  0  0  0  0  0  0  0  0
   -3.5950   -1.1960   29.3039 C   0  0  0  0  0  0  0  0  0  0  0  0
   -7.2968   -1.6765   27.9980 O   0  0  0  0  0  0  0  0  0  0  0  0
  -10.8726    0.7001   25.2838 C   0  0  0  0  0  0  0  0  0  0  0  0
  -11.7909    0.1910   25.7891 F   0  0  0  0  0  0  0  0  0  0  0  0
  -10.4352   -0.1472   24.1662 F   0  0  0  0  0  0  0  0  0  0  0  0
  -11.3534    1.7662   24.5023 F   0  0  0  0  0  0  0  0  0  0  0  0
  1  2  1  0
  7 13  1  0
 13 14  1  0
 14 15  1  0
 16 17  1  0
 14 18  1  0
 17 19  1  0
 13 20  2  0
  5 21  1  0
 21 22  1  0
 21 23  1  0
 21 24  1  0
 15 16  1  0
 19 18  1  0
  1  3  2  0
  3 11  1  0
 11 12  2  0
 12 10  1  0
 10  9  2  0
  9  1  1  0
  2  4  2  0
  4  5  1  0
  5  6  2  0
  6  7  1  0
  7  8  2  0
  8  2  1  0
M  END
$$$$
