No_1667-complexes_sdf/6BKW-FPZ/2024-09-17-14-21-01/
     RDKit          3D

 37 41  0  0  0  0  0  0  0  0999 V2000
   -7.7129    4.2099   27.0854 C   0  0  0  0  0  0  0  0  0  0  0  0
   -8.9133    4.4736   27.0998 C   0  0  0  0  0  0  0  0  0  0  0  0
   -9.7937    3.7368   26.2091 C   0  0  0  0  0  0  0  0  0  0  0  0
   -7.2495    2.8647   26.8496 C   0  0  0  0  0  0  0  0  0  0  0  0
   -8.1891    1.9790   26.3454 C   0  0  0  0  0  0  0  0  0  0  0  0
   -9.4252    2.4603   26.0121 C   0  0  0  0  0  0  0  0  0  0  0  0
   -9.3121    5.9663   27.2474 C   0  0  0  0  0  0  0  0  0  0  0  0
   -7.7466    0.5946   26.1401 C   0  0  0  0  0  0  0  0  0  0  0  0
   -8.0852    0.0018   24.9819 C   0  0  0  0  0  0  0  0  0  0  0  0
   -7.6073   -1.3167   24.7009 C   0  0  0  0  0  0  0  0  0  0  0  0
   -6.8329   -1.9903   25.6777 C   0  0  0  0  0  0  0  0  0  0  0  0
   -6.8819   -0.1006   27.0655 C   0  0  0  0  0  0  0  0  0  0  0  0
   -6.4756   -1.3261   26.8823 C   0  0  0  0  0  0  0  0  0  0  0  0
   -8.4328    7.0379   26.8918 C   0  0  0  0  0  0  0  0  0  0  0  0
   -7.5275    7.5746   26.7793 N   0  0  0  0  0  0  0  0  0  0  0  0
  -10.9405    4.3855   25.8192 C   0  0  1  0  0  0  0  0  0  0  0  0
  -11.1859    4.3891   24.4268 C   0  0  0  0  0  0  0  0  0  0  0  0
  -12.4241    4.0624   23.8423 C   0  0  0  0  0  0  0  0  0  0  0  0
  -12.5717    4.1890   22.4351 C   0  0  0  0  0  0  0  0  0  0  0  0
  -11.4100    4.4192   21.6628 C   0  0  0  0  0  0  0  0  0  0  0  0
  -10.1879    4.6128   22.2406 C   0  0  0  0  0  0  0  0  0  0  0  0
  -10.0275    4.6355   23.6241 C   0  0  0  0  0  0  0  0  0  0  0  0
  -12.0871    4.3946   26.7240 C   0  0  0  0  0  0  0  0  0  0  0  0
  -13.3407    3.9982   26.4990 C   0  0  0  0  0  0  0  0  0  0  0  0
  -13.7963    3.6097   25.5660 C   0  0  0  0  0  0  0  0  0  0  0  0
  -13.6028    3.8227   24.4568 C   0  0  0  0  0  0  0  0  0  0  0  0
   -7.9584   -1.9830   23.4474 C   0  0  0  0  0  0  0  0  0  0  0  0
   -8.8551   -2.7839   23.4958 C   0  0  0  0  0  0  0  0  0  0  0  0
   -9.5743   -3.2288   24.1424 C   0  0  0  0  0  0  0  0  0  0  0  0
  -10.6344   -4.2166   23.8732 C   0  0  0  0  0  0  0  0  0  0  0  0
  -11.6036   -4.6862   24.7701 C   0  0  0  0  0  0  0  0  0  0  0  0
  -11.5527   -4.1417   26.0730 C   0  0  0  0  0  0  0  0  0  0  0  0
  -10.6427   -3.1927   26.4683 C   0  0  0  0  0  0  0  0  0  0  0  0
   -9.7697   -2.7142   25.6606 C   0  0  0  0  0  0  0  0  0  0  0  0
   -8.9474   -3.3921   21.9862 C   0  0  0  0  0  0  0  0  0  0  0  0
   -7.1295   -1.4673   22.6291 F   0  0  0  0  0  0  0  0  0  0  0  0
   -8.5026   -2.6891   21.0287 C   0  0  0  0  0  0  0  0  0  0  0  0
  2  7  1  0
  5  8  1  0
  7 14  1  0
 14 15  3  0
 16  3  1  6
 16 17  1  0
 16 23  1  0
 23 24  2  0
 24 25  1  0
 18 26  1  0
 25 26  2  0
 10 27  1  0
 27 28  1  0
 28 29  1  0
 28 35  1  0
 27 36  1  0
 35 37  1  0
 17 18  1  0
 18 19  2  0
 19 20  1  0
 20 21  2  0
 21 22  1  0
 22 17  2  0
  1  2  2  0
  2  3  1  0
  3  6  2  0
  6  5  1  0
  5  4  2  0
  4  1  1  0
 29 30  2  0
 30 31  1  0
 31 32  2  0
 32 33  1  0
 33 34  2  0
 34 29  1  0
  8  9  2  0
  9 10  1  0
 10 11  2  0
 11 13  1  0
 13 12  2  0
 12  8  1  0
M  END
$$$$
