No_1995-complexes_sdf/6BKW-FPZ/2024-09-17-14-21-01/
     RDKit          3D

 18 20  0  0  0  0  0  0  0  0999 V2000
   -7.9040    3.9820   27.1177 C   0  0  0  0  0  0  0  0  0  0  0  0
   -7.8663    4.8694   27.9238 C   0  0  0  0  0  0  0  0  0  0  0  0
   -9.0953    3.1697   27.0532 C   0  0  0  0  0  0  0  0  0  0  0  0
  -10.1313    3.4052   27.8871 C   0  0  0  0  0  0  0  0  0  0  0  0
  -11.2910    2.5514   27.9289 C   0  0  0  0  0  0  0  0  0  0  0  0
   -8.9775    5.3451   28.7374 C   0  0  0  0  0  0  0  0  0  0  0  0
  -10.0738    4.4970   28.7375 C   0  0  0  0  0  0  0  0  0  0  0  0
  -11.9427    2.4456   26.8910 C   0  0  0  0  0  0  0  0  0  0  0  0
  -13.0691    1.7177   26.8891 C   0  0  0  0  0  0  0  0  0  0  0  0
  -13.4935    1.0007   28.0473 C   0  0  0  0  0  0  0  0  0  0  0  0
  -12.7254    1.1051   29.2027 C   0  0  0  0  0  0  0  0  0  0  0  0
  -11.6102    1.9026   29.2110 C   0  0  0  0  0  0  0  0  0  0  0  0
   -9.0776    1.9885   26.1550 C   0  0  0  0  0  0  0  0  0  0  0  0
   -8.3107    0.8298   26.3692 C   0  0  0  0  0  0  0  0  0  0  0  0
   -8.2478   -0.1901   25.5240 C   0  0  0  0  0  0  0  0  0  0  0  0
   -9.5566    2.1560   24.8576 C   0  0  0  0  0  0  0  0  0  0  0  0
   -9.4773    1.1513   23.9009 C   0  0  0  0  0  0  0  0  0  0  0  0
   -8.7563    0.0077   24.2460 C   0  0  0  0  0  0  0  0  0  0  0  0
  4  5  1  0
  3 13  1  0
  5  8  2  0
  8  9  1  0
  9 10  2  0
 10 11  1  0
 11 12  2  0
 12  5  1  0
 13 14  2  0
 14 15  1  0
 15 18  2  0
 18 17  1  0
 17 16  2  0
 16 13  1  0
  1  2  2  0
  2  6  1  0
  6  7  2  0
  7  4  1  0
  4  3  2  0
  3  1  1  0
M  END
$$$$
