No_1916-complexes_sdf/6BKW-FPZ/2024-09-17-14-21-01/
     RDKit          3D

 20 23  0  0  0  0  0  0  0  0999 V2000
   -7.2496    3.8871   27.4508 C   0  0  0  0  0  0  0  0  0  0  0  0
   -7.9379    4.9063   27.8518 C   0  0  0  0  0  0  0  0  0  0  0  0
   -7.5112    6.1898   27.6280 C   0  0  0  0  0  0  0  0  0  0  0  0
   -7.8078    2.6331   27.2522 C   0  0  0  0  0  0  0  0  0  0  0  0
   -9.1846    2.4724   27.5426 C   0  0  2  0  0  0  0  0  0  0  0  0
   -9.9168    3.5155   28.0405 C   0  0  0  0  0  0  0  0  0  0  0  0
   -9.3366    4.7963   28.1727 C   0  0  0  0  0  0  0  0  0  0  0  0
  -11.3251    3.2741   28.4031 C   0  0  0  0  0  0  0  0  0  0  0  0
  -11.8022    2.0322   28.7055 C   0  0  0  0  0  0  0  0  0  0  0  0
  -13.1146    1.8250   29.1070 C   0  0  0  0  0  0  0  0  0  0  0  0
  -13.5680    0.5310   29.3278 C   0  0  0  0  0  0  0  0  0  0  0  0
  -12.6678   -0.5344   29.0591 C   0  0  0  0  0  0  0  0  0  0  0  0
  -11.3943   -0.3635   28.5884 C   0  0  0  0  0  0  0  0  0  0  0  0
  -10.9345    0.9771   28.4291 C   0  0  0  0  0  0  0  0  0  0  0  0
   -9.6870    1.1248   27.9038 N   0  0  0  0  0  0  0  0  0  0  0  0
   -8.9037    0.0010   27.4508 C   0  0  0  0  0  0  0  0  0  0  0  0
   -8.0550    0.2782   26.5517 C   0  0  0  0  0  0  0  0  0  0  0  0
   -7.1378    1.3845   26.7828 C   0  0  0  0  0  0  0  0  0  0  0  0
   -7.9145   -0.4237   25.3642 C   0  0  0  0  0  0  0  0  0  0  0  0
   -6.8678   -0.6837   24.8124 C   0  0  0  0  0  0  0  0  0  0  0  0
  1  2  1  0
  2  3  2  0
  1  4  1  0
  5  4  1  1
  5  6  1  0
  2  7  1  0
  6  7  1  0
  6  8  1  0
  5 15  1  0
 14 15  1  0
 15 16  1  0
 16 17  1  0
  4 18  1  0
 17 18  1  0
 17 19  1  0
 19 20  2  0
  8  9  1  0
  9 10  2  0
 10 11  1  0
 11 12  2  0
 12 13  1  0
 13 14  2  0
 14  9  1  0
M  END
$$$$
