No_1444-complexes_sdf/6BKW-FPZ/2024-09-17-14-21-01/
     RDKit          3D

 25 30  0  0  0  0  0  0  0  0999 V2000
   -7.9040    3.9820   27.1177 C   0  0  0  0  0  0  0  0  0  0  0  0
   -9.0711    4.3164   27.0630 C   0  0  0  0  0  0  0  0  0  0  0  0
   -9.5294    5.4517   27.7215 C   0  0  0  0  0  0  0  0  0  0  0  0
   -7.4336    2.7132   26.5681 C   0  0  0  0  0  0  0  0  0  0  0  0
   -8.2624    1.7597   26.6581 C   0  0  1  0  0  0  0  0  0  0  0  0
   -9.6598    2.0092   26.6342 C   0  0  1  0  0  0  0  0  0  0  0  0
  -10.0433    3.2712   27.0366 C   0  0  1  0  0  0  0  0  0  0  0  0
   -7.7846    0.4007   26.2002 C   0  0  0  0  0  0  0  0  0  0  0  0
   -8.1419   -0.1063   25.1128 C   0  0  0  0  0  0  0  0  0  0  0  0
   -9.0575    0.6310   24.2396 C   0  0  0  0  0  0  0  0  0  0  0  0
   -9.3419    0.0937   22.9421 C   0  0  0  0  0  0  0  0  0  0  0  0
  -10.1218    0.8346   21.9840 C   0  0  0  0  0  0  0  0  0  0  0  0
  -10.5705    2.0920   22.3868 C   0  0  0  0  0  0  0  0  0  0  0  0
  -10.2782    2.6250   23.6066 C   0  0  0  0  0  0  0  0  0  0  0  0
   -9.4979    1.9729   24.4857 C   0  0  0  0  0  0  0  0  0  0  0  0
  -10.0674    2.4165   25.7741 N   0  0  0  0  0  0  0  0  0  0  0  0
  -11.5805    2.9494   25.4155 C   0  0  2  0  0  0  0  0  0  0  0  0
  -11.0716    3.4290   28.0319 C   0  0  0  0  0  0  0  0  0  0  0  0
  -12.4330    2.7434   25.9834 C   0  0  0  0  0  0  0  0  0  0  0  0
  -13.7905    2.9229   25.4810 C   0  0  0  0  0  0  0  0  0  0  0  0
  -11.5229    3.0881   24.2725 N   0  0  0  0  0  0  0  0  0  0  0  0
  -10.6021    4.1296   26.8183 O   0  0  0  0  0  0  0  0  0  0  0  0
  -11.8901    4.3356   26.9779 C   0  0  0  0  0  0  0  0  0  0  0  0
   -8.2303    6.0344   28.1487 C   0  0  0  0  0  0  0  0  0  0  0  0
   -7.1660    5.0558   27.7723 C   0  0  0  0  0  0  0  0  0  0  0  0
  1  2  1  0
  2  3  2  0
  1  4  1  0
  5  4  1  6
  5  6  1  0
  2  7  1  0
  6  7  1  0
  5  8  1  0
  8  9  2  0
  9 10  1  0
  6 16  1  6
 15 16  1  0
 16 17  1  0
  7 18  1  1
 17 19  1  6
 19 20  1  0
 14 21  1  0
 17 21  1  0
  7 22  1  0
 18 23  1  0
 22 23  1  0
  3 24  1  0
  1 25  1  0
 24 25  1  0
 10 11  2  0
 11 12  1  0
 12 13  2  0
 13 14  1  0
 14 15  2  0
 15 10  1  0
M  END
$$$$
