No_18-complexes_sdf/6BKW-FPZ/2024-09-17-14-21-01/
     RDKit          3D

 20 21  0  0  0  0  0  0  0  0999 V2000
   -7.9040    3.9820   27.1177 C   0  0  0  0  0  0  0  0  0  0  0  0
   -8.2057    2.8231   26.8733 C   0  0  0  0  0  0  0  0  0  0  0  0
   -7.4766    1.7477   27.4593 C   0  0  0  0  0  0  0  0  0  0  0  0
   -8.7468    5.1251   26.6967 C   0  0  0  0  0  0  0  0  0  0  0  0
   -9.7234    4.8589   25.8202 C   0  0  0  0  0  0  0  0  0  0  0  0
   -9.9711    3.5858   25.4266 C   0  0  0  0  0  0  0  0  0  0  0  0
   -9.2266    2.4957   25.9600 C   0  0  0  0  0  0  0  0  0  0  0  0
   -7.8305    0.3697   27.3235 C   0  0  0  0  0  0  0  0  0  0  0  0
   -7.0984   -0.5913   27.8882 C   0  0  0  0  0  0  0  0  0  0  0  0
   -5.9598   -0.4148   28.2545 C   0  0  0  0  0  0  0  0  0  0  0  0
   -5.3214    0.9221   28.2761 C   0  0  0  0  0  0  0  0  0  0  0  0
   -6.0581    1.9324   27.8191 C   0  0  0  0  0  0  0  0  0  0  0  0
   -8.2203    6.4538   27.1714 C   0  0  0  0  0  0  0  0  0  0  0  0
   -9.0300    7.5540   26.9455 N   0  0  0  0  0  0  0  0  0  0  0  0
   -7.0082    6.5864   27.5830 O   0  0  0  0  0  0  0  0  0  0  0  0
   -4.1040    1.1556   28.7498 F   0  0  0  0  0  0  0  0  0  0  0  0
  -11.0281    3.3315   24.4516 C   0  0  0  0  0  0  0  0  0  0  0  0
  -12.2962    3.1457   24.8758 C   0  0  0  0  0  0  0  0  0  0  0  0
  -10.7301    3.3055   23.0712 C   0  0  0  0  0  0  0  0  0  0  0  0
   -9.9367    3.4605   22.4131 C   0  0  0  0  0  0  0  0  0  0  0  0
  2  3  1  0
  4 13  1  0
 13 14  1  0
 13 15  2  0
 11 16  1  0
  6 17  1  0
 17 18  1  0
 17 19  1  0
 19 20  1  0
  3  8  2  0
  8  9  1  0
  9 10  2  0
 10 11  1  0
 11 12  2  0
 12  3  1  0
  1  2  2  0
  2  7  1  0
  7  6  2  0
  6  5  1  0
  5  4  2  0
  4  1  1  0
M  END
$$$$
