No_1160-complexes_sdf/6BKW-FPZ/2024-09-17-14-21-01/
     RDKit          3D

 15 16  0  0  0  0  0  0  0  0999 V2000
   -7.7129    4.2099   27.0854 C   0  0  0  0  0  0  0  0  0  0  0  0
   -7.7814    5.1722   27.8972 C   0  0  0  0  0  0  0  0  0  0  0  0
   -8.8776    3.8408   26.3416 C   0  0  0  0  0  0  0  0  0  0  0  0
   -8.9136    2.6330   25.5655 C   0  0  0  0  0  0  0  0  0  0  0  0
   -8.8380    6.0976   27.6639 C   0  0  0  0  0  0  0  0  0  0  0  0
   -9.9036    4.7449   26.2606 C   0  0  0  0  0  0  0  0  0  0  0  0
   -9.8428    5.9017   26.9322 C   0  0  0  0  0  0  0  0  0  0  0  0
   -8.2728    1.4897   26.1855 C   0  0  0  0  0  0  0  0  0  0  0  0
   -8.3173    0.2474   25.5863 C   0  0  0  0  0  0  0  0  0  0  0  0
   -8.7663    0.1752   24.3352 C   0  0  0  0  0  0  0  0  0  0  0  0
   -9.4119    2.4527   24.3457 C   0  0  0  0  0  0  0  0  0  0  0  0
   -9.3676    1.2483   23.7023 C   0  0  0  0  0  0  0  0  0  0  0  0
   -9.9362    1.1473   22.3402 C   0  0  0  0  0  0  0  0  0  0  0  0
  -10.3709    2.2643   21.7741 C   0  0  0  0  0  0  0  0  0  0  0  0
  -10.9569    2.2441   20.4904 C   0  0  0  0  0  0  0  0  0  0  0  0
  3  4  1  0
 12 13  1  0
 13 14  2  3
 14 15  1  0
  4  8  2  0
  8  9  1  0
  9 10  2  0
 10 12  1  0
 12 11  2  0
 11  4  1  0
  1  2  2  0
  2  5  1  0
  5  7  2  0
  7  6  1  0
  6  3  2  0
  3  1  1  0
M  END
$$$$
