No_1997-complexes_sdf/6BKW-FPZ/2024-09-17-14-21-01/
     RDKit          3D

 21 23  0  0  0  0  0  0  0  0999 V2000
   -7.9040    3.9820   27.1177 C   0  0  0  0  0  0  0  0  0  0  0  0
   -7.8663    4.8694   27.9238 C   0  0  0  0  0  0  0  0  0  0  0  0
   -9.0491    3.8523   26.2542 C   0  0  0  0  0  0  0  0  0  0  0  0
   -8.7661    5.9491   27.9690 C   0  0  0  0  0  0  0  0  0  0  0  0
   -9.9295    4.8502   26.2323 C   0  0  0  0  0  0  0  0  0  0  0  0
   -9.8077    5.9288   27.0933 C   0  0  0  0  0  0  0  0  0  0  0  0
   -7.0146    2.9513   27.1368 F   0  0  0  0  0  0  0  0  0  0  0  0
   -9.1015    2.7190   25.2776 C   0  0  0  0  0  0  0  0  0  0  0  0
  -10.0875    2.0644   25.3590 N   0  0  0  0  0  0  0  0  0  0  0  0
  -10.4367    1.1049   24.5742 C   0  0  0  0  0  0  0  0  0  0  0  0
  -11.6268    0.4330   24.6604 C   0  0  0  0  0  0  0  0  0  0  0  0
   -9.5691    0.6687   23.4412 C   0  0  0  0  0  0  0  0  0  0  0  0
   -9.9150   -0.3298   22.5308 C   0  0  0  0  0  0  0  0  0  0  0  0
  -11.9764   -0.5955   23.7368 C   0  0  0  0  0  0  0  0  0  0  0  0
  -11.1074   -0.9432   22.6945 C   0  0  0  0  0  0  0  0  0  0  0  0
  -11.1042    2.1743   26.4283 C   0  0  0  0  0  0  0  0  0  0  0  0
  -11.1690    1.5305   27.5040 C   0  0  0  0  0  0  0  0  0  0  0  0
  -12.0715    1.7961   28.5359 C   0  0  0  0  0  0  0  0  0  0  0  0
  -12.8315    2.9782   28.4867 C   0  0  0  0  0  0  0  0  0  0  0  0
  -12.8081    3.7493   27.3599 C   0  0  0  0  0  0  0  0  0  0  0  0
  -11.8422    3.4683   26.3521 C   0  0  0  0  0  0  0  0  0  0  0  0
  1  7  1  0
  3  8  1  0
  8  9  1  0
  9 10  1  0
  9 16  1  0
  1  2  2  0
  2  4  1  0
  4  6  2  0
  6  5  1  0
  5  3  2  0
  3  1  1  0
 10 11  2  0
 11 14  1  0
 14 15  2  0
 15 13  1  0
 13 12  2  0
 12 10  1  0
 16 17  2  0
 17 18  1  0
 18 19  2  0
 19 20  1  0
 20 21  2  0
 21 16  1  0
M  END
$$$$
