No_1762-complexes_sdf/6BKW-FPZ/2024-09-17-14-21-01/
     RDKit          3D

 25 27  0  0  0  0  0  0  0  0999 V2000
   -7.2496    3.8871   27.4508 C   0  0  0  0  0  0  0  0  0  0  0  0
   -7.9379    4.9063   27.8518 C   0  0  0  0  0  0  0  0  0  0  0  0
   -9.3460    4.8223   27.8695 C   0  0  0  0  0  0  0  0  0  0  0  0
   -7.8628    2.6163   27.1065 C   0  0  0  0  0  0  0  0  0  0  0  0
   -9.2787    2.5744   27.1970 C   0  0  0  0  0  0  0  0  0  0  0  0
  -10.0108    3.6770   27.6340 C   0  0  0  0  0  0  0  0  0  0  0  0
  -11.4834    3.5674   27.7432 C   0  0  0  0  0  0  0  0  0  0  0  0
  -11.9395    2.6434   28.4995 C   0  0  0  0  0  0  0  0  0  0  0  0
  -13.2991    2.5755   28.9391 C   0  0  0  0  0  0  0  0  0  0  0  0
  -14.1285    3.5751   28.4315 C   0  0  0  0  0  0  0  0  0  0  0  0
  -13.6635    4.5859   27.6241 C   0  0  0  0  0  0  0  0  0  0  0  0
  -12.2733    4.7017   27.3545 C   0  0  0  0  0  0  0  0  0  0  0  0
   -6.9510    1.2837   26.7175 Cl  0  0  0  0  0  0  0  0  0  0  0  0
   -7.3202    6.0778   28.0755 O   0  0  0  0  0  0  0  0  0  0  0  0
  -15.6102    3.5047   28.7253 C   0  0  0  0  0  0  0  0  0  0  0  0
  -16.1599    3.8071   29.6874 O   0  0  0  0  0  0  0  0  0  0  0  0
  -16.3343    3.0695   27.6678 O   0  0  0  0  0  0  0  0  0  0  0  0
  -15.4436    4.2973   30.7939 C   0  0  0  0  0  0  0  0  0  0  0  0
  -16.0392    4.0824   32.0797 C   0  0  0  0  0  0  0  0  0  0  0  0
  -15.5079    3.4998   32.8659 C   0  0  0  0  0  0  0  0  0  0  0  0
  -16.0748    3.0509   34.1724 C   0  0  0  0  0  0  0  0  0  0  0  0
  -15.3349    2.3078   35.1458 C   0  0  0  0  0  0  0  0  0  0  0  0
  -13.9788    1.9378   34.8751 C   0  0  0  0  0  0  0  0  0  0  0  0
  -13.3868    2.3740   33.6853 C   0  0  0  0  0  0  0  0  0  0  0  0
  -14.0331    3.1246   32.7721 C   0  0  0  0  0  0  0  0  0  0  0  0
  6  7  1  0
  4 13  1  0
  2 14  1  0
 10 15  1  0
 15 16  1  0
 15 17  2  0
 16 18  1  0
 18 19  2  3
 19 20  1  0
 20 21  2  0
 21 22  1  0
 22 23  2  0
 23 24  1  0
 24 25  2  0
 25 20  1  0
  1  2  2  0
  2  3  1  0
  3  6  2  0
  6  5  1  0
  5  4  2  0
  4  1  1  0
  7  8  2  0
  8  9  1  0
  9 10  2  0
 10 11  1  0
 11 12  2  0
 12  7  1  0
M  END
$$$$
