No_1149-complexes_sdf/6BKW-FPZ/2024-09-17-14-21-01/
     RDKit          3D

 16 19  0  0  0  0  0  0  0  0999 V2000
   -7.9040    3.9820   27.1177 C   0  0  0  0  0  0  0  0  0  0  0  0
   -7.8663    4.8694   27.9238 C   0  0  0  0  0  0  0  0  0  0  0  0
   -9.0501    3.8017   26.2617 C   0  0  0  0  0  0  0  0  0  0  0  0
   -9.1826    2.7026   25.3575 C   0  0  0  0  0  0  0  0  0  0  0  0
   -8.6940    6.0131   27.8614 C   0  0  0  0  0  0  0  0  0  0  0  0
   -9.9755    4.8547   26.2361 C   0  0  0  0  0  0  0  0  0  0  0  0
   -9.7463    5.9398   27.0364 C   0  0  0  0  0  0  0  0  0  0  0  0
   -8.7079    1.4615   25.7719 C   0  0  0  0  0  0  0  0  0  0  0  0
   -9.8412    2.8520   24.1253 C   0  0  0  0  0  0  0  0  0  0  0  0
   -8.1421    1.2600   27.0217 C   0  0  0  0  0  0  0  0  0  0  0  0
   -7.3977    2.5298   27.5549 C   0  0  0  0  0  0  0  0  0  0  0  0
  -10.4508    4.0426   23.7537 C   0  0  0  0  0  0  0  0  0  0  0  0
  -10.6444    4.9452   24.9373 C   0  0  0  0  0  0  0  0  0  0  0  0
   -8.9111    0.2668   24.9891 C   0  0  0  0  0  0  0  0  0  0  0  0
   -9.1911    0.3533   23.7317 N   0  0  0  0  0  0  0  0  0  0  0  0
   -9.9347    1.6701   23.2660 C   0  0  0  0  0  0  0  0  0  0  0  0
  8 10  1  0
  1 11  1  0
 10 11  1  0
  4  8  1  0
  8 14  2  0
 14 15  1  0
 15 16  2  0
 16  9  1  0
  3  4  2  0
  4  9  1  0
  9 12  2  0
 12 13  1  0
 13  6  2  0
  1  2  2  0
  2  5  1  0
  5  7  2  0
  7  6  1  0
  6  3  1  0
  3  1  1  0
M  END
$$$$
