No_1970-complexes_sdf/6BKW-FPZ/2024-09-17-14-21-01/
     RDKit          3D

 19 21  0  0  0  0  0  0  0  0999 V2000
   -7.9040    3.9820   27.1177 C   0  0  0  0  0  0  0  0  0  0  0  0
   -8.2057    2.8231   26.8733 C   0  0  0  0  0  0  0  0  0  0  0  0
   -7.4766    1.7477   27.4593 C   0  0  0  0  0  0  0  0  0  0  0  0
   -8.7468    5.1251   26.6967 C   0  0  0  0  0  0  0  0  0  0  0  0
   -9.7234    4.8589   25.8202 C   0  0  0  0  0  0  0  0  0  0  0  0
   -9.9530    3.6960   25.4481 C   0  0  0  0  0  0  0  0  0  0  0  0
   -9.2267    2.5226   25.9518 C   0  0  0  0  0  0  0  0  0  0  0  0
   -7.8713    0.3774   27.3521 C   0  0  0  0  0  0  0  0  0  0  0  0
   -9.0599    0.2091   26.5046 C   0  0  0  0  0  0  0  0  0  0  0  0
   -9.6812    1.2084   25.7853 C   0  0  0  0  0  0  0  0  0  0  0  0
   -8.3598    6.5450   27.0886 C   0  0  0  0  0  0  0  0  0  0  0  0
   -8.0069    7.6128   27.0975 N   0  0  0  0  0  0  0  0  0  0  0  0
   -7.2045   -0.6707   28.0098 C   0  0  0  0  0  0  0  0  0  0  0  0
   -5.8830   -0.5245   28.4060 C   0  0  0  0  0  0  0  0  0  0  0  0
   -5.2021   -1.5189   29.1851 C   0  0  0  0  0  0  0  0  0  0  0  0
   -3.8671   -1.2400   29.6421 C   0  0  0  0  0  0  0  0  0  0  0  0
   -3.2417   -0.0311   29.2698 C   0  0  0  0  0  0  0  0  0  0  0  0
   -3.9433    0.9157   28.5242 C   0  0  0  0  0  0  0  0  0  0  0  0
   -5.1659    0.6988   28.1249 C   0  0  0  0  0  0  0  0  0  0  0  0
  4 11  1  0
 11 12  3  0
  8 13  1  0
 13 14  1  0
 14 15  2  0
 15 16  1  0
 16 17  2  0
 17 18  1  0
 18 19  2  0
 19 14  1  0
  1  2  2  0
  7  6  2  0
  6  5  1  0
  5  4  2  0
  4  1  1  0
  2  3  1  0
  3  8  2  0
  8  9  1  0
  9 10  2  0
 10  7  1  0
  7  2  1  0
M  END
$$$$
