No_1450-complexes_sdf/6BKW-FPZ/2024-09-17-14-21-01/
     RDKit          3D

 18 19  0  0  0  0  0  0  0  0999 V2000
   -7.9040    3.9820   27.1177 C   0  0  0  0  0  0  0  0  0  0  0  0
   -7.8663    4.8694   27.9238 C   0  0  0  0  0  0  0  0  0  0  0  0
   -9.0501    3.8017   26.2617 C   0  0  0  0  0  0  0  0  0  0  0  0
   -9.1826    2.7026   25.3575 C   0  0  0  0  0  0  0  0  0  0  0  0
   -8.6940    6.0131   27.8614 C   0  0  0  0  0  0  0  0  0  0  0  0
  -10.1138    4.6733   26.4644 C   0  0  0  0  0  0  0  0  0  0  0  0
   -9.8579    5.8496   27.1764 C   0  0  0  0  0  0  0  0  0  0  0  0
  -10.0349    2.8321   24.2731 C   0  0  0  0  0  0  0  0  0  0  0  0
  -10.1462    1.7711   23.3288 C   0  0  0  0  0  0  0  0  0  0  0  0
   -9.2927    0.6213   23.4982 C   0  0  0  0  0  0  0  0  0  0  0  0
   -8.3851    1.5328   25.4424 C   0  0  0  0  0  0  0  0  0  0  0  0
   -8.4320    0.5520   24.5452 C   0  0  0  0  0  0  0  0  0  0  0  0
   -7.5884   -0.6340   24.6775 C   0  0  0  0  0  0  0  0  0  0  0  0
   -6.6652   -0.6483   25.3890 O   0  0  0  0  0  0  0  0  0  0  0  0
   -7.7893   -1.6176   23.8406 O   0  0  0  0  0  0  0  0  0  0  0  0
  -11.0097    1.9464   22.2163 C   0  0  0  0  0  0  0  0  0  0  0  0
  -11.7727    1.2802   21.7906 C   0  0  0  0  0  0  0  0  0  0  0  0
  -12.6353    1.4465   20.5967 C   0  0  0  0  0  0  0  0  0  0  0  0
  3  4  1  0
 12 13  1  0
 13 14  2  0
 13 15  1  0
  9 16  1  0
 16 17  2  3
 17 18  1  0
  4  8  2  0
  8  9  1  0
  9 10  2  0
 10 12  1  0
 12 11  2  0
 11  4  1  0
  1  2  2  0
  2  5  1  0
  5  7  2  0
  7  6  1  0
  6  3  2  0
  3  1  1  0
M  END
$$$$
