No_1483-complexes_sdf/6BKW-FPZ/2024-09-17-14-21-01/
     RDKit          3D

 13 14  0  0  0  0  0  0  0  0999 V2000
   -7.9040    3.9820   27.1177 C   0  0  0  0  0  0  0  0  0  0  0  0
   -9.0711    4.3164   27.0630 C   0  0  0  0  0  0  0  0  0  0  0  0
   -9.5294    5.4517   27.7215 C   0  0  0  0  0  0  0  0  0  0  0  0
   -9.9845    3.5634   26.2189 C   0  0  0  0  0  0  0  0  0  0  0  0
  -10.5758    2.5046   26.7628 C   0  0  0  0  0  0  0  0  0  0  0  0
  -10.4293    2.0903   27.9866 C   0  0  0  0  0  0  0  0  0  0  0  0
   -6.9060    4.6050   28.0306 C   0  0  0  0  0  0  0  0  0  0  0  0
  -11.3638    1.5912   25.8517 C   0  0  0  0  0  0  0  0  0  0  0  0
   -7.3040    5.7900   28.6345 C   0  0  0  0  0  0  0  0  0  0  0  0
   -8.6217    6.3053   28.4058 C   0  0  0  0  0  0  0  0  0  0  0  0
  -11.9206    0.7664   26.1027 C   0  0  0  0  0  0  0  0  0  0  0  0
  -11.1718    0.9433   28.5324 C   0  0  0  0  0  0  0  0  0  0  0  0
  -11.9003    0.2231   27.6102 C   0  0  0  0  0  0  0  0  0  0  0  0
  2  4  1  0
  4  5  1  0
  1  2  2  0
  2  3  1  0
  3 10  2  0
 10  9  1  0
  9  7  2  0
  7  1  1  0
  5  6  2  0
  6 12  1  0
 12 13  2  0
 13 11  1  0
 11  8  2  0
  8  5  1  0
M  END
$$$$
