No_159-complexes_sdf/6BKW-FPZ/2024-09-17-14-21-01/
     RDKit          3D

 20 21  0  0  0  0  0  0  0  0999 V2000
   -7.7129    4.2099   27.0854 C   0  0  0  0  0  0  0  0  0  0  0  0
   -8.2112    3.0637   26.9225 C   0  0  0  0  0  0  0  0  0  0  0  0
   -8.5108    5.3904   26.9436 C   0  0  0  0  0  0  0  0  0  0  0  0
   -7.9752    6.6981   27.2112 C   0  0  0  0  0  0  0  0  0  0  0  0
   -9.5213    2.8209   26.4688 C   0  0  0  0  0  0  0  0  0  0  0  0
  -10.2979    3.9327   26.2378 C   0  0  0  0  0  0  0  0  0  0  0  0
   -9.7894    5.2123   26.4395 C   0  0  0  0  0  0  0  0  0  0  0  0
   -7.3451    1.8185   27.1796 C   0  0  0  0  0  0  0  0  0  0  0  0
   -6.0720    1.9951   27.7873 C   0  0  0  0  0  0  0  0  0  0  0  0
   -5.2638    0.8363   28.0519 C   0  0  0  0  0  0  0  0  0  0  0  0
   -5.7441   -0.4172   27.8376 C   0  0  0  0  0  0  0  0  0  0  0  0
   -7.8686    0.5242   26.9839 C   0  0  0  0  0  0  0  0  0  0  0  0
   -7.0650   -0.5628   27.3222 C   0  0  0  0  0  0  0  0  0  0  0  0
   -7.5386    7.2503   26.4471 F   0  0  0  0  0  0  0  0  0  0  0  0
   -3.9360    1.0655   28.6355 C   0  0  0  0  0  0  0  0  0  0  0  0
   -3.4431    2.1043   28.5112 F   0  0  0  0  0  0  0  0  0  0  0  0
   -3.0399    0.1018   28.1051 F   0  0  0  0  0  0  0  0  0  0  0  0
   -4.0001    0.8218   29.9992 F   0  0  0  0  0  0  0  0  0  0  0  0
   -7.9600    6.9829   28.5273 F   0  0  0  0  0  0  0  0  0  0  0  0
  -11.8532    3.8002   25.5540 Cl  0  0  0  0  0  0  0  0  0  0  0  0
  3  4  1  0
  2  8  1  0
  4 14  1  0
 10 15  1  0
 15 16  1  0
 15 17  1  0
 15 18  1  0
  4 19  1  0
  6 20  1  0
  1  2  2  0
  2  5  1  0
  5  6  2  0
  6  7  1  0
  7  3  2  0
  3  1  1  0
  8  9  2  0
  9 10  1  0
 10 11  2  0
 11 13  1  0
 13 12  2  0
 12  8  1  0
M  END
$$$$
