No_1829-complexes_sdf/6BKW-FPZ/2024-09-17-14-21-01/
     RDKit          3D

 39 43  0  0  0  0  0  0  0  0999 V2000
   -7.9040    3.9820   27.1177 C   0  0  0  0  0  0  0  0  0  0  0  0
   -9.0711    4.3164   27.0630 C   0  0  0  0  0  0  0  0  0  0  0  0
  -10.0395    3.8218   27.1938 C   0  0  0  0  0  0  0  0  0  0  0  0
   -7.6424    2.5858   27.3610 C   0  0  0  0  0  0  0  0  0  0  0  0
   -8.7741    1.7889   27.4566 C   0  0  0  0  0  0  0  0  0  0  0  0
  -10.0155    2.3581   27.4300 C   0  0  0  0  0  0  0  0  0  0  0  0
  -11.2141    1.4842   27.6314 C   0  0  0  0  0  0  0  0  0  0  0  0
  -10.9551    0.2369   27.8113 C   0  0  0  0  0  0  0  0  0  0  0  0
  -12.0354   -0.5700   28.2967 C   0  0  0  0  0  0  0  0  0  0  0  0
  -13.2723    0.0263   28.4935 C   0  0  0  0  0  0  0  0  0  0  0  0
  -12.4491    2.0205   28.0992 C   0  0  0  0  0  0  0  0  0  0  0  0
  -13.2449    1.4392   28.5351 C   0  0  0  0  0  0  0  0  0  0  0  0
   -6.3906    2.0655   27.3560 O   0  0  0  0  0  0  0  0  0  0  0  0
   -9.1297    6.0039   26.8514 C   0  0  1  0  0  0  0  0  0  0  0  0
   -9.1238    6.7412   27.8333 N   0  0  0  0  0  0  0  0  0  0  0  0
   -8.8010    6.5436   25.2957 P   0  0  0  0  0  0  0  0  0  0  0  0
   -8.7839    7.9681   25.4157 O   0  0  0  0  0  0  0  0  0  0  0  0
   -9.6120    5.7949   24.4636 O   0  0  0  0  0  0  0  0  0  0  0  0
   -7.7834    5.8538   25.5459 O   0  0  0  0  0  0  0  0  0  0  0  0
   -6.8512    7.0377   25.8523 C   0  0  0  0  0  0  0  0  0  0  0  0
   -6.0798    0.8068   27.4540 C   0  0  0  0  0  0  0  0  0  0  0  0
   -6.4650   -0.0759   26.5784 C   0  0  0  0  0  0  0  0  0  0  0  0
   -5.1140    0.4775   28.5108 C   0  0  0  0  0  0  0  0  0  0  0  0
   -4.8696   -0.8158   28.9280 C   0  0  0  0  0  0  0  0  0  0  0  0
   -6.1828   -1.4576   26.8169 C   0  0  0  0  0  0  0  0  0  0  0  0
   -5.3261   -1.7923   27.9482 C   0  0  0  0  0  0  0  0  0  0  0  0
   -7.5238    8.0905   26.7624 C   0  0  0  0  0  0  0  0  0  0  0  0
   -3.9916   -1.1298   29.9888 C   0  0  0  0  0  0  0  0  0  0  0  0
   -4.2598   -0.4285   31.1989 C   0  0  0  0  0  0  0  0  0  0  0  0
   -3.3343   -0.5773   32.2935 C   0  0  0  0  0  0  0  0  0  0  0  0
   -2.2286   -1.4510   32.1720 C   0  0  0  0  0  0  0  0  0  0  0  0
   -2.0061   -2.0623   30.9590 C   0  0  0  0  0  0  0  0  0  0  0  0
   -2.8701   -1.8655   29.9047 C   0  0  0  0  0  0  0  0  0  0  0  0
   -1.2932   -1.5593   33.3230 C   0  0  0  0  0  0  0  0  0  0  0  0
   -1.6692   -2.3322   34.2339 O   0  0  0  0  0  0  0  0  0  0  0  0
   -0.2108   -0.8907   33.3929 O   0  0  0  0  0  0  0  0  0  0  0  0
   -6.7231   -2.4784   26.0195 C   0  0  0  0  0  0  0  0  0  0  0  0
   -6.7483   -3.5198   26.0743 C   0  0  0  0  0  0  0  0  0  0  0  0
   -7.3356   -4.4846   25.1200 C   0  0  0  0  0  0  0  0  0  0  0  0
  6  7  1  0
  4 13  1  0
  2 14  1  0
 14 15  1  1
 14 16  1  0
 16 17  1  0
 16 18  2  0
 16 19  1  0
 19 20  1  0
 13 21  1  0
 17 27  1  0
 20 27  1  0
 24 28  1  0
 31 34  1  0
 34 35  1  0
 34 36  2  0
 25 37  1  0
 37 38  2  3
 38 39  1  0
  7  8  2  0
  8  9  1  0
  9 10  2  0
 10 12  1  0
 12 11  2  0
 11  7  1  0
 28 29  2  0
 29 30  1  0
 30 31  2  0
 31 32  1  0
 32 33  2  0
 33 28  1  0
  1  2  2  0
  2  3  1  0
  3  6  2  0
  6  5  1  0
  5  4  2  0
  4  1  1  0
 21 22  2  0
 22 25  1  0
 25 26  2  0
 26 24  1  0
 24 23  2  0
 23 21  1  0
M  END
$$$$
