No_1952-complexes_sdf/6BKW-FPZ/2024-09-17-14-21-01/
     RDKit          3D

 12 12  0  0  0  0  0  0  0  0999 V2000
   -7.7129    4.2099   27.0854 C   0  0  0  0  0  0  0  0  0  0  0  0
   -8.9133    4.4736   27.0998 C   0  0  1  0  0  0  0  0  0  0  0  0
   -9.7135    3.9633   26.0300 C   0  0  0  0  0  0  0  0  0  0  0  0
   -6.8420    4.9760   28.0851 C   0  0  0  0  0  0  0  0  0  0  0  0
  -10.9164    3.4776   26.1172 C   0  0  1  0  0  0  0  0  0  0  0  0
  -11.8264    3.9383   27.0654 C   0  0  0  0  0  0  0  0  0  0  0  0
  -11.1553    4.3836   28.3253 C   0  0  0  0  0  0  0  0  0  0  0  0
   -9.7832    4.8329   28.1739 C   0  0  0  0  0  0  0  0  0  0  0  0
  -11.5152    2.6296   25.0189 C   0  0  0  0  0  0  0  0  0  0  0  0
  -11.4647    3.0544   23.8161 C   0  0  0  0  0  0  0  0  0  0  0  0
  -11.2338    4.2735   23.4788 C   0  0  0  0  0  0  0  0  0  0  0  0
  -11.0642    4.7390   22.0665 C   0  0  0  0  0  0  0  0  0  0  0  0
  2  1  1  1
  2  3  1  0
  1  4  1  0
  3  5  1  0
  5  6  1  0
  6  7  1  0
  2  8  1  0
  7  8  1  0
  5  9  1  6
  9 10  1  0
 10 11  2  3
 11 12  1  0
M  END
$$$$
