No_16-complexes_sdf/6BKW-FPZ/2024-09-17-14-21-01/
     RDKit          3D

 30 32  0  0  0  0  0  0  0  0999 V2000
   -7.2496    3.8871   27.4508 C   0  0  0  0  0  0  0  0  0  0  0  0
   -7.9379    4.9063   27.8518 C   0  0  0  0  0  0  0  0  0  0  0  0
   -7.5112    6.1898   27.6280 C   0  0  0  0  0  0  0  0  0  0  0  0
   -7.8078    2.6331   27.2522 C   0  0  0  0  0  0  0  0  0  0  0  0
   -9.1846    2.4724   27.5426 C   0  0  0  0  0  0  0  0  0  0  0  0
   -9.9168    3.5155   28.0405 C   0  0  0  0  0  0  0  0  0  0  0  0
   -9.3366    4.7963   28.1727 C   0  0  0  0  0  0  0  0  0  0  0  0
  -11.3249    3.2653   28.4083 C   0  0  0  0  0  0  0  0  0  0  0  0
  -12.1802    4.2448   28.6670 C   0  0  0  0  0  0  0  0  0  0  0  0
  -13.5622    4.0651   28.9769 C   0  0  0  0  0  0  0  0  0  0  0  0
  -13.9371    2.7393   29.2761 C   0  0  0  0  0  0  0  0  0  0  0  0
  -13.0546    1.6977   29.0904 C   0  0  0  0  0  0  0  0  0  0  0  0
  -11.7608    1.9295   28.7001 C   0  0  0  0  0  0  0  0  0  0  0  0
   -7.0548    1.4359   26.8606 C   0  0  0  0  0  0  0  0  0  0  0  0
   -5.9611    1.1780   27.4844 O   0  0  0  0  0  0  0  0  0  0  0  0
   -7.5193    0.6931   25.8322 N   0  0  0  0  0  0  0  0  0  0  0  0
   -6.8776   -0.5130   25.3961 C   0  0  0  0  0  0  0  0  0  0  0  0
   -8.3115    7.1948   27.1960 F   0  0  0  0  0  0  0  0  0  0  0  0
  -15.2835    2.4574   29.6266 N   0  0  0  0  0  0  0  0  0  0  0  0
  -15.8708    1.5066   29.5767 C   0  0  0  0  0  0  0  0  0  0  0  0
  -17.0064    1.2293   28.8591 C   0  0  0  0  0  0  0  0  0  0  0  0
  -17.8052    2.1176   28.5114 C   0  0  0  0  0  0  0  0  0  0  0  0
  -17.4457    3.4904   28.9449 C   0  0  0  0  0  0  0  0  0  0  0  0
  -16.1260    3.7513   29.6053 C   0  0  0  0  0  0  0  0  0  0  0  0
   -8.7456    0.9613   25.1078 C   0  0  0  0  0  0  0  0  0  0  0  0
   -8.8144    0.7089   23.8309 C   0  0  0  0  0  0  0  0  0  0  0  0
   -9.8450    1.1659   23.0159 C   0  0  0  0  0  0  0  0  0  0  0  0
   -9.8578    0.7316   21.6629 C   0  0  0  0  0  0  0  0  0  0  0  0
   -9.0059   -0.3291   21.2945 C   0  0  0  0  0  0  0  0  0  0  0  0
   -8.0369   -0.8357   22.1166 C   0  0  0  0  0  0  0  0  0  0  0  0
  6  8  1  0
  4 14  1  0
 14 15  2  0
 14 16  1  0
 16 17  1  0
  3 18  1  0
 11 19  1  0
 19 20  1  0
 20 21  1  0
 22 23  1  0
 19 24  1  0
 16 25  1  0
 25 26  2  3
 26 27  1  0
 27 28  2  3
 28 29  1  0
 29 30  2  0
  3  2  1  0
 21 22  1  0
 23 24  1  0
  1  2  2  0
  2  7  1  0
  7  6  2  0
  6  5  1  0
  5  4  2  0
  4  1  1  0
  8  9  2  0
  9 10  1  0
 10 11  2  0
 11 12  1  0
 12 13  2  0
 13  8  1  0
M  END
$$$$
