No_1659-complexes_sdf/6BKW-FPZ/2024-09-17-14-21-01/
     RDKit          3D

 16 17  0  0  0  0  0  0  0  0999 V2000
   -7.9040    3.9820   27.1177 C   0  0  0  0  0  0  0  0  0  0  0  0
   -9.0711    4.3164   27.0630 C   0  0  0  0  0  0  0  0  0  0  0  0
  -10.0395    3.8218   27.1938 C   0  0  0  0  0  0  0  0  0  0  0  0
   -7.6424    2.5858   27.3610 C   0  0  0  0  0  0  0  0  0  0  0  0
   -8.7741    1.7889   27.4566 C   0  0  0  0  0  0  0  0  0  0  0  0
  -10.0155    2.3581   27.4300 C   0  0  0  0  0  0  0  0  0  0  0  0
   -9.1463    5.9504   26.8742 C   0  0  0  0  0  0  0  0  0  0  0  0
   -8.6590    6.5068   25.6590 C   0  0  0  0  0  0  0  0  0  0  0  0
   -6.0796    1.9129   27.3442 Cl  0  0  0  0  0  0  0  0  0  0  0  0
  -11.0715    1.3772   27.7821 C   0  0  0  0  0  0  0  0  0  0  0  0
  -12.1300    1.8997   28.5332 C   0  0  0  0  0  0  0  0  0  0  0  0
  -13.1191    1.8847   28.3471 C   0  0  0  0  0  0  0  0  0  0  0  0
  -13.6651    1.3483   27.1077 C   0  0  0  0  0  0  0  0  0  0  0  0
  -12.8328    0.5733   26.3876 C   0  0  0  0  0  0  0  0  0  0  0  0
  -11.5140    0.5503   26.8116 C   0  0  0  0  0  0  0  0  0  0  0  0
   -9.4535    6.8003   27.9213 C   0  0  0  0  0  0  0  0  0  0  0  0
  2  7  1  0
  7  8  1  0
  4  9  1  0
  6 10  1  0
  7 16  1  0
  1  2  2  0
  2  3  1  0
  3  6  2  0
  6  5  1  0
  5  4  2  0
  4  1  1  0
 10 11  2  0
 11 12  1  0
 12 13  2  0
 13 14  1  0
 14 15  2  0
 15 10  1  0
M  END
$$$$
