No_1352-complexes_sdf/6BKW-FPZ/2024-09-17-14-21-01/
     RDKit          3D

 15 16  0  0  0  0  0  0  0  0999 V2000
   -7.9040    3.9820   27.1177 C   0  0  0  0  0  0  0  0  0  0  0  0
   -9.0711    4.3164   27.0630 C   0  0  0  0  0  0  0  0  0  0  0  0
   -9.5294    5.4517   27.7215 C   0  0  0  0  0  0  0  0  0  0  0  0
   -6.9328    4.7309   27.8881 C   0  0  0  0  0  0  0  0  0  0  0  0
   -7.3377    5.8421   28.5537 C   0  0  0  0  0  0  0  0  0  0  0  0
   -8.6411    6.2609   28.3972 C   0  0  0  0  0  0  0  0  0  0  0  0
  -10.0493    3.4953   26.2711 C   0  0  0  0  0  0  0  0  0  0  0  0
   -9.5633    2.5387   25.5194 C   0  0  0  0  0  0  0  0  0  0  0  0
  -10.4262    1.8626   24.6529 C   0  0  0  0  0  0  0  0  0  0  0  0
  -11.6993    2.3055   24.4259 C   0  0  0  0  0  0  0  0  0  0  0  0
  -11.3602    3.9296   25.9175 C   0  0  0  0  0  0  0  0  0  0  0  0
  -12.1697    3.3666   25.1325 C   0  0  0  0  0  0  0  0  0  0  0  0
   -9.9056    0.6440   23.8879 C   0  0  0  0  0  0  0  0  0  0  0  0
   -9.3183   -0.3271   24.3254 C   0  0  0  0  0  0  0  0  0  0  0  0
   -8.8004   -1.3830   23.4768 C   0  0  0  0  0  0  0  0  0  0  0  0
  2  7  1  0
  9 13  1  0
 13 14  2  3
 14 15  1  0
  7  8  2  0
  8  9  1  0
  9 10  2  0
 10 12  1  0
 12 11  2  0
 11  7  1  0
  1  2  2  0
  2  3  1  0
  3  6  2  0
  6  5  1  0
  5  4  2  0
  4  1  1  0
M  END
$$$$
