No_1712-complexes_sdf/6BKW-FPZ/2024-09-17-14-21-01/
     RDKit          3D

 26 27  0  0  0  0  0  0  0  0999 V2000
   -7.9040    3.9820   27.1177 C   0  0  0  0  0  0  0  0  0  0  0  0
   -8.2057    2.8231   26.8733 C   0  0  0  0  0  0  0  0  0  0  0  0
   -8.7463    4.9537   27.6708 C   0  0  0  0  0  0  0  0  0  0  0  0
  -10.0901    4.5164   28.0293 C   0  0  0  0  0  0  0  0  0  0  0  0
   -9.5729    2.3483   27.2382 C   0  0  0  0  0  0  0  0  0  0  0  0
  -10.4170    3.2421   27.8237 C   0  0  0  0  0  0  0  0  0  0  0  0
   -8.2923    6.3427   27.8895 C   0  0  0  0  0  0  0  0  0  0  0  0
   -9.8564    0.9123   27.0141 C   0  0  0  0  0  0  0  0  0  0  0  0
   -8.9190    0.0508   26.8695 C   0  0  0  0  0  0  0  0  0  0  0  0
   -9.2222   -1.3202   26.7176 C   0  0  0  0  0  0  0  0  0  0  0  0
  -10.5698   -1.6938   26.8440 C   0  0  0  0  0  0  0  0  0  0  0  0
  -11.1401    0.3694   27.3358 C   0  0  0  0  0  0  0  0  0  0  0  0
  -11.4816   -0.8541   27.2396 C   0  0  0  0  0  0  0  0  0  0  0  0
   -9.0666    7.2780   27.3849 N   0  0  0  0  0  0  0  0  0  0  0  0
   -7.0748    6.5116   28.2118 O   0  0  0  0  0  0  0  0  0  0  0  0
  -12.8056   -1.3017   27.4117 N   0  0  0  0  0  0  0  0  0  0  0  0
  -13.2111   -1.4904   28.6033 C   0  0  0  0  0  0  0  0  0  0  0  0
  -12.6981   -1.5231   29.5724 C   0  0  0  0  0  0  0  0  0  0  0  0
  -12.8406   -1.8291   30.7645 C   0  0  0  0  0  0  0  0  0  0  0  0
  -13.1502   -2.8698   30.9298 F   0  0  0  0  0  0  0  0  0  0  0  0
  -11.6306   -1.7275   31.5313 F   0  0  0  0  0  0  0  0  0  0  0  0
  -13.6829   -0.9102   31.4045 F   0  0  0  0  0  0  0  0  0  0  0  0
  -13.5289   -1.4192   26.3073 C   0  0  0  0  0  0  0  0  0  0  0  0
  -11.2946   -1.9798   29.4266 F   0  0  0  0  0  0  0  0  0  0  0  0
  -13.4266   -1.2176   25.3084 C   0  0  0  0  0  0  0  0  0  0  0  0
  -13.8074   -1.0633   24.1883 C   0  0  0  0  0  0  0  0  0  0  0  0
  3  7  1  0
  5  8  1  0
  7 14  1  0
  7 15  2  0
 13 16  1  0
 16 17  1  0
 17 18  2  3
 18 19  1  0
 19 20  1  0
 19 21  1  0
 19 22  1  0
 16 23  1  0
 18 24  1  0
 23 25  2  3
 25 26  1  0
  1  2  2  0
  2  5  1  0
  5  6  2  0
  6  4  1  0
  4  3  2  0
  3  1  1  0
  8  9  2  0
  9 10  1  0
 10 11  2  0
 11 13  1  0
 13 12  2  0
 12  8  1  0
M  END
$$$$
