No_1524-complexes_sdf/6BKW-FPZ/2024-09-17-14-21-01/
     RDKit          3D

 18 20  0  0  0  0  0  0  0  0999 V2000
   -7.9040    3.9820   27.1177 C   0  0  0  0  0  0  0  0  0  0  0  0
   -9.0711    4.3164   27.0630 C   0  0  2  0  0  0  0  0  0  0  0  0
   -9.8698    3.9665   25.9495 C   0  0  0  0  0  0  0  0  0  0  0  0
   -6.9515    4.6878   28.0207 C   0  0  0  0  0  0  0  0  0  0  0  0
   -9.6406    4.4469   24.7375 C   0  0  0  0  0  0  0  0  0  0  0  0
  -10.8702    2.9094   26.0270 C   0  0  0  0  0  0  0  0  0  0  0  0
  -11.6880    2.6647   25.1330 C   0  0  0  0  0  0  0  0  0  0  0  0
  -10.4890    4.2552   23.6529 C   0  0  0  0  0  0  0  0  0  0  0  0
  -11.4597    3.3440   23.7926 C   0  0  0  0  0  0  0  0  0  0  0  0
   -7.5800    5.5533   28.8494 N   0  0  0  0  0  0  0  0  0  0  0  0
   -9.2970    5.4496   27.9948 C   0  0  0  0  0  0  0  0  0  0  0  0
   -5.7455    4.2533   28.2439 N   0  0  0  0  0  0  0  0  0  0  0  0
  -12.3713    3.1019   22.6297 C   0  0  0  0  0  0  0  0  0  0  0  0
  -12.0978    1.8573   22.1267 C   0  0  0  0  0  0  0  0  0  0  0  0
  -12.4559    1.5629   20.9339 C   0  0  0  0  0  0  0  0  0  0  0  0
  -13.2803    2.4900   20.1551 C   0  0  0  0  0  0  0  0  0  0  0  0
  -13.4996    3.7574   20.7013 C   0  0  0  0  0  0  0  0  0  0  0  0
  -12.5953    4.1737   21.8739 C   0  0  0  0  0  0  0  0  0  0  0  0
  1  2  1  0
  2  3  1  6
  1  4  1  0
  4 10  2  0
  2 11  1  0
 10 11  1  0
  4 12  1  0
  9 13  1  0
 13 14  2  0
 14 15  1  0
 15 16  2  0
 16 17  1  0
 17 18  2  0
 18 13  1  0
  3  5  2  0
  5  8  1  0
  8  9  2  0
  9  7  1  0
  7  6  2  0
  6  3  1  0
M  END
$$$$
