No_1074-complexes_sdf/6BKW-FPZ/2024-09-17-14-21-01/
     RDKit          3D

 13 14  0  0  0  0  0  0  0  0999 V2000
   -7.2496    3.8871   27.4508 C   0  0  0  0  0  0  0  0  0  0  0  0
   -7.9379    4.9063   27.8518 C   0  0  0  0  0  0  0  0  0  0  0  0
   -7.5112    6.1898   27.6280 C   0  0  0  0  0  0  0  0  0  0  0  0
   -7.8078    2.6331   27.2522 C   0  0  2  0  0  0  0  0  0  0  0  0
   -9.1846    2.4724   27.5426 C   0  0  0  0  0  0  0  0  0  0  0  0
   -9.7167    1.1504   27.3421 C   0  0  0  0  0  0  0  0  0  0  0  0
  -11.1026    1.0039   27.6242 C   0  0  0  0  0  0  0  0  0  0  0  0
  -11.7435    1.8150   27.6726 C   0  0  0  0  0  0  0  0  0  0  0  0
  -11.3713    3.2699   27.7979 C   0  0  0  0  0  0  0  0  0  0  0  0
  -10.0478    3.5694   27.7129 C   0  0  0  0  0  0  0  0  0  0  0  0
   -9.4701    4.8628   27.9267 C   0  0  0  0  0  0  0  0  0  0  0  0
   -6.9756    1.4741   26.9810 C   0  0  0  0  0  0  0  0  0  0  0  0
   -5.8530    1.3368   27.5590 O   0  0  0  0  0  0  0  0  0  0  0  0
  1  2  1  0
  2  3  2  0
  1  4  1  0
  4  5  1  0
  2 11  1  0
 10 11  1  0
  4 12  1  1
 12 13  2  0
  5  6  2  0
  6  7  1  0
  7  8  2  0
  8  9  1  0
  9 10  2  0
 10  5  1  0
M  END
$$$$
