No_1436-complexes_sdf/6BKW-FPZ/2024-09-17-14-21-01/
     RDKit          3D

 20 21  0  0  0  0  0  0  0  0999 V2000
   -7.7129    4.2099   27.0854 C   0  0  0  0  0  0  0  0  0  0  0  0
   -8.9133    4.4736   27.0998 C   0  0  0  0  0  0  0  0  0  0  0  0
   -9.8363    3.8127   27.2418 C   0  0  0  0  0  0  0  0  0  0  0  0
   -7.2995    2.8520   27.3808 C   0  0  0  0  0  0  0  0  0  0  0  0
   -8.3226    1.9328   27.4680 C   0  0  0  0  0  0  0  0  0  0  0  0
   -9.5955    2.3639   27.4416 C   0  0  0  0  0  0  0  0  0  0  0  0
   -9.1681    6.0379   26.9266 C   0  0  0  0  0  0  0  0  0  0  0  0
   -9.1311    6.5303   25.7834 F   0  0  0  0  0  0  0  0  0  0  0  0
  -10.3983    6.4302   27.4242 F   0  0  0  0  0  0  0  0  0  0  0  0
   -8.2458    6.8181   27.6529 F   0  0  0  0  0  0  0  0  0  0  0  0
   -7.9659    0.5317   27.6111 C   0  0  0  0  0  0  0  0  0  0  0  0
   -8.9381   -0.4313   27.6271 N   0  0  0  0  0  0  0  0  0  0  0  0
  -10.1246   -0.2114   27.5644 C   0  0  0  0  0  0  0  0  0  0  0  0
  -10.6060    1.2481   27.5222 C   0  0  0  0  0  0  0  0  0  0  0  0
   -6.5443    0.1001   27.5875 C   0  0  0  0  0  0  0  0  0  0  0  0
   -5.6881    0.5348   26.7672 C   0  0  0  0  0  0  0  0  0  0  0  0
   -4.3399    0.1272   26.7853 C   0  0  2  0  0  0  0  0  0  0  0  0
   -3.3464    0.6741   26.1119 C   0  0  0  0  0  0  0  0  0  0  0  0
   -4.0375   -1.2284   27.3192 C   0  0  0  0  0  0  0  0  0  0  0  0
   -4.9856   -1.7464   28.2335 C   0  0  0  0  0  0  0  0  0  0  0  0
  2  7  1  0
  7  8  1  0
  7  9  1  0
  7 10  1  0
 11 15  1  0
 15 16  2  3
 16 17  1  0
 17 18  1  6
 17 19  1  0
 19 20  2  0
  1  2  2  0
  2  3  1  0
  3  6  2  0
  5  4  2  0
  4  1  1  0
  5  6  1  0
  6 14  1  0
 14 13  2  0
 13 12  1  0
 12 11  2  0
 11  5  1  0
M  END
$$$$
