No_1656-complexes_sdf/6BKW-FPZ/2024-09-17-14-21-01/
     RDKit          3D

 18 19  0  0  0  0  0  0  0  0999 V2000
   -7.7129    4.2099   27.0854 C   0  0  0  0  0  0  0  0  0  0  0  0
   -7.7814    5.1722   27.8972 C   0  0  0  0  0  0  0  0  0  0  0  0
   -8.8776    3.8408   26.3416 C   0  0  0  0  0  0  0  0  0  0  0  0
   -9.9844    4.6492   26.4743 C   0  0  0  0  0  0  0  0  0  0  0  0
   -8.8033    6.1375   27.8728 C   0  0  0  0  0  0  0  0  0  0  0  0
   -9.9554    5.8280   27.1737 C   0  0  0  0  0  0  0  0  0  0  0  0
   -8.8752    2.6155   25.5663 C   0  0  0  0  0  0  0  0  0  0  0  0
   -9.7166    1.6539   26.0316 C   0  0  0  0  0  0  0  0  0  0  0  0
  -10.6418    1.5908   26.6416 C   0  0  0  0  0  0  0  0  0  0  0  0
  -11.3449    0.3502   27.1585 C   0  0  0  0  0  0  0  0  0  0  0  0
  -10.7615   -0.8010   26.7464 C   0  0  0  0  0  0  0  0  0  0  0  0
   -9.1867    0.2101   25.7064 C   0  0  0  0  0  0  0  0  0  0  0  0
   -9.7561   -0.8818   26.0651 C   0  0  0  0  0  0  0  0  0  0  0  0
  -11.4311   -1.9905   27.1811 F   0  0  0  0  0  0  0  0  0  0  0  0
   -6.6585    5.6364   28.6143 O   0  0  0  0  0  0  0  0  0  0  0  0
  -12.5431    0.4506   28.0899 C   0  0  0  0  0  0  0  0  0  0  0  0
  -13.5160    0.8132   27.5271 O   0  0  0  0  0  0  0  0  0  0  0  0
  -12.3782    0.1884   29.3475 O   0  0  0  0  0  0  0  0  0  0  0  0
  3  7  1  0
  7  8  1  0
 11 14  1  0
  2 15  1  0
 10 16  1  0
 16 17  2  0
 16 18  1  0
  1  2  2  0
  2  5  1  0
  5  6  2  0
  6  4  1  0
  4  3  2  0
  3  1  1  0
  8  9  2  0
  9 10  1  0
 10 11  2  0
 11 13  1  0
 13 12  2  0
 12  8  1  0
M  END
$$$$
