No_137-complexes_sdf/6BKW-FPZ/2024-09-17-14-21-01/
     RDKit          3D

 19 20  0  0  0  0  0  0  0  0999 V2000
   -7.9040    3.9820   27.1177 C   0  0  0  0  0  0  0  0  0  0  0  0
   -8.2057    2.8231   26.8733 C   0  0  0  0  0  0  0  0  0  0  0  0
   -8.7695    5.0740   26.7916 C   0  0  0  0  0  0  0  0  0  0  0  0
   -9.9618    4.7598   26.1630 C   0  0  0  0  0  0  0  0  0  0  0  0
   -9.4200    2.4524   26.2850 C   0  0  0  0  0  0  0  0  0  0  0  0
  -10.2590    3.4815   25.9250 C   0  0  0  0  0  0  0  0  0  0  0  0
   -8.4174    6.3742   27.0792 O   0  0  0  0  0  0  0  0  0  0  0  0
   -7.1079    1.4978   27.3677 Cl  0  0  0  0  0  0  0  0  0  0  0  0
   -8.3694    7.3198   26.1957 C   0  0  0  0  0  0  0  0  0  0  0  0
  -11.5288    3.1764   25.1952 C   0  0  0  0  0  0  0  0  0  0  0  0
  -11.4030    2.5661   24.0207 C   0  0  0  0  0  0  0  0  0  0  0  0
  -11.1882    3.0755   23.0684 C   0  0  0  0  0  0  0  0  0  0  0  0
  -10.9289    2.4261   21.7130 C   0  0  0  0  0  0  0  0  0  0  0  0
  -10.8001    1.0433   21.7388 C   0  0  0  0  0  0  0  0  0  0  0  0
  -10.9767    0.4039   22.9285 C   0  0  0  0  0  0  0  0  0  0  0  0
  -11.2021    1.0845   24.0662 C   0  0  0  0  0  0  0  0  0  0  0  0
  -12.7929    3.4982   25.7881 C   0  0  0  0  0  0  0  0  0  0  0  0
  -13.5334    2.6441   26.1295 O   0  0  0  0  0  0  0  0  0  0  0  0
  -12.9146    4.7266   26.2518 O   0  0  0  0  0  0  0  0  0  0  0  0
  3  7  1  0
  2  8  1  0
  7  9  1  0
  6 10  1  0
 10 11  1  0
 10 17  1  0
 17 18  2  0
 17 19  1  0
 11 12  2  0
 12 13  1  0
 13 14  2  0
 14 15  1  0
 15 16  2  0
 16 11  1  0
  1  2  2  0
  2  5  1  0
  5  6  2  0
  6  4  1  0
  4  3  2  0
  3  1  1  0
M  END
$$$$
