No_1262-complexes_sdf/6BKW-FPZ/2024-09-17-14-21-01/
     RDKit          3D

 20 22  0  0  0  0  0  0  0  0999 V2000
   -7.9040    3.9820   27.1177 C   0  0  0  0  0  0  0  0  0  0  0  0
   -7.8663    4.8694   27.9238 C   0  0  0  0  0  0  0  0  0  0  0  0
   -9.0491    3.8523   26.2542 C   0  0  0  0  0  0  0  0  0  0  0  0
   -8.7661    5.9491   27.9690 C   0  0  0  0  0  0  0  0  0  0  0  0
   -9.9295    4.8502   26.2323 C   0  0  0  0  0  0  0  0  0  0  0  0
   -9.8077    5.9288   27.0933 C   0  0  0  0  0  0  0  0  0  0  0  0
   -6.9606    2.7994   27.1981 C   0  0  0  0  0  0  0  0  0  0  0  0
   -7.2467    1.6107   27.7145 C   0  0  0  0  0  0  0  0  0  0  0  0
   -6.2994    0.5891   27.8126 C   0  0  0  0  0  0  0  0  0  0  0  0
   -5.2812    0.7089   28.0039 C   0  0  0  0  0  0  0  0  0  0  0  0
   -4.6832    2.1614   27.8331 C   0  0  0  0  0  0  0  0  0  0  0  0
   -5.5679    3.1159   27.5956 C   0  0  0  0  0  0  0  0  0  0  0  0
   -4.1587   -0.2676   28.2830 C   0  0  0  0  0  0  0  0  0  0  0  0
   -4.4484   -1.3590   28.6898 C   0  0  0  0  0  0  0  0  0  0  0  0
   -5.8680   -1.6531   28.9541 C   0  0  0  0  0  0  0  0  0  0  0  0
   -6.8396   -0.7494   28.4444 C   0  0  0  0  0  0  0  0  0  0  0  0
   -9.1123    2.7302   25.2878 C   0  0  0  0  0  0  0  0  0  0  0  0
  -10.3536    2.0719   25.3400 C   0  0  0  0  0  0  0  0  0  0  0  0
  -11.0850    1.8751   26.0679 C   0  0  0  0  0  0  0  0  0  0  0  0
  -12.3145    1.0332   25.9425 C   0  0  0  0  0  0  0  0  0  0  0  0
  1  7  1  0
  3 17  1  0
 17 18  1  0
 18 19  2  3
 19 20  1  0
 10 13  2  0
 13 14  1  0
 14 15  2  0
 15 16  1  0
 16  9  2  0
  1  2  2  0
  2  4  1  0
  4  6  2  0
  6  5  1  0
  5  3  2  0
  3  1  1  0
  7  8  2  0
  8  9  1  0
  9 10  1  0
 10 11  1  0
 11 12  2  0
 12  7  1  0
M  END
$$$$
