No_1963-complexes_sdf/6BKW-FPZ/2024-09-17-14-21-01/
     RDKit          3D

 19 19  0  0  0  0  0  0  0  0999 V2000
   -7.2496    3.8871   27.4508 C   0  0  0  0  0  0  0  0  0  0  0  0
   -8.5096    4.0291   27.2770 C   0  0  0  0  0  0  0  0  0  0  0  0
   -9.2677    5.1714   27.5773 C   0  0  0  0  0  0  0  0  0  0  0  0
   -6.5711    2.6400   27.2842 C   0  0  0  0  0  0  0  0  0  0  0  0
   -7.3283    1.5214   27.0582 C   0  0  0  0  0  0  0  0  0  0  0  0
   -8.6504    1.6822   26.7652 C   0  0  0  0  0  0  0  0  0  0  0  0
   -9.3200    2.8587   26.9882 C   0  0  0  0  0  0  0  0  0  0  0  0
   -9.2394    6.1592   26.7992 C   0  0  0  0  0  0  0  0  0  0  0  0
   -6.6144    0.2654   26.8734 C   0  0  0  0  0  0  0  0  0  0  0  0
   -6.8939   -0.6084   26.1992 N   0  0  0  0  0  0  0  0  0  0  0  0
   -6.1001   -1.5281   25.6930 C   0  0  0  0  0  0  0  0  0  0  0  0
   -5.5758    0.1480   27.7593 O   0  0  0  0  0  0  0  0  0  0  0  0
   -8.8301    6.1346   25.4555 C   0  0  0  0  0  0  0  0  0  0  0  0
  -10.0673    5.8155   24.8343 C   0  0  0  0  0  0  0  0  0  0  0  0
  -10.2082    4.3622   24.4184 C   0  0  0  0  0  0  0  0  0  0  0  0
  -10.9960    4.1349   23.5861 C   0  0  0  0  0  0  0  0  0  0  0  0
  -11.5080    4.9170   22.6660 C   0  0  0  0  0  0  0  0  0  0  0  0
  -12.5158    4.5017   21.8076 C   0  0  0  0  0  0  0  0  0  0  0  0
  -12.8520    3.1799   21.6945 C   0  0  0  0  0  0  0  0  0  0  0  0
  3  8  1  0
  5  9  1  0
  9 10  1  0
 10 11  1  0
  9 12  2  0
  8 13  1  0
 13 14  1  0
 14 15  1  0
 15 16  2  3
 16 17  1  0
 17 18  2  3
 18 19  1  0
  3  2  1  0
  1  2  2  0
  2  7  1  0
  7  6  2  0
  6  5  1  0
  5  4  2  0
  4  1  1  0
M  END
$$$$
