No_136-complexes_sdf/6BKW-FPZ/2024-09-17-14-21-01/
     RDKit          3D

 23 24  0  0  0  0  0  0  0  0999 V2000
   -7.2496    3.8871   27.4508 C   0  0  0  0  0  0  0  0  0  0  0  0
   -8.5096    4.0291   27.2770 C   0  0  0  0  0  0  0  0  0  0  0  0
   -9.3502    2.8685   26.8763 C   0  0  0  0  0  0  0  0  0  0  0  0
   -6.6288    2.5513   27.4938 C   0  0  0  0  0  0  0  0  0  0  0  0
   -7.4365    1.4714   27.2032 C   0  0  0  0  0  0  0  0  0  0  0  0
   -8.7772    1.6579   26.9338 C   0  0  0  0  0  0  0  0  0  0  0  0
   -9.1119    5.3743   27.2229 C   0  0  0  0  0  0  0  0  0  0  0  0
   -8.5784    6.4018   26.9993 C   0  0  0  0  0  0  0  0  0  0  0  0
   -9.1847    7.7659   27.0172 C   0  0  0  0  0  0  0  0  0  0  0  0
   -6.8121    0.1606   27.2484 C   0  0  0  0  0  0  0  0  0  0  0  0
   -5.5988   -0.0265   27.8061 C   0  0  0  0  0  0  0  0  0  0  0  0
   -5.0375   -1.3027   27.9234 C   0  0  0  0  0  0  0  0  0  0  0  0
   -5.7277   -2.3389   27.3428 C   0  0  0  0  0  0  0  0  0  0  0  0
   -7.5365   -0.9297   26.7656 C   0  0  0  0  0  0  0  0  0  0  0  0
   -6.9516   -2.1849   26.8005 C   0  0  0  0  0  0  0  0  0  0  0  0
  -10.5567    5.3403   27.5366 C   0  0  0  0  0  0  0  0  0  0  0  0
   -3.8337   -1.4634   28.4769 F   0  0  0  0  0  0  0  0  0  0  0  0
   -7.6712   -3.3221   26.2091 C   0  0  0  0  0  0  0  0  0  0  0  0
   -8.6787   -3.0931   25.5278 C   0  0  0  0  0  0  0  0  0  0  0  0
   -9.4238   -4.1156   24.9750 C   0  0  0  0  0  0  0  0  0  0  0  0
  -10.6302   -3.8551   24.2075 C   0  0  0  0  0  0  0  0  0  0  0  0
  -11.0001   -2.5257   24.0254 C   0  0  0  0  0  0  0  0  0  0  0  0
  -10.2724   -1.4926   24.5081 C   0  0  0  0  0  0  0  0  0  0  0  0
  2  7  1  0
  7  8  2  3
  8  9  1  0
  5 10  1  0
  7 16  1  0
 12 17  1  0
 15 18  1  0
 18 19  2  3
 19 20  1  0
 20 21  2  3
 21 22  1  0
 22 23  2  0
  1  2  2  0
  2  3  1  0
  3  6  2  0
  6  5  1  0
  5  4  2  0
  4  1  1  0
 10 11  2  0
 11 12  1  0
 12 13  2  0
 13 15  1  0
 15 14  2  0
 14 10  1  0
M  END
$$$$
