No_119-complexes_sdf/6BKW-FPZ/2024-09-17-14-21-01/
     RDKit          3D

 32 34  0  0  0  0  0  0  0  0999 V2000
   -7.2496    3.8871   27.4508 C   0  0  0  0  0  0  0  0  0  0  0  0
   -8.5096    4.0291   27.2770 C   0  0  0  0  0  0  0  0  0  0  0  0
   -9.3451    2.8786   26.9046 C   0  0  0  0  0  0  0  0  0  0  0  0
   -6.6065    2.5680   27.5073 C   0  0  0  0  0  0  0  0  0  0  0  0
   -7.4233    1.4858   27.2402 C   0  0  0  0  0  0  0  0  0  0  0  0
   -8.7362    1.6525   26.9989 C   0  0  0  0  0  0  0  0  0  0  0  0
   -9.0996    5.3741   27.2135 C   0  0  0  0  0  0  0  0  0  0  0  0
  -10.3332    5.4271   27.5994 F   0  0  0  0  0  0  0  0  0  0  0  0
   -9.0058    5.9425   25.9672 F   0  0  0  0  0  0  0  0  0  0  0  0
   -8.3521    6.3007   27.9552 F   0  0  0  0  0  0  0  0  0  0  0  0
   -6.7684    0.2038   27.2488 C   0  0  0  0  0  0  0  0  0  0  0  0
   -5.5097    0.0490   27.8168 C   0  0  0  0  0  0  0  0  0  0  0  0
   -4.8567   -1.2037   27.8820 C   0  0  0  0  0  0  0  0  0  0  0  0
   -5.4664   -2.2318   27.1911 C   0  0  0  0  0  0  0  0  0  0  0  0
   -7.1793   -0.9716   26.7064 C   0  0  0  0  0  0  0  0  0  0  0  0
   -6.6337   -2.1228   26.6525 C   0  0  0  0  0  0  0  0  0  0  0  0
   -3.5226   -1.2597   28.5867 C   0  0  0  0  0  0  0  0  0  0  0  0
   -3.5478   -1.7693   29.9467 C   0  0  0  0  0  0  0  0  0  0  0  0
   -2.4963   -2.0077   27.7682 C   0  0  0  0  0  0  0  0  0  0  0  0
   -2.8932    0.2451   28.7002 C   0  0  0  0  0  0  0  0  0  0  0  0
   -4.5233   -1.4065   30.7589 C   0  0  0  0  0  0  0  0  0  0  0  0
   -4.7630   -1.9356   31.9687 C   0  0  0  0  0  0  0  0  0  0  0  0
   -3.8777   -2.7192   32.4911 C   0  0  0  0  0  0  0  0  0  0  0  0
   -2.7395   -3.0834   31.7895 C   0  0  0  0  0  0  0  0  0  0  0  0
   -2.5020   -2.5595   30.4897 C   0  0  0  0  0  0  0  0  0  0  0  0
   -7.2606   -3.2558   26.0751 C   0  0  0  0  0  0  0  0  0  0  0  0
   -8.2554   -3.1142   25.3967 C   0  0  0  0  0  0  0  0  0  0  0  0
   -8.9511   -4.1071   24.7925 C   0  0  0  0  0  0  0  0  0  0  0  0
  -10.1432   -3.8751   23.9797 C   0  0  0  0  0  0  0  0  0  0  0  0
  -10.4182   -2.8290   23.7804 C   0  0  0  0  0  0  0  0  0  0  0  0
   -9.8522   -1.5946   24.2078 C   0  0  0  0  0  0  0  0  0  0  0  0
  -10.2269   -0.2822   23.9000 C   0  0  0  0  0  0  0  0  0  0  0  0
  2  7  1  0
  7  8  1  0
  7  9  1  0
  7 10  1  0
  5 11  1  0
 13 17  1  0
 17 18  1  0
 17 19  1  0
 17 20  1  0
 16 26  1  0
 26 27  2  3
 27 28  1  0
 28 29  2  3
 29 30  1  0
 30 31  2  3
 31 32  1  0
  1  2  2  0
  2  3  1  0
  3  6  2  0
  6  5  1  0
  5  4  2  0
  4  1  1  0
 18 21  2  0
 21 22  1  0
 22 23  2  0
 23 24  1  0
 24 25  2  0
 25 18  1  0
 11 12  2  0
 12 13  1  0
 13 14  2  0
 14 16  1  0
 16 15  2  0
 15 11  1  0
M  END
$$$$
