No_1187-complexes_sdf/6BKW-FPZ/2024-09-17-14-21-01/
     RDKit          3D

 14 16  0  0  0  0  0  0  0  0999 V2000
   -7.7129    4.2099   27.0854 C   0  0  0  0  0  0  0  0  0  0  0  0
   -7.7814    5.1722   27.8972 C   0  0  0  0  0  0  0  0  0  0  0  0
   -8.7889    3.2468   27.2220 C   0  0  0  0  0  0  0  0  0  0  0  0
   -9.8367    3.4196   26.6050 C   0  0  0  0  0  0  0  0  0  0  0  0
   -9.1389    5.9161   27.6914 C   0  0  0  0  0  0  0  0  0  0  0  0
  -10.2335    4.9962   27.3010 C   0  0  0  0  0  0  0  0  0  0  0  0
   -8.2047    1.7373   26.8951 C   0  0  0  0  0  0  0  0  0  0  0  0
   -9.1597    0.7859   26.8816 C   0  0  0  0  0  0  0  0  0  0  0  0
   -8.8035   -0.5321   27.1120 C   0  0  0  0  0  0  0  0  0  0  0  0
   -9.8030   -1.4759   27.3628 C   0  0  0  0  0  0  0  0  0  0  0  0
  -11.1473   -1.0572   27.1865 C   0  0  0  0  0  0  0  0  0  0  0  0
  -11.3326    0.0700   26.9622 C   0  0  0  0  0  0  0  0  0  0  0  0
  -10.4595    1.1337   26.8738 C   0  0  0  0  0  0  0  0  0  0  0  0
  -10.9122    2.5536   26.4212 C   0  0  0  0  0  0  0  0  0  0  0  0
  1  2  1  0
  1  3  1  0
  2  5  1  0
  4  6  1  0
  5  6  1  0
  3  4  2  0
  4 14  1  0
 14 13  2  0
  8  7  2  0
  7  3  1  0
  8  9  1  0
  9 10  2  0
 10 11  1  0
 11 12  2  0
 12 13  1  0
 13  8  1  0
M  END
$$$$
