No_1475-complexes_sdf/6BKW-FPZ/2024-09-17-14-21-01/
     RDKit          3D

 18 20  0  0  0  0  0  0  0  0999 V2000
   -7.7129    4.2099   27.0854 C   0  0  0  0  0  0  0  0  0  0  0  0
   -7.7814    5.1722   27.8972 C   0  0  0  0  0  0  0  0  0  0  0  0
   -8.7889    3.2468   27.2220 C   0  0  0  0  0  0  0  0  0  0  0  0
   -8.7402    2.0341   26.3990 C   0  0  0  0  0  0  0  0  0  0  0  0
   -8.9680    5.6562   28.5183 C   0  0  0  0  0  0  0  0  0  0  0  0
   -9.9491    3.5176   27.8853 C   0  0  0  0  0  0  0  0  0  0  0  0
  -10.0212    4.7882   28.5980 C   0  0  0  0  0  0  0  0  0  0  0  0
   -8.0603    0.9091   26.8894 C   0  0  0  0  0  0  0  0  0  0  0  0
   -7.9850   -0.2760   26.2313 C   0  0  0  0  0  0  0  0  0  0  0  0
   -9.4080    1.9184   25.2346 C   0  0  0  0  0  0  0  0  0  0  0  0
   -9.3713    0.7822   24.4425 C   0  0  0  0  0  0  0  0  0  0  0  0
   -8.6480   -0.3007   24.9653 C   0  0  0  0  0  0  0  0  0  0  0  0
  -11.0839    2.6377   27.9637 C   0  0  0  0  0  0  0  0  0  0  0  0
  -11.1145    1.4863   28.1211 C   0  0  0  0  0  0  0  0  0  0  0  0
  -12.2188    0.6084   28.3164 C   0  0  0  0  0  0  0  0  0  0  0  0
  -13.4216    1.2109   28.3138 C   0  0  0  0  0  0  0  0  0  0  0  0
  -12.4242    3.3189   28.0131 C   0  0  0  0  0  0  0  0  0  0  0  0
  -13.5473    2.5941   28.1795 C   0  0  0  0  0  0  0  0  0  0  0  0
  3  4  1  0
  6 13  1  0
  4  8  2  0
  8  9  1  0
  9 12  2  0
 12 11  1  0
 11 10  2  0
 10  4  1  0
 13 14  2  0
 14 15  1  0
 15 16  2  0
 16 18  1  0
 18 17  2  0
 17 13  1  0
  1  2  2  0
  2  5  1  0
  5  7  2  0
  7  6  1  0
  6  3  2  0
  3  1  1  0
M  END
$$$$
