No_1099-complexes_sdf/6BKW-FPZ/2024-09-17-14-21-01/
     RDKit          3D

 29 32  0  0  0  0  0  0  0  0999 V2000
   -7.2496    3.8871   27.4508 C   0  0  0  0  0  0  0  0  0  0  0  0
   -7.9379    4.9063   27.8518 C   0  0  0  0  0  0  0  0  0  0  0  0
   -9.3460    4.8223   27.8695 C   0  0  0  0  0  0  0  0  0  0  0  0
   -7.8628    2.6163   27.1065 C   0  0  0  0  0  0  0  0  0  0  0  0
   -9.2787    2.5744   27.1970 C   0  0  0  0  0  0  0  0  0  0  0  0
  -10.0108    3.6770   27.6340 C   0  0  0  0  0  0  0  0  0  0  0  0
  -11.4834    3.5674   27.7432 C   0  0  0  0  0  0  0  0  0  0  0  0
  -12.3295    3.8838   27.2730 C   0  0  0  0  0  0  0  0  0  0  0  0
  -13.7775    3.8550   27.5201 C   0  0  0  0  0  0  0  0  0  0  0  0
  -11.8811    2.7541   28.9768 C   0  0  0  0  0  0  0  0  0  0  0  0
  -13.1198    2.5435   29.3867 C   0  0  0  0  0  0  0  0  0  0  0  0
  -14.1235    3.1476   28.6319 C   0  0  0  0  0  0  0  0  0  0  0  0
   -7.1120    1.4689   26.7664 C   0  0  0  0  0  0  0  0  0  0  0  0
   -6.0544    1.0784   27.5316 N   0  0  0  0  0  0  0  0  0  0  0  0
   -5.3547   -0.0380   27.4101 C   0  0  0  0  0  0  0  0  0  0  0  0
   -4.1402   -0.0335   28.0712 C   0  0  0  0  0  0  0  0  0  0  0  0
   -4.0775    1.2432   28.8357 C   0  0  0  0  0  0  0  0  0  0  0  0
   -5.1927    1.9511   28.2984 C   0  0  0  0  0  0  0  0  0  0  0  0
   -7.6981    0.6415   26.0293 O   0  0  0  0  0  0  0  0  0  0  0  0
   -7.1364    6.4007   28.2149 Cl  0  0  0  0  0  0  0  0  0  0  0  0
   -3.2598   -1.1136   28.3171 C   0  0  2  0  0  0  0  0  0  0  0  0
   -3.2193   -1.7696   29.4650 C   0  0  0  0  0  0  0  0  0  0  0  0
   -4.1144   -1.5499   30.4508 C   0  0  0  0  0  0  0  0  0  0  0  0
   -4.0085   -2.2233   31.7144 C   0  0  0  0  0  0  0  0  0  0  0  0
   -4.8907   -1.9578   32.8382 C   0  0  0  0  0  0  0  0  0  0  0  0
   -5.9520   -1.0434   32.5694 C   0  0  0  0  0  0  0  0  0  0  0  0
   -5.9408   -0.3753   31.3909 C   0  0  0  0  0  0  0  0  0  0  0  0
   -5.1050   -0.5892   30.4382 C   0  0  0  0  0  0  0  0  0  0  0  0
   -2.3338   -1.3142   27.1902 C   0  0  0  0  0  0  0  0  0  0  0  0
  6  7  1  0
  4 13  1  0
 13 14  1  0
 14 15  1  0
 15 16  2  0
 16 17  1  0
 14 18  1  0
 17 18  2  0
 13 19  2  0
  2 20  1  0
 16 21  1  0
 21 22  1  0
 22 23  1  0
 21 29  1  1
 23 24  2  0
 24 25  1  0
 25 26  2  0
 26 27  1  0
 27 28  2  0
 28 23  1  0
  1  2  2  0
  2  3  1  0
  3  6  2  0
  6  5  1  0
  5  4  2  0
  4  1  1  0
  7  8  2  0
  8  9  1  0
  9 12  2  0
 12 11  1  0
 11 10  2  0
 10  7  1  0
M  END
$$$$
