No_1670-complexes_sdf/6BKW-FPZ/2024-09-17-14-21-01/
     RDKit          3D

 14 15  0  0  0  0  0  0  0  0999 V2000
   -7.7129    4.2099   27.0854 C   0  0  0  0  0  0  0  0  0  0  0  0
   -8.9133    4.4736   27.0998 C   0  0  0  0  0  0  0  0  0  0  0  0
   -9.4643    5.5426   27.7628 C   0  0  0  0  0  0  0  0  0  0  0  0
   -7.2009    2.9448   26.6134 C   0  0  0  0  0  0  0  0  0  0  0  0
   -8.0533    1.9370   26.8587 C   0  0  0  0  0  0  0  0  0  0  0  0
   -7.5752    0.6215   26.4816 C   0  0  0  0  0  0  0  0  0  0  0  0
   -9.8179    3.6716   26.2724 C   0  0  0  0  0  0  0  0  0  0  0  0
   -9.4006    2.2930   26.1949 C   0  0  0  0  0  0  0  0  0  0  0  0
   -8.3538   -0.2979   26.1100 C   0  0  0  0  0  0  0  0  0  0  0  0
   -9.7718   -0.0386   25.9850 C   0  0  0  0  0  0  0  0  0  0  0  0
  -10.3212    1.2807   26.0521 C   0  0  0  0  0  0  0  0  0  0  0  0
  -11.6687    1.5399   25.8327 C   0  0  0  0  0  0  0  0  0  0  0  0
  -12.0996    2.3764   25.2553 C   0  0  0  0  0  0  0  0  0  0  0  0
  -13.5071    2.5482   25.0545 C   0  0  0  0  0  0  0  0  0  0  0  0
  1  2  1  0
  2  3  2  0
  1  4  1  0
  4  5  1  0
  2  7  1  0
  7  8  1  0
 11 12  1  0
 12 13  2  3
 13 14  1  0
  5  6  2  0
  6  9  1  0
  9 10  2  0
 10 11  1  0
 11  8  2  0
  8  5  1  0
M  END
$$$$
