No_122-complexes_sdf/6BKW-FPZ/2024-09-17-14-21-01/
     RDKit          3D

 14 15  0  0  0  0  0  0  0  0999 V2000
   -7.9040    3.9820   27.1177 C   0  0  0  0  0  0  0  0  0  0  0  0
   -7.8663    4.8694   27.9238 C   0  0  0  0  0  0  0  0  0  0  0  0
   -9.0806    3.1428   27.1220 C   0  0  2  0  0  0  0  0  0  0  0  0
   -8.9544    1.8782   26.5468 C   0  0  0  0  0  0  0  0  0  0  0  0
   -8.5076    6.0545   27.5968 C   0  0  0  0  0  0  0  0  0  0  0  0
   -8.0382    1.0494   27.0538 C   0  0  0  0  0  0  0  0  0  0  0  0
   -9.2643    6.1475   26.7223 C   0  0  0  0  0  0  0  0  0  0  0  0
  -10.2106    5.0930   26.2449 C   0  0  0  0  0  0  0  0  0  0  0  0
   -9.7788    3.8179   26.1183 C   0  0  2  0  0  0  0  0  0  0  0  0
  -10.1565    3.0016   25.0596 N   0  0  0  0  0  0  0  0  0  0  0  0
   -9.5799    1.7990   25.3648 C   0  0  0  0  0  0  0  0  0  0  0  0
   -7.4607    0.1750   27.0401 C   0  0  0  0  0  0  0  0  0  0  0  0
   -7.5016   -0.9732   26.2016 C   0  0  0  0  0  0  0  0  0  0  0  0
   -6.6417   -2.0999   26.2648 C   0  0  0  0  0  0  0  0  0  0  0  0
  1  2  1  0
  3  1  1  6
  3  4  1  0
  2  5  2  0
  4  6  2  3
  5  7  1  0
  7  8  1  0
  3  9  1  0
  9  8  1  1
  9 10  1  0
  4 11  1  0
 10 11  2  0
  6 12  1  0
 12 13  2  3
 13 14  1  0
M  END
$$$$
