No_1186-complexes_sdf/6BKW-FPZ/2024-09-17-14-21-01/
     RDKit          3D

 16 18  0  0  0  0  0  0  0  0999 V2000
   -7.9040    3.9820   27.1177 C   0  0  0  0  0  0  0  0  0  0  0  0
   -7.8663    4.8694   27.9238 C   0  0  0  0  0  0  0  0  0  0  0  0
   -9.0501    3.8017   26.2617 C   0  0  2  0  0  0  0  0  0  0  0  0
   -9.1826    2.7026   25.3575 C   0  0  0  0  0  0  0  0  0  0  0  0
   -6.7437    5.1641   28.6994 C   0  0  0  0  0  0  0  0  0  0  0  0
   -8.4416    1.5988   25.5861 C   0  0  0  0  0  0  0  0  0  0  0  0
   -7.4220    1.6276   26.6450 C   0  0  0  0  0  0  0  0  0  0  0  0
   -7.2195    2.7424   27.4477 C   0  0  0  0  0  0  0  0  0  0  0  0
   -8.8244    6.0365   27.8562 C   0  0  0  0  0  0  0  0  0  0  0  0
  -10.1877    2.7320   24.3286 C   0  0  1  0  0  0  0  0  0  0  0  0
  -10.7653    3.8953   23.9850 C   0  0  0  0  0  0  0  0  0  0  0  0
  -10.3557    1.6327   23.5015 C   0  0  0  0  0  0  0  0  0  0  0  0
  -11.0125    4.8551   24.7001 C   0  0  0  0  0  0  0  0  0  0  0  0
  -10.0526    5.1746   25.8535 C   0  0  1  0  0  0  0  0  0  0  0  0
   -9.8348    6.1495   26.8103 C   0  0  0  0  0  0  0  0  0  0  0  0
  -10.2354    1.7309   22.2455 C   0  0  0  0  0  0  0  0  0  0  0  0
  1  2  2  0
  3  1  1  6
  3  4  1  0
  2  5  1  0
  4  6  2  0
  6  7  1  0
  1  8  1  0
  7  8  1  0
  2  9  1  0
  4 10  1  0
 10 11  1  0
 10 12  1  6
 11 13  2  0
  3 14  1  0
 13 14  1  0
  9 15  1  0
 14 15  1  1
 12 16  1  0
M  END
$$$$
