No_1612-complexes_sdf/6BKW-FPZ/2024-09-17-14-21-01/
     RDKit          3D

 31 34  0  0  0  0  0  0  0  0999 V2000
   -7.7129    4.2099   27.0854 C   0  0  0  0  0  0  0  0  0  0  0  0
   -8.2112    3.0637   26.9225 C   0  0  0  0  0  0  0  0  0  0  0  0
   -7.5138    1.9223   27.4249 C   0  0  0  0  0  0  0  0  0  0  0  0
   -8.5309    5.4147   26.8151 C   0  0  0  0  0  0  0  0  0  0  0  0
   -9.6817    5.2393   26.1100 C   0  0  0  0  0  0  0  0  0  0  0  0
  -10.1032    3.9957   25.8534 C   0  0  0  0  0  0  0  0  0  0  0  0
   -9.4035    2.8430   26.2573 C   0  0  0  0  0  0  0  0  0  0  0  0
   -8.0069    0.6506   27.2927 N   0  0  0  0  0  0  0  0  0  0  0  0
   -7.2541   -0.3792   27.6887 C   0  0  0  0  0  0  0  0  0  0  0  0
   -6.0371   -0.1331   28.1582 N   0  0  0  0  0  0  0  0  0  0  0  0
   -6.1360    1.8152   27.8986 C   0  0  0  0  0  0  0  0  0  0  0  0
   -5.3845    0.9742   28.1971 C   0  0  0  0  0  0  0  0  0  0  0  0
   -7.9751    6.7543   27.0808 C   0  0  0  0  0  0  0  0  0  0  0  0
   -7.1426    6.8053   28.0365 F   0  0  0  0  0  0  0  0  0  0  0  0
   -7.4575    7.4846   26.0618 F   0  0  0  0  0  0  0  0  0  0  0  0
   -9.0686    7.5140   27.5484 F   0  0  0  0  0  0  0  0  0  0  0  0
   -4.1476    1.0562   28.6756 N   0  0  0  0  0  0  0  0  0  0  0  0
  -11.2329    3.8852   25.1504 F   0  0  0  0  0  0  0  0  0  0  0  0
   -7.9968   -1.4956   27.6154 N   0  0  0  0  0  0  0  0  0  0  0  0
   -9.1392   -1.7185   27.3890 C   0  0  0  0  0  0  0  0  0  0  0  0
   -9.7711   -1.6975   26.3690 C   0  0  0  0  0  0  0  0  0  0  0  0
  -11.2276   -1.8074   26.1470 C   0  0  0  0  0  0  0  0  0  0  0  0
  -11.9680   -2.0032   27.3107 C   0  0  0  0  0  0  0  0  0  0  0  0
  -11.4142   -2.0390   28.5546 C   0  0  0  0  0  0  0  0  0  0  0  0
  -10.0242   -1.8548   28.7075 C   0  0  0  0  0  0  0  0  0  0  0  0
   -7.1482   -2.7877   27.6827 C   0  0  0  0  0  0  0  0  0  0  0  0
   -6.4817   -3.1136   26.5578 C   0  0  0  0  0  0  0  0  0  0  0  0
   -5.6967   -4.0394   26.6278 C   0  0  0  0  0  0  0  0  0  0  0  0
   -7.0826   -3.4695   28.8108 C   0  0  0  0  0  0  0  0  0  0  0  0
   -6.2732   -4.5506   28.9414 C   0  0  0  0  0  0  0  0  0  0  0  0
   -5.5265   -4.8768   27.7816 C   0  0  0  0  0  0  0  0  0  0  0  0
  2  3  1  0
  4 13  1  0
 13 14  1  0
 13 15  1  0
 13 16  1  0
 12 17  1  0
  6 18  1  0
  9 19  1  0
 19 20  1  0
 19 26  1  0
 26 27  2  0
 27 28  1  0
 28 31  2  0
 31 30  1  0
 30 29  2  0
 29 26  1  0
  3  8  2  0
  8  9  1  0
  9 10  2  0
 10 12  1  0
 12 11  2  0
 11  3  1  0
  1  2  2  0
  2  7  1  0
  7  6  2  0
  6  5  1  0
  5  4  2  0
  4  1  1  0
 20 21  2  0
 21 22  1  0
 22 23  2  0
 23 24  1  0
 24 25  2  0
 25 20  1  0
M  END
$$$$
