No_103-complexes_sdf/6BKW-FPZ/2024-09-17-14-21-01/
     RDKit          3D

 37 41  0  0  0  0  0  0  0  0999 V2000
   -7.9040    3.9820   27.1177 C   0  0  0  0  0  0  0  0  0  0  0  0
   -9.0711    4.3164   27.0630 C   0  0  0  0  0  0  0  0  0  0  0  0
   -9.8698    3.9665   25.9495 C   0  0  0  0  0  0  0  0  0  0  0  0
   -7.0332    4.5030   28.2025 C   0  0  0  0  0  0  0  0  0  0  0  0
   -9.4357    2.9501   25.1393 C   0  0  0  0  0  0  0  0  0  0  0  0
   -8.2567    2.3218   25.4797 C   0  0  0  0  0  0  0  0  0  0  0  0
   -7.5105    2.7966   26.5752 C   0  0  0  0  0  0  0  0  0  0  0  0
  -10.2472    2.5204   24.0264 C   0  0  0  0  0  0  0  0  0  0  0  0
  -10.5935    3.4337   22.9918 C   0  0  0  0  0  0  0  0  0  0  0  0
  -11.0560    3.0889   21.7619 C   0  0  0  0  0  0  0  0  0  0  0  0
  -10.8501    2.0436   21.4176 C   0  0  0  0  0  0  0  0  0  0  0  0
  -10.0080    1.2805   23.3608 C   0  0  0  0  0  0  0  0  0  0  0  0
  -10.3263    0.9677   22.1342 C   0  0  0  0  0  0  0  0  0  0  0  0
   -5.8883    3.9812   28.3707 F   0  0  0  0  0  0  0  0  0  0  0  0
   -7.3178    5.5956   28.7705 F   0  0  0  0  0  0  0  0  0  0  0  0
  -10.7387    4.7646   23.4591 F   0  0  0  0  0  0  0  0  0  0  0  0
  -10.2943   -0.2187   21.4317 N   0  0  0  0  0  0  0  0  0  0  0  0
   -9.2440   -0.9831   21.6801 C   0  0  0  0  0  0  0  0  0  0  0  0
   -9.0743   -2.2068   20.8307 C   0  0  0  0  0  0  0  0  0  0  0  0
  -11.2402   -0.7377   20.6598 C   0  0  0  0  0  0  0  0  0  0  0  0
  -11.1351   -1.7813   19.7970 C   0  0  0  0  0  0  0  0  0  0  0  0
   -9.9761   -2.5618   19.9634 C   0  0  0  0  0  0  0  0  0  0  0  0
   -9.7813   -3.7605   19.1528 C   0  0  0  0  0  0  0  0  0  0  0  0
   -9.4876   -4.9094   19.7711 C   0  0  0  0  0  0  0  0  0  0  0  0
   -9.9281   -3.6867   17.7425 C   0  0  0  0  0  0  0  0  0  0  0  0
   -9.3433   -6.0873   18.9898 C   0  0  0  0  0  0  0  0  0  0  0  0
   -9.8037   -4.8945   17.0132 C   0  0  0  0  0  0  0  0  0  0  0  0
   -9.5065   -6.0249   17.6323 C   0  0  0  0  0  0  0  0  0  0  0  0
   -9.4246   -7.2424   16.8163 C   0  0  0  0  0  0  0  0  0  0  0  0
   -8.9153   -8.2284   17.2031 O   0  0  0  0  0  0  0  0  0  0  0  0
   -9.7164   -7.0632   15.5337 N   0  0  0  0  0  0  0  0  0  0  0  0
   -9.7668   -7.9875   14.6464 C   0  0  0  0  0  0  0  0  0  0  0  0
   -9.6295   -8.9572   14.3763 C   0  0  0  0  0  0  0  0  0  0  0  0
   -9.8044   -9.6932   13.1651 C   0  0  0  0  0  0  0  0  0  0  0  0
  -10.2475   -8.9285   12.0996 C   0  0  0  0  0  0  0  0  0  0  0  0
  -10.4808   -7.6048   12.2476 C   0  0  0  0  0  0  0  0  0  0  0  0
  -10.2851   -6.9975   13.4434 C   0  0  0  0  0  0  0  0  0  0  0  0
  1  4  1  0
  5  8  1  0
  4 14  1  0
  4 15  1  0
  9 16  1  0
 13 17  1  0
 17 18  1  0
 17 20  1  0
 19 22  1  0
 21 22  1  0
 22 23  1  0
 28 29  1  0
 29 30  2  0
 29 31  1  0
 31 32  1  0
 18 19  1  0
 21 20  1  0
 32 33  2  0
 33 34  1  0
 34 35  2  0
 35 36  1  0
 36 37  2  0
 37 32  1  0
  1  2  2  0
  2  3  1  0
  3  5  2  0
  5  6  1  0
  6  7  2  0
  7  1  1  0
 23 24  2  0
 24 26  1  0
 26 28  2  0
 28 27  1  0
 27 25  2  0
 25 23  1  0
  8  9  2  0
  9 10  1  0
 10 11  2  0
 11 13  1  0
 13 12  2  0
 12  8  1  0
M  END
$$$$
