No_1749-complexes_sdf/6BKW-FPZ/2024-09-17-14-21-01/
     RDKit          3D

 28 30  0  0  0  0  0  0  0  0999 V2000
   -7.2496    3.8871   27.4508 C   0  0  0  0  0  0  0  0  0  0  0  0
   -8.5096    4.0291   27.2770 C   0  0  0  0  0  0  0  0  0  0  0  0
   -9.3451    2.8786   26.9046 C   0  0  0  0  0  0  0  0  0  0  0  0
   -6.6065    2.5680   27.5073 C   0  0  0  0  0  0  0  0  0  0  0  0
   -7.4233    1.4858   27.2402 C   0  0  0  0  0  0  0  0  0  0  0  0
   -8.7362    1.6525   26.9989 C   0  0  0  0  0  0  0  0  0  0  0  0
   -9.0996    5.3741   27.2135 C   0  0  0  0  0  0  0  0  0  0  0  0
  -10.2954    5.7809   27.5703 C   0  0  0  0  0  0  0  0  0  0  0  0
   -8.1778    6.4542   26.8121 C   0  0  0  0  0  0  0  0  0  0  0  0
   -8.5092    7.8061   26.8174 C   0  0  0  0  0  0  0  0  0  0  0  0
   -6.8045    0.1669   27.2888 C   0  0  0  0  0  0  0  0  0  0  0  0
   -7.4468   -0.9268   27.2892 C   0  0  0  0  0  0  0  0  0  0  0  0
   -5.3394    0.1178   27.3087 C   0  0  0  0  0  0  0  0  0  0  0  0
   -4.7285    0.3582   28.4904 C   0  0  0  0  0  0  0  0  0  0  0  0
   -3.3377    0.5275   28.6135 C   0  0  0  0  0  0  0  0  0  0  0  0
   -2.5818    0.2843   27.4419 C   0  0  0  0  0  0  0  0  0  0  0  0
   -3.2005    0.1476   26.2219 C   0  0  0  0  0  0  0  0  0  0  0  0
   -4.5756    0.0391   26.1570 C   0  0  0  0  0  0  0  0  0  0  0  0
   -6.9850   -2.1213   27.0690 C   0  0  0  0  0  0  0  0  0  0  0  0
   -5.7763   -2.3983   26.9734 C   0  0  0  0  0  0  0  0  0  0  0  0
   -5.3551   -3.8718   26.8306 C   0  0  0  0  0  0  0  0  0  0  0  0
  -11.1753    4.7285   27.9676 C   0  0  0  0  0  0  0  0  0  0  0  0
   -4.0093   -4.1769   26.7061 C   0  0  0  0  0  0  0  0  0  0  0  0
   -3.6060   -5.4540   26.6798 C   0  0  0  0  0  0  0  0  0  0  0  0
   -4.5609   -6.4731   26.6950 C   0  0  0  0  0  0  0  0  0  0  0  0
   -5.8618   -6.1387   26.7731 C   0  0  0  0  0  0  0  0  0  0  0  0
   -6.2838   -4.8483   26.8899 C   0  0  0  0  0  0  0  0  0  0  0  0
  -11.8326    3.9746   27.0554 C   0  0  0  0  0  0  0  0  0  0  0  0
  2  7  1  0
  7  8  2  3
  7  9  1  0
  9 10  2  0
  5 11  1  0
 11 12  1  0
 11 13  1  0
 12 19  1  0
 19 20  2  3
 20 21  1  0
  8 22  1  0
 22 28  2  0
 13 14  2  0
 14 15  1  0
 15 16  2  0
 16 17  1  0
 17 18  2  0
 18 13  1  0
  1  2  2  0
  2  3  1  0
  3  6  2  0
  6  5  1  0
  5  4  2  0
  4  1  1  0
 21 23  2  0
 23 24  1  0
 24 25  2  0
 25 26  1  0
 26 27  2  0
 27 21  1  0
M  END
$$$$
