No_1163-complexes_sdf/6BKW-FPZ/2024-09-17-14-21-01/
     RDKit          3D

 40 44  0  0  0  0  0  0  0  0999 V2000
   -7.2496    3.8871   27.4508 C   0  0  0  0  0  0  0  0  0  0  0  0
   -7.9379    4.9063   27.8518 C   0  0  0  0  0  0  0  0  0  0  0  0
   -9.3460    4.8223   27.8695 C   0  0  0  0  0  0  0  0  0  0  0  0
   -7.8628    2.6163   27.1065 C   0  0  0  0  0  0  0  0  0  0  0  0
   -9.2787    2.5744   27.1970 C   0  0  0  0  0  0  0  0  0  0  0  0
  -10.0108    3.6770   27.6340 C   0  0  0  0  0  0  0  0  0  0  0  0
  -11.4855    3.5731   27.7420 C   0  0  0  0  0  0  0  0  0  0  0  0
  -11.9299    2.8562   28.8221 C   0  0  0  0  0  0  0  0  0  0  0  0
  -13.2938    2.7194   29.1618 C   0  0  0  0  0  0  0  0  0  0  0  0
  -14.1926    3.3847   28.3454 C   0  0  0  0  0  0  0  0  0  0  0  0
  -13.7349    4.1610   27.2718 C   0  0  0  0  0  0  0  0  0  0  0  0
  -12.3654    4.3305   26.9983 C   0  0  0  0  0  0  0  0  0  0  0  0
   -7.1182    1.4574   26.7825 C   0  0  0  0  0  0  0  0  0  0  0  0
   -6.0747    0.9854   27.6806 C   0  0  0  0  0  0  0  0  0  0  0  0
   -5.4178   -0.1933   27.4743 C   0  0  0  0  0  0  0  0  0  0  0  0
   -5.8845   -1.0155   26.4836 C   0  0  0  0  0  0  0  0  0  0  0  0
   -7.5590    0.4640   25.9740 C   0  0  0  0  0  0  0  0  0  0  0  0
   -8.7497    0.8291   25.1787 C   0  0  0  0  0  0  0  0  0  0  0  0
   -6.9457   -0.6856   25.7240 C   0  0  0  0  0  0  0  0  0  0  0  0
   -9.9700    0.5739   25.5373 C   0  0  0  0  0  0  0  0  0  0  0  0
  -11.0766    0.4613   24.7275 C   0  0  0  0  0  0  0  0  0  0  0  0
  -12.3758    0.4895   25.3301 C   0  0  0  0  0  0  0  0  0  0  0  0
  -13.5276    0.3803   24.5774 C   0  0  0  0  0  0  0  0  0  0  0  0
  -13.4025    0.3137   23.2156 C   0  0  0  0  0  0  0  0  0  0  0  0
  -12.1628    0.3330   22.6262 C   0  0  0  0  0  0  0  0  0  0  0  0
  -11.0192    0.4258   23.3718 C   0  0  0  0  0  0  0  0  0  0  0  0
   -4.2176   -0.4955   28.3411 C   0  0  0  0  0  0  0  0  0  0  0  0
   -3.1017   -0.0031   28.0221 C   0  0  0  0  0  0  0  0  0  0  0  0
   -4.4466   -1.2232   29.5502 C   0  0  0  0  0  0  0  0  0  0  0  0
   -3.6060   -1.2775   30.4883 C   0  0  0  0  0  0  0  0  0  0  0  0
   -1.9472   -0.2127   28.9642 C   0  0  0  0  0  0  0  0  0  0  0  0
   -2.2063   -0.8302   30.1838 C   0  0  0  0  0  0  0  0  0  0  0  0
   -2.7711    0.6483   26.9096 O   0  0  0  0  0  0  0  0  0  0  0  0
   -3.7973   -1.9197   31.8147 C   0  0  0  0  0  0  0  0  0  0  0  0
   -3.7795   -1.5537   32.8081 C   0  0  0  0  0  0  0  0  0  0  0  0
   -4.0987   -2.1947   34.1493 C   0  0  0  0  0  0  0  0  0  0  0  0
   -3.9823   -1.5534   35.4096 C   0  0  0  0  0  0  0  0  0  0  0  0
   -4.6067   -2.0241   36.5259 C   0  0  0  0  0  0  0  0  0  0  0  0
   -5.2545   -3.2688   36.4355 C   0  0  0  0  0  0  0  0  0  0  0  0
   -5.3688   -3.8745   35.2517 C   0  0  0  0  0  0  0  0  0  0  0  0
  6  7  1  0
  4 13  1  0
 17 18  1  0
 18 20  2  3
 20 21  1  0
 15 27  1  0
 28 33  1  0
 30 34  1  0
 34 35  2  3
 35 36  1  0
 36 37  2  3
 37 38  1  0
 38 39  2  3
 39 40  1  0
  1  2  2  0
  2  3  1  0
  3  6  2  0
  6  5  1  0
  5  4  2  0
  4  1  1  0
 27 28  2  0
 28 31  1  0
 31 32  2  0
 32 30  1  0
 30 29  2  0
 29 27  1  0
  7  8  2  0
  8  9  1  0
  9 10  2  0
 10 11  1  0
 11 12  2  0
 12  7  1  0
 13 14  2  0
 14 15  1  0
 15 16  2  0
 16 19  1  0
 19 17  2  0
 17 13  1  0
 21 22  2  0
 22 23  1  0
 23 24  2  0
 24 25  1  0
 25 26  2  0
 26 21  1  0
M  END
$$$$
