No_1318-complexes_sdf/6BKW-FPZ/2024-09-17-14-21-01/
     RDKit          3D

 14 15  0  0  0  0  0  0  0  0999 V2000
   -7.9040    3.9820   27.1177 C   0  0  0  0  0  0  0  0  0  0  0  0
   -7.8663    4.8694   27.9238 C   0  0  0  0  0  0  0  0  0  0  0  0
   -9.0953    3.1697   27.0532 C   0  0  0  0  0  0  0  0  0  0  0  0
   -9.1405    2.0104   26.1761 C   0  0  0  0  0  0  0  0  0  0  0  0
   -6.7288    5.7941   27.9701 C   0  0  0  0  0  0  0  0  0  0  0  0
   -8.2649    0.9862   26.4894 C   0  0  0  0  0  0  0  0  0  0  0  0
   -8.1458   -0.0838   25.5540 C   0  0  0  0  0  0  0  0  0  0  0  0
   -8.8375    0.0185   24.3612 C   0  0  0  0  0  0  0  0  0  0  0  0
   -9.6483    1.0960   24.0484 C   0  0  0  0  0  0  0  0  0  0  0  0
   -9.7253    2.1233   24.9620 C   0  0  0  0  0  0  0  0  0  0  0  0
  -10.1640    3.4771   27.9290 C   0  0  0  0  0  0  0  0  0  0  0  0
  -10.4865    4.7587   28.3688 C   0  0  0  0  0  0  0  0  0  0  0  0
   -9.1688    5.7341   28.4058 C   0  0  0  0  0  0  0  0  0  0  0  0
  -10.6047    3.5291   24.4909 Cl  0  0  0  0  0  0  0  0  0  0  0  0
  3  4  1  0
  2  5  1  0
 10 14  1  0
  4  6  2  0
  6  7  1  0
  7  8  2  0
  8  9  1  0
  9 10  2  0
 10  4  1  0
  1  2  2  0
  2 13  1  0
 13 12  2  0
 12 11  1  0
 11  3  2  0
  3  1  1  0
M  END
$$$$
