No_1209-complexes_sdf/6BKW-FPZ/2024-09-17-14-21-01/
     RDKit          3D

 26 29  0  0  0  0  0  0  0  0999 V2000
   -7.7129    4.2099   27.0854 C   0  0  0  0  0  0  0  0  0  0  0  0
   -8.2112    3.0637   26.9225 C   0  0  0  0  0  0  0  0  0  0  0  0
   -8.5108    5.3904   26.9436 C   0  0  0  0  0  0  0  0  0  0  0  0
   -7.9752    6.6981   27.2112 C   0  0  2  0  0  0  0  0  0  0  0  0
   -9.5213    2.8208   26.4688 C   0  0  0  0  0  0  0  0  0  0  0  0
  -10.2979    3.9327   26.2378 C   0  0  0  0  0  0  0  0  0  0  0  0
   -9.7894    5.2123   26.4395 C   0  0  0  0  0  0  0  0  0  0  0  0
   -7.5808    1.7032   27.1517 C   0  0  0  0  0  0  0  0  0  0  0  0
   -6.2215    1.7814   27.6765 C   0  0  0  0  0  0  0  0  0  0  0  0
   -5.5382    0.5836   27.9127 C   0  0  0  0  0  0  0  0  0  0  0  0
   -6.1181   -0.6254   27.7434 C   0  0  0  0  0  0  0  0  0  0  0  0
   -8.0021    0.4566   27.0228 C   0  0  0  0  0  0  0  0  0  0  0  0
   -9.3926    0.4163   26.4931 C   0  0  0  0  0  0  0  0  0  0  0  0
  -10.0926    1.5343   26.2627 C   0  0  0  0  0  0  0  0  0  0  0  0
   -7.3716   -0.6900   27.3114 C   0  0  0  0  0  0  0  0  0  0  0  0
   -6.8976    6.8535   27.8738 N   0  0  0  0  0  0  0  0  0  0  0  0
   -8.7066    7.7161   27.1234 F   0  0  0  0  0  0  0  0  0  0  0  0
   -4.0956    0.7597   28.4378 C   0  0  0  0  0  0  0  0  0  0  0  0
   -3.0611    0.6077   27.6420 C   0  0  0  0  0  0  0  0  0  0  0  0
   -3.3153   -0.3128   26.7354 F   0  0  0  0  0  0  0  0  0  0  0  0
   -2.7134    1.7353   26.9405 F   0  0  0  0  0  0  0  0  0  0  0  0
   -1.9735    0.0455   28.2657 F   0  0  0  0  0  0  0  0  0  0  0  0
  -11.4771    1.4196   25.8226 C   0  0  0  0  0  0  0  0  0  0  0  0
  -11.8886    0.3058   25.7042 C   0  0  0  0  0  0  0  0  0  0  0  0
  -10.0609   -0.7778   26.3843 C   0  0  0  0  0  0  0  0  0  0  0  0
  -11.3079   -0.8978   26.0050 C   0  0  0  0  0  0  0  0  0  0  0  0
  3  4  1  0
  4 16  1  1
  4 17  1  0
 10 18  1  0
 18 19  1  0
 19 20  1  0
 19 21  1  0
 19 22  1  0
  5 14  1  0
 13 12  1  0
  8  2  1  0
 13 14  2  0
 14 23  1  0
 23 24  2  0
 24 26  1  0
 26 25  2  0
 25 13  1  0
  8  9  2  0
  9 10  1  0
 10 11  2  0
 11 15  1  0
 15 12  2  0
 12  8  1  0
  1  2  2  0
  2  5  1  0
  5  6  2  0
  6  7  1  0
  7  3  2  0
  3  1  1  0
M  END
$$$$
