No_1014-complexes_sdf/6BKW-FPZ/2024-09-17-14-21-01/
     RDKit          3D

  9  9  0  0  0  0  0  0  0  0999 V2000
   -7.9040    3.9820   27.1177 C   0  0  0  0  0  0  0  0  0  0  0  0
   -7.8663    4.8694   27.9238 C   0  0  0  0  0  0  0  0  0  0  0  0
   -7.4547    2.7080   27.4594 C   0  0  0  0  0  0  0  0  0  0  0  0
   -8.0927    6.2909   27.5184 C   0  0  0  0  0  0  0  0  0  0  0  0
   -8.9150    6.5640   26.4331 C   0  0  0  0  0  0  0  0  0  0  0  0
   -7.3743    1.4980   26.9652 C   0  0  0  0  0  0  0  0  0  0  0  0
   -8.3812    1.2674   25.9721 C   0  0  0  0  0  0  0  0  0  0  0  0
   -9.1764    2.4183   25.5575 C   0  0  0  0  0  0  0  0  0  0  0  0
   -8.9365    3.7032   26.1438 C   0  0  0  0  0  0  0  0  0  0  0  0
  1  2  1  0
  2  4  2  3
  4  5  1  0
  1  3  2  0
  3  6  1  0
  6  7  2  0
  7  8  1  0
  8  9  2  0
  9  1  1  0
M  END
$$$$
