No_161-complexes_sdf/6BKW-FPZ/2024-09-17-14-21-01/
     RDKit          3D

 15 16  0  0  0  0  0  0  0  0999 V2000
   -7.9040    3.9820   27.1177 C   0  0  0  0  0  0  0  0  0  0  0  0
   -7.8663    4.8694   27.9238 C   0  0  0  0  0  0  0  0  0  0  0  0
   -9.0501    3.8017   26.2617 C   0  0  0  0  0  0  0  0  0  0  0  0
  -10.0189    4.7608   26.3707 C   0  0  0  0  0  0  0  0  0  0  0  0
   -8.6770    5.9780   27.9222 C   0  0  0  0  0  0  0  0  0  0  0  0
   -9.8040    5.8752   27.0958 C   0  0  0  0  0  0  0  0  0  0  0  0
   -9.1317    2.6414   25.4147 C   0  0  0  0  0  0  0  0  0  0  0  0
   -8.6458    1.4431   25.8429 C   0  0  0  0  0  0  0  0  0  0  0  0
   -8.6287    0.3531   25.0209 C   0  0  0  0  0  0  0  0  0  0  0  0
   -9.2518    0.4986   23.7634 C   0  0  0  0  0  0  0  0  0  0  0  0
   -9.7826    1.7133   23.3129 C   0  0  0  0  0  0  0  0  0  0  0  0
   -9.6792    2.7905   24.1308 C   0  0  0  0  0  0  0  0  0  0  0  0
  -10.3419    1.8353   21.9709 C   0  0  0  0  0  0  0  0  0  0  0  0
  -10.4213    3.1053   21.4802 C   0  0  0  0  0  0  0  0  0  0  0  0
  -11.0121    3.3092   20.2296 C   0  0  0  0  0  0  0  0  0  0  0  0
  3  7  1  0
 11 13  1  0
 13 14  2  3
 14 15  1  0
  1  2  2  0
  2  5  1  0
  5  6  2  0
  6  4  1  0
  4  3  2  0
  3  1  1  0
  7  8  2  0
  8  9  1  0
  9 10  2  0
 10 11  1  0
 11 12  2  0
 12  7  1  0
M  END
$$$$
