No_1710-complexes_sdf/6BKW-FPZ/2024-09-17-14-21-01/
     RDKit          3D

 16 17  0  0  0  0  0  0  0  0999 V2000
   -7.9040    3.9820   27.1177 C   0  0  0  0  0  0  0  0  0  0  0  0
   -7.8663    4.8694   27.9238 C   0  0  0  0  0  0  0  0  0  0  0  0
   -9.0491    3.8523   26.2542 C   0  0  0  0  0  0  0  0  0  0  0  0
   -9.7161    4.8785   25.9890 C   0  0  0  0  0  0  0  0  0  0  0  0
   -8.4350    6.1486   27.6826 C   0  0  0  0  0  0  0  0  0  0  0  0
   -9.5031    6.1047   26.7277 C   0  0  0  0  0  0  0  0  0  0  0  0
   -7.1606    2.6396   27.4296 C   0  0  0  0  0  0  0  0  0  0  0  0
   -5.9079    2.6882   28.0220 C   0  0  0  0  0  0  0  0  0  0  0  0
   -7.6803    1.3913   27.0192 C   0  0  0  0  0  0  0  0  0  0  0  0
   -5.0966    1.5443   28.1275 C   0  0  0  0  0  0  0  0  0  0  0  0
   -6.8925    0.2626   27.2289 C   0  0  0  0  0  0  0  0  0  0  0  0
   -5.6140    0.3469   27.8037 C   0  0  0  0  0  0  0  0  0  0  0  0
   -4.8435   -0.8787   28.0730 C   0  0  0  0  0  0  0  0  0  0  0  0
   -5.2578   -1.9193   27.9691 C   0  0  0  0  0  0  0  0  0  0  0  0
   -6.6653   -2.0555   27.5847 C   0  0  0  0  0  0  0  0  0  0  0  0
   -7.4865   -1.0087   27.1609 C   0  0  0  0  0  0  0  0  0  0  0  0
  1  7  1  0
 12 13  1  0
 13 14  2  3
 14 15  1  0
 15 16  1  0
  1  2  2  0
  2  5  1  0
  5  6  2  0
  6  4  1  0
  4  3  2  0
  3  1  1  0
  7  8  2  0
  8 10  1  0
 10 12  2  0
 12 11  1  0
 11  9  2  0
  9  7  1  0
M  END
$$$$
