No_1866-complexes_sdf/6BKW-FPZ/2024-09-17-14-21-01/
     RDKit          3D

 24 26  0  0  0  0  0  0  0  0999 V2000
   -7.7129    4.2099   27.0854 C   0  0  0  0  0  0  0  0  0  0  0  0
   -8.9133    4.4736   27.0998 C   0  0  0  0  0  0  0  0  0  0  0  0
   -9.4643    5.5426   27.7628 C   0  0  0  0  0  0  0  0  0  0  0  0
   -6.8373    4.9942   27.9785 C   0  0  0  0  0  0  0  0  0  0  0  0
   -7.3717    6.0428   28.6744 C   0  0  0  0  0  0  0  0  0  0  0  0
   -8.6869    6.3937   28.5345 C   0  0  0  0  0  0  0  0  0  0  0  0
   -9.8029    3.6153   26.2122 C   0  0  0  0  0  0  0  0  0  0  0  0
  -10.1002    2.3701   26.5024 C   0  0  0  0  0  0  0  0  0  0  0  0
  -10.8218    1.5251   25.6423 C   0  0  0  0  0  0  0  0  0  0  0  0
  -11.3643    2.0969   24.4882 C   0  0  0  0  0  0  0  0  0  0  0  0
  -11.0766    3.4459   24.1676 C   0  0  0  0  0  0  0  0  0  0  0  0
  -10.3063    4.2543   25.0134 C   0  0  0  0  0  0  0  0  0  0  0  0
  -11.6441    4.0557   22.9420 C   0  0  0  0  0  0  0  0  0  0  0  0
  -11.0130    5.4991   22.1258 Br  0  0  0  0  0  0  0  0  0  0  0  0
  -12.8113    3.4700   22.2845 C   0  0  0  0  0  0  0  0  0  0  0  0
  -12.8295    2.5955   21.4757 C   0  0  0  0  0  0  0  0  0  0  0  0
  -11.5329    2.0902   20.9106 C   0  0  0  0  0  0  0  0  0  0  0  0
  -11.0967    0.9820   21.0980 C   0  0  0  0  0  0  0  0  0  0  0  0
  -10.2250    0.4930   21.4074 C   0  0  0  0  0  0  0  0  0  0  0  0
   -9.8291   -0.9090   21.6520 C   0  0  0  0  0  0  0  0  0  0  0  0
   -8.6301   -1.4106   22.1693 C   0  0  0  0  0  0  0  0  0  0  0  0
   -7.6754   -0.5206   22.6351 C   0  0  0  0  0  0  0  0  0  0  0  0
   -7.8808    0.8502   22.5456 C   0  0  0  0  0  0  0  0  0  0  0  0
   -9.0005    1.3321   22.0476 C   0  0  0  0  0  0  0  0  0  0  0  0
  2  7  1  0
 11 13  1  0
 13 14  1  0
 13 15  1  0
 15 16  2  3
 16 17  1  0
 17 18  1  0
 18 19  1  0
  1  2  2  0
  2  3  1  0
  3  6  2  0
  6  5  1  0
  5  4  2  0
  4  1  1  0
 19 20  2  0
 20 21  1  0
 21 22  2  0
 22 23  1  0
 23 24  2  0
 24 19  1  0
  7  8  2  0
  8  9  1  0
  9 10  2  0
 10 11  1  0
 11 12  2  0
 12  7  1  0
M  END
$$$$
