No_1534-complexes_sdf/6BKW-FPZ/2024-09-17-14-21-01/
     RDKit          3D

 13 14  0  0  0  0  0  0  0  0999 V2000
   -7.7129    4.2099   27.0854 C   0  0  0  0  0  0  0  0  0  0  0  0
   -7.7814    5.1722   27.8972 C   0  0  0  0  0  0  0  0  0  0  0  0
   -8.8998    3.8713   26.3707 C   0  0  0  0  0  0  0  0  0  0  0  0
   -8.9563    2.6796   25.5490 C   0  0  0  0  0  0  0  0  0  0  0  0
   -8.8131    6.1334   27.9344 C   0  0  0  0  0  0  0  0  0  0  0  0
   -9.9804    5.8121   27.1929 C   0  0  0  0  0  0  0  0  0  0  0  0
   -9.9861    4.6836   26.4532 C   0  0  0  0  0  0  0  0  0  0  0  0
   -9.8430    2.5340   24.5239 C   0  0  0  0  0  0  0  0  0  0  0  0
  -10.8827    3.5687   24.4657 C   0  0  0  0  0  0  0  0  0  0  0  0
  -10.9951    4.5196   25.4154 C   0  0  0  0  0  0  0  0  0  0  0  0
  -11.9371    3.3582   23.4623 C   0  0  0  0  0  0  0  0  0  0  0  0
  -13.0147    2.7425   23.5843 C   0  0  0  0  0  0  0  0  0  0  0  0
  -13.9679    2.6554   22.5423 C   0  0  0  0  0  0  0  0  0  0  0  0
  9 11  1  0
 11 12  2  3
 12 13  1  0
  1  2  2  0
  2  5  1  0
  5  6  2  0
  6  7  1  0
  3  1  1  0
  3  4  2  0
  4  8  1  0
  8  9  2  0
  9 10  1  0
 10  7  2  0
  7  3  1  0
M  END
$$$$
