No_1776-complexes_sdf/6BKW-FPZ/2024-09-17-14-21-01/
     RDKit          3D

 17 19  0  0  0  0  0  0  0  0999 V2000
   -7.9040    3.9820   27.1177 C   0  0  0  0  0  0  0  0  0  0  0  0
   -8.2057    2.8231   26.8733 C   0  0  0  0  0  0  0  0  0  0  0  0
   -7.0130    4.3706   28.1140 C   0  0  0  0  0  0  0  0  0  0  0  0
   -7.4093    1.7370   27.3857 C   0  0  0  0  0  0  0  0  0  0  0  0
   -6.1712    2.1248   28.0064 C   0  0  0  0  0  0  0  0  0  0  0  0
   -5.9514    3.4407   28.3034 C   0  0  0  0  0  0  0  0  0  0  0  0
   -8.8157    5.2520   26.7958 C   0  0  0  0  0  0  0  0  0  0  0  0
   -9.3858    5.2274   25.4662 C   0  0  0  0  0  0  0  0  0  0  0  0
   -8.8726    6.3963   27.5075 C   0  0  0  0  0  0  0  0  0  0  0  0
   -5.2403    1.0527   28.3649 C   0  0  0  0  0  0  0  0  0  0  0  0
   -4.0419    1.3224   28.8033 N   0  0  0  0  0  0  0  0  0  0  0  0
   -5.6330   -0.3371   28.3258 C   0  0  0  0  0  0  0  0  0  0  0  0
   -6.6782   -0.8599   27.7699 C   0  0  0  0  0  0  0  0  0  0  0  0
   -7.6798    0.3092   27.1706 C   0  0  0  0  0  0  0  0  0  0  0  0
   -4.6038   -1.2653   28.7823 C   0  0  0  0  0  0  0  0  0  0  0  0
   -3.4196   -0.9071   29.2251 C   0  0  0  0  0  0  0  0  0  0  0  0
   -3.1477    0.5315   29.2711 C   0  0  0  0  0  0  0  0  0  0  0  0
  1  7  1  0
  7  8  2  0
  7  9  1  0
  1  2  2  0
  2  4  1  0
  5  6  1  0
  6  3  2  0
  3  1  1  0
  4  5  2  0
  5 10  1  0
 12 13  1  0
 13 14  2  0
 14  4  1  0
 10 11  2  0
 11 17  1  0
 17 16  2  0
 16 15  1  0
 15 12  2  0
 12 10  1  0
M  END
$$$$
