No_1387-complexes_sdf/6BKW-FPZ/2024-09-17-14-21-01/
     RDKit          3D

 30 33  0  0  0  0  0  0  0  0999 V2000
   -7.9040    3.9820   27.1177 C   0  0  0  0  0  0  0  0  0  0  0  0
   -7.8663    4.8694   27.9238 C   0  0  0  0  0  0  0  0  0  0  0  0
   -9.0501    3.8017   26.2617 C   0  0  0  0  0  0  0  0  0  0  0  0
  -10.0189    4.7608   26.3707 C   0  0  0  0  0  0  0  0  0  0  0  0
   -8.6973    5.9722   27.8968 C   0  0  0  0  0  0  0  0  0  0  0  0
   -9.8216    5.8946   27.1241 C   0  0  0  0  0  0  0  0  0  0  0  0
   -9.1437    2.6293   25.4175 C   0  0  0  0  0  0  0  0  0  0  0  0
  -10.0862    1.9717   25.4576 N   0  0  0  0  0  0  0  0  0  0  0  0
  -10.2633    0.8621   24.8668 C   0  0  0  0  0  0  0  0  0  0  0  0
   -9.3422    0.3476   24.2210 C   0  0  0  0  0  0  0  0  0  0  0  0
   -9.3230   -0.6043   23.3577 C   0  0  0  0  0  0  0  0  0  0  0  0
  -10.5852   -1.2517   23.1650 C   0  0  0  0  0  0  0  0  0  0  0  0
  -11.5122    0.1790   24.5859 C   0  0  0  0  0  0  0  0  0  0  0  0
  -11.6469   -0.8435   23.8074 C   0  0  0  0  0  0  0  0  0  0  0  0
  -11.2921    2.3145   26.3275 C   0  0  1  0  0  0  0  0  0  0  0  0
  -12.2804    3.0275   25.8730 C   0  0  0  0  0  0  0  0  0  0  0  0
  -13.3894    3.3251   26.6833 C   0  0  2  0  0  0  0  0  0  0  0  0
  -13.4214    2.7365   27.9853 C   0  0  0  0  0  0  0  0  0  0  0  0
  -11.2684    1.7477   27.6261 C   0  0  0  0  0  0  0  0  0  0  0  0
  -14.5482    2.9403   28.9042 C   0  0  0  0  0  0  0  0  0  0  0  0
  -12.3211    1.9681   28.4732 C   0  0  0  0  0  0  0  0  0  0  0  0
  -14.6627    2.3549   29.9248 C   0  0  0  0  0  0  0  0  0  0  0  0
  -13.5407    1.5094   30.4678 C   0  0  0  0  0  0  0  0  0  0  0  0
  -12.4424    1.3142   29.7257 C   0  0  0  0  0  0  0  0  0  0  0  0
   -6.8437    2.6143   27.0705 Cl  0  0  0  0  0  0  0  0  0  0  0  0
  -14.4799    4.1346   26.2101 C   0  0  0  0  0  0  0  0  0  0  0  0
  -15.4508    3.7754   25.9272 O   0  0  0  0  0  0  0  0  0  0  0  0
  -14.1852    5.4591   26.3263 O   0  0  0  0  0  0  0  0  0  0  0  0
  -10.2516    0.9902   28.0339 O   0  0  0  0  0  0  0  0  0  0  0  0
  -16.0497    2.6070   31.2132 Br  0  0  0  0  0  0  0  0  0  0  0  0
  3  7  1  0
  7  8  1  0
  8  9  1  0
 15  8  1  6
 16 17  1  0
 15 19  1  0
 19 21  1  0
  1 25  1  0
 17 26  1  6
 26 27  2  0
 26 28  1  0
 19 29  2  0
 22 30  1  0
 15 16  1  0
 17 18  1  0
  1  2  2  0
  2  5  1  0
  5  6  2  0
  6  4  1  0
  4  3  2  0
  3  1  1  0
  9 10  2  0
 10 11  1  0
 11 12  2  0
 12 14  1  0
 14 13  2  0
 13  9  1  0
 18 20  2  0
 20 22  1  0
 22 23  2  0
 23 24  1  0
 24 21  2  0
 21 18  1  0
M  END
$$$$
