No_1333-complexes_sdf/6BKW-FPZ/2024-09-17-14-21-01/
     RDKit          3D

 19 20  0  0  0  0  0  0  0  0999 V2000
   -7.7129    4.2099   27.0854 C   0  0  0  0  0  0  0  0  0  0  0  0
   -8.9133    4.4736   27.0998 C   0  0  0  0  0  0  0  0  0  0  0  0
   -9.7937    3.7367   26.2091 C   0  0  0  0  0  0  0  0  0  0  0  0
   -7.2496    2.8647   26.8496 C   0  0  0  0  0  0  0  0  0  0  0  0
   -8.1891    1.9790   26.3454 C   0  0  0  0  0  0  0  0  0  0  0  0
   -9.4252    2.4603   26.0121 C   0  0  0  0  0  0  0  0  0  0  0  0
   -9.3199    5.9662   27.2512 C   0  0  0  0  0  0  0  0  0  0  0  0
   -7.7626    0.5908   26.1375 C   0  0  0  0  0  0  0  0  0  0  0  0
   -7.9201    0.0267   25.1461 O   0  0  0  0  0  0  0  0  0  0  0  0
   -7.1118   -0.0176   27.1974 O   0  0  0  0  0  0  0  0  0  0  0  0
  -10.2785    6.0249   28.0948 F   0  0  0  0  0  0  0  0  0  0  0  0
   -8.3278    6.6067   28.1220 F   0  0  0  0  0  0  0  0  0  0  0  0
   -9.3902    6.6554   26.2043 F   0  0  0  0  0  0  0  0  0  0  0  0
   -6.9649   -1.3180   27.3543 C   0  0  0  0  0  0  0  0  0  0  0  0
   -5.9261   -1.6145   28.0575 C   0  0  0  0  0  0  0  0  0  0  0  0
   -5.8219   -2.7239   28.6615 C   0  0  0  0  0  0  0  0  0  0  0  0
   -6.7901   -3.7508   28.3823 C   0  0  0  0  0  0  0  0  0  0  0  0
   -7.8685   -3.4062   27.6043 C   0  0  0  0  0  0  0  0  0  0  0  0
   -8.0549   -2.0748   27.2312 C   0  0  0  0  0  0  0  0  0  0  0  0
  2  7  1  0
  5  8  1  0
  8  9  2  0
  8 10  1  0
  7 11  1  0
  7 12  1  0
  7 13  1  0
 10 14  1  0
 14 15  2  0
 15 16  1  0
 16 17  2  0
 17 18  1  0
 18 19  2  0
 19 14  1  0
  1  2  2  0
  2  3  1  0
  3  6  2  0
  6  5  1  0
  5  4  2  0
  4  1  1  0
M  END
$$$$
