No_1173-complexes_sdf/6BKW-FPZ/2024-09-17-14-21-01/
     RDKit          3D

 19 20  0  0  0  0  0  0  0  0999 V2000
   -7.9040    3.9820   27.1177 C   0  0  0  0  0  0  0  0  0  0  0  0
   -8.2057    2.8231   26.8733 C   0  0  0  0  0  0  0  0  0  0  0  0
   -8.7695    5.0740   26.7916 C   0  0  0  0  0  0  0  0  0  0  0  0
   -9.9618    4.7598   26.1630 C   0  0  0  0  0  0  0  0  0  0  0  0
   -9.4200    2.4524   26.2850 C   0  0  0  0  0  0  0  0  0  0  0  0
  -10.2590    3.4815   25.9250 C   0  0  0  0  0  0  0  0  0  0  0  0
   -8.1804    6.4174   27.1235 C   0  0  0  0  0  0  0  0  0  0  0  0
   -7.1474    6.5457   27.6775 N   0  0  0  0  0  0  0  0  0  0  0  0
   -8.7889    7.5851   26.4625 C   0  0  0  0  0  0  0  0  0  0  0  0
   -7.3112    1.6304   27.2686 C   0  0  0  0  0  0  0  0  0  0  0  0
   -6.0423    1.9409   27.8138 C   0  0  0  0  0  0  0  0  0  0  0  0
   -5.1510    0.8631   28.1817 C   0  0  0  0  0  0  0  0  0  0  0  0
   -5.5430   -0.4239   28.0554 C   0  0  0  0  0  0  0  0  0  0  0  0
   -7.6142    0.3015   27.1802 C   0  0  0  0  0  0  0  0  0  0  0  0
   -6.8361   -0.6813   27.6076 C   0  0  0  0  0  0  0  0  0  0  0  0
   -4.6451   -1.4755   28.5693 C   0  0  0  0  0  0  0  0  0  0  0  0
   -5.0431   -2.4824   28.9902 F   0  0  0  0  0  0  0  0  0  0  0  0
   -3.8317   -0.9009   29.5728 F   0  0  0  0  0  0  0  0  0  0  0  0
   -3.7574   -1.6861   27.5249 F   0  0  0  0  0  0  0  0  0  0  0  0
  3  7  1  0
  7  8  2  0
  7  9  1  0
  2 10  1  0
 13 16  1  0
 16 17  1  0
 16 18  1  0
 16 19  1  0
 10 11  2  0
 11 12  1  0
 12 13  2  0
 13 15  1  0
 15 14  2  0
 14 10  1  0
  1  2  2  0
  2  5  1  0
  5  6  2  0
  6  4  1  0
  4  3  2  0
  3  1  1  0
M  END
$$$$
