No_1021-complexes_sdf/6BKW-FPZ/2024-09-17-14-21-01/
     RDKit          3D

 31 35  0  0  0  0  0  0  0  0999 V2000
   -7.9040    3.9820   27.1177 C   0  0  0  0  0  0  0  0  0  0  0  0
   -9.0711    4.3164   27.0630 C   0  0  0  0  0  0  0  0  0  0  0  0
   -9.8698    3.9665   25.9495 C   0  0  0  0  0  0  0  0  0  0  0  0
   -7.0332    4.5030   28.2025 C   0  0  0  0  0  0  0  0  0  0  0  0
  -10.9909    4.7237   25.5958 C   0  0  0  0  0  0  0  0  0  0  0  0
   -7.4989    5.5573   28.9524 C   0  0  0  0  0  0  0  0  0  0  0  0
  -11.7350    4.2316   24.5284 C   0  0  0  0  0  0  0  0  0  0  0  0
  -11.2838    3.2467   23.6902 C   0  0  0  0  0  0  0  0  0  0  0  0
  -10.1288    2.5811   23.9927 C   0  0  0  0  0  0  0  0  0  0  0  0
   -9.3722    3.0142   25.1161 C   0  0  0  0  0  0  0  0  0  0  0  0
   -9.4676    5.4284   27.9115 C   0  0  0  0  0  0  0  0  0  0  0  0
   -8.7060    6.0088   28.8201 C   0  0  0  0  0  0  0  0  0  0  0  0
   -9.6185    1.4635   23.1616 C   0  0  0  0  0  0  0  0  0  0  0  0
  -10.0255    1.2869   21.8745 C   0  0  0  0  0  0  0  0  0  0  0  0
   -8.6233    0.5600   23.6921 C   0  0  0  0  0  0  0  0  0  0  0  0
   -8.1439   -0.4875   22.9631 C   0  0  0  0  0  0  0  0  0  0  0  0
   -9.5515    0.2067   21.1209 C   0  0  0  0  0  0  0  0  0  0  0  0
   -8.6288   -0.6364   21.6505 C   0  0  0  0  0  0  0  0  0  0  0  0
   -8.1831   -1.7774   20.7942 C   0  0  0  0  0  0  0  0  0  0  0  0
   -6.9095   -2.3685   21.1614 C   0  0  0  0  0  0  0  0  0  0  0  0
   -6.4396   -2.2210   22.5063 C   0  0  0  0  0  0  0  0  0  0  0  0
   -6.9534   -1.3158   23.3792 C   0  0  0  0  0  0  0  0  0  0  0  0
   -6.3215   -1.0621   24.6628 C   0  0  0  0  0  0  0  0  0  0  0  0
   -5.2215   -1.4587   24.8438 O   0  0  0  0  0  0  0  0  0  0  0  0
   -6.9957   -0.4269   25.5633 O   0  0  0  0  0  0  0  0  0  0  0  0
   -6.3858   -0.1785   26.8337 C   0  0  0  0  0  0  0  0  0  0  0  0
   -5.9644   -1.0580   27.6209 C   0  0  0  0  0  0  0  0  0  0  0  0
   -5.0528   -0.9825   28.1347 C   0  0  0  0  0  0  0  0  0  0  0  0
   -4.5422    0.4005   28.7674 C   0  0  0  0  0  0  0  0  0  0  0  0
   -5.0982    1.4672   27.9900 C   0  0  0  0  0  0  0  0  0  0  0  0
   -5.9392    1.1810   26.9779 C   0  0  0  0  0  0  0  0  0  0  0  0
  9 13  1  0
 22 23  1  0
 23 24  2  0
 23 25  1  0
 25 26  1  0
  3  2  1  0
 18 19  1  0
 19 20  2  0
 20 21  1  0
 21 22  2  0
 22 16  1  0
  1  2  2  0
  2 11  1  0
 11 12  2  0
 12  6  1  0
  6  4  2  0
  4  1  1  0
 13 14  2  0
 14 17  1  0
 17 18  2  0
 18 16  1  0
 16 15  2  0
 15 13  1  0
 26 27  2  0
 27 28  1  0
 28 29  2  0
 29 30  1  0
 30 31  2  0
 31 26  1  0
  3  5  2  0
  5  7  1  0
  7  8  2  0
  8  9  1  0
  9 10  2  0
 10  3  1  0
M  END
$$$$
