No_1985-complexes_sdf/6BKW-FPZ/2024-09-17-14-21-01/
     RDKit          3D

 14 15  0  0  0  0  0  0  0  0999 V2000
   -7.9040    3.9820   27.1177 C   0  0  0  0  0  0  0  0  0  0  0  0
   -7.8663    4.8694   27.9238 C   0  0  0  0  0  0  0  0  0  0  0  0
   -9.0501    3.8017   26.2617 C   0  0  0  0  0  0  0  0  0  0  0  0
  -10.0189    4.7608   26.3707 C   0  0  0  0  0  0  0  0  0  0  0  0
   -8.6973    5.9722   27.8968 C   0  0  0  0  0  0  0  0  0  0  0  0
   -9.8216    5.8946   27.1241 C   0  0  0  0  0  0  0  0  0  0  0  0
   -8.9531    2.7533   25.4934 F   0  0  0  0  0  0  0  0  0  0  0  0
   -6.9744    2.9383   27.1275 O   0  0  0  0  0  0  0  0  0  0  0  0
   -7.3553    1.5995   27.1501 C   0  0  0  0  0  0  0  0  0  0  0  0
   -6.2565    0.7399   27.3788 C   0  0  0  0  0  0  0  0  0  0  0  0
   -6.4267   -0.6243   27.4556 C   0  0  0  0  0  0  0  0  0  0  0  0
   -7.7846   -1.0714   27.3664 C   0  0  0  0  0  0  0  0  0  0  0  0
   -8.8547   -0.2376   27.1932 C   0  0  0  0  0  0  0  0  0  0  0  0
   -8.6196    1.1656   27.1712 C   0  0  0  0  0  0  0  0  0  0  0  0
  3  7  1  0
  1  8  1  0
  8  9  1  0
  9 10  2  0
 10 11  1  0
 11 12  2  0
 12 13  1  0
 13 14  2  0
 14  9  1  0
  1  2  2  0
  2  5  1  0
  5  6  2  0
  6  4  1  0
  4  3  2  0
  3  1  1  0
M  END
$$$$
