No_1050-complexes_sdf/6BKW-FPZ/2024-09-17-14-21-01/
     RDKit          3D

 20 22  0  0  0  0  0  0  0  0999 V2000
   -7.9040    3.9820   27.1177 C   0  0  0  0  0  0  0  0  0  0  0  0
   -7.8663    4.8694   27.9238 C   0  0  0  0  0  0  0  0  0  0  0  0
   -9.0501    3.8017   26.2617 C   0  0  0  0  0  0  0  0  0  0  0  0
  -10.0189    4.7608   26.3707 C   0  0  0  0  0  0  0  0  0  0  0  0
   -8.6973    5.9722   27.8968 C   0  0  0  0  0  0  0  0  0  0  0  0
   -9.8216    5.8946   27.1241 C   0  0  0  0  0  0  0  0  0  0  0  0
   -9.1445    2.6271   25.4265 C   0  0  0  0  0  0  0  0  0  0  0  0
   -9.9972    2.7053   24.3067 C   0  0  0  0  0  0  0  0  0  0  0  0
  -10.6860    3.8998   24.0797 C   0  0  0  0  0  0  0  0  0  0  0  0
  -10.8583    4.8430   25.1976 N   0  0  0  0  0  0  0  0  0  0  0  0
  -11.6459    4.0339   23.0592 C   0  0  0  0  0  0  0  0  0  0  0  0
  -11.1452    3.9349   21.8582 C   0  0  0  0  0  0  0  0  0  0  0  0
  -11.9847    4.0249   20.6693 C   0  0  0  0  0  0  0  0  0  0  0  0
  -13.3263    4.3352   20.8163 C   0  0  0  0  0  0  0  0  0  0  0  0
  -12.9683    4.4316   23.1640 C   0  0  0  0  0  0  0  0  0  0  0  0
  -13.8019    4.5716   22.1240 C   0  0  0  0  0  0  0  0  0  0  0  0
   -6.9869    2.9680   27.2150 F   0  0  0  0  0  0  0  0  0  0  0  0
  -10.0117    1.4463   23.2465 Cl  0  0  0  0  0  0  0  0  0  0  0  0
  -15.0636    4.9069   22.2462 F   0  0  0  0  0  0  0  0  0  0  0  0
  -11.4238    3.8629   19.4746 F   0  0  0  0  0  0  0  0  0  0  0  0
  9 11  1  0
  1 17  1  0
  8 18  1  0
 16 19  1  0
 13 20  1  0
  4 10  2  0
 10  9  1  0
  9  8  2  0
  8  7  1  0
  7  3  2  0
 11 12  2  0
 12 13  1  0
 13 14  2  0
 14 16  1  0
 16 15  2  0
 15 11  1  0
  1  2  2  0
  2  5  1  0
  5  6  2  0
  6  4  1  0
  4  3  1  0
  3  1  1  0
M  END
$$$$
