No_1939-complexes_sdf/6BKW-FPZ/2024-09-17-14-21-01/
     RDKit          3D

 14 15  0  0  0  0  0  0  0  0999 V2000
   -7.7129    4.2099   27.0854 C   0  0  0  0  0  0  0  0  0  0  0  0
   -7.7814    5.1722   27.8972 C   0  0  0  0  0  0  0  0  0  0  0  0
   -8.8998    3.8713   26.3707 C   0  0  0  0  0  0  0  0  0  0  0  0
   -9.9938    4.6774   26.5446 C   0  0  0  0  0  0  0  0  0  0  0  0
   -8.7789    6.1536   27.9256 C   0  0  0  0  0  0  0  0  0  0  0  0
   -9.9428    5.8398   27.2296 C   0  0  0  0  0  0  0  0  0  0  0  0
   -9.1379    2.6708   25.6021 C   0  0  0  0  0  0  0  0  0  0  0  0
   -9.9198    2.6430   24.4857 C   0  0  0  0  0  0  0  0  0  0  0  0
  -10.8500    3.7256   24.3708 C   0  0  0  0  0  0  0  0  0  0  0  0
  -11.0186    4.6232   25.4449 C   0  0  0  0  0  0  0  0  0  0  0  0
  -11.9109    3.6093   23.3744 C   0  0  0  0  0  0  0  0  0  0  0  0
  -11.5298    3.8394   22.1633 C   0  0  0  0  0  0  0  0  0  0  0  0
  -10.3161    4.3501   21.9252 C   0  0  0  0  0  0  0  0  0  0  0  0
   -9.8839    4.5407   20.5128 C   0  0  0  0  0  0  0  0  0  0  0  0
  9 11  1  0
 11 12  1  0
 12 13  2  3
 13 14  1  0
  4 10  2  0
 10  9  1  0
  9  8  2  0
  8  7  1  0
  7  3  2  0
  1  2  2  0
  2  5  1  0
  5  6  2  0
  6  4  1  0
  4  3  1  0
  3  1  1  0
M  END
$$$$
