No_1261-complexes_sdf/6BKW-FPZ/2024-09-17-14-21-01/
     RDKit          3D

 28 31  0  0  0  0  0  0  0  0999 V2000
   -7.7129    4.2099   27.0854 C   0  0  0  0  0  0  0  0  0  0  0  0
   -8.2112    3.0637   26.9225 C   0  0  0  0  0  0  0  0  0  0  0  0
   -8.4224    5.2106   27.8516 C   0  0  0  0  0  0  0  0  0  0  0  0
   -9.5628    2.7160   27.4089 C   0  0  0  0  0  0  0  0  0  0  0  0
  -10.2428    3.7496   28.1155 C   0  0  0  0  0  0  0  0  0  0  0  0
   -9.6677    4.9738   28.3232 C   0  0  0  0  0  0  0  0  0  0  0  0
   -7.8012    6.3713   28.0255 F   0  0  0  0  0  0  0  0  0  0  0  0
  -10.1131    1.3955   27.2092 C   0  0  1  0  0  0  0  0  0  0  0  0
   -9.2990    0.3686   27.1333 C   0  0  0  0  0  0  0  0  0  0  0  0
  -11.5023    1.2106   27.3505 C   0  0  0  0  0  0  0  0  0  0  0  0
   -8.0690    0.3128   26.9148 C   0  0  0  0  0  0  0  0  0  0  0  0
   -7.2315   -0.8265   26.7295 C   0  0  0  0  0  0  0  0  0  0  0  0
   -5.8318   -0.6453   26.5223 C   0  0  0  0  0  0  0  0  0  0  0  0
   -4.9884   -0.5372   27.2356 C   0  0  0  0  0  0  0  0  0  0  0  0
   -3.5469   -0.2729   26.9481 C   0  0  0  0  0  0  0  0  0  0  0  0
   -2.6557    0.3720   27.8057 C   0  0  0  0  0  0  0  0  0  0  0  0
   -3.0674    0.5826   29.1625 C   0  0  0  0  0  0  0  0  0  0  0  0
   -4.4432    0.2895   29.5238 C   0  0  0  0  0  0  0  0  0  0  0  0
   -5.2972   -0.1406   28.5502 C   0  0  0  0  0  0  0  0  0  0  0  0
  -12.3770    2.0466   27.1587 C   0  0  0  0  0  0  0  0  0  0  0  0
  -13.8260    1.7409   27.2472 C   0  0  0  0  0  0  0  0  0  0  0  0
  -14.7733    2.7347   27.1342 C   0  0  0  0  0  0  0  0  0  0  0  0
  -14.3317    4.0823   26.9372 C   0  0  0  0  0  0  0  0  0  0  0  0
  -12.9962    4.4345   26.8721 C   0  0  0  0  0  0  0  0  0  0  0  0
  -12.0897    3.5716   27.0435 C   0  0  0  0  0  0  0  0  0  0  0  0
  -10.7879    3.9072   26.9946 C   0  0  1  0  0  0  0  0  0  0  0  0
  -10.4488    4.5917   25.6935 C   0  0  0  0  0  0  0  0  0  0  0  0
  -11.1371    5.3837   26.6655 C   0  0  0  0  0  0  0  0  0  0  0  0
  3  7  1  0
  4  8  1  0
  8  9  1  0
  8 10  1  1
  9 11  2  3
 11 12  1  0
 12 13  2  3
 13 14  1  0
  5 26  1  0
 25 26  1  0
 26 27  1  1
 27 28  1  0
 10 20  1  0
  1  2  2  0
  2  4  1  0
  4  5  2  0
  5  6  1  0
  6  3  2  0
  3  1  1  0
 14 15  2  0
 15 16  1  0
 16 17  2  0
 17 18  1  0
 18 19  2  0
 19 14  1  0
 20 21  2  0
 21 22  1  0
 22 23  2  0
 23 24  1  0
 24 25  2  0
 25 20  1  0
M  END
$$$$
