No_182-complexes_sdf/6BKW-FPZ/2024-09-17-14-21-01/
     RDKit          3D

 23 27  0  0  0  0  0  0  0  0999 V2000
   -7.2496    3.8871   27.4508 C   0  0  0  0  0  0  0  0  0  0  0  0
   -7.6161    2.7143   27.1523 C   0  0  0  0  0  0  0  0  0  0  0  0
   -8.8302    2.4659   26.5056 C   0  0  0  0  0  0  0  0  0  0  0  0
   -8.1584    5.0090   27.3234 C   0  0  0  0  0  0  0  0  0  0  0  0
   -9.3788    4.7965   26.7695 C   0  0  0  0  0  0  0  0  0  0  0  0
   -9.7028    3.5649   26.3276 C   0  0  0  0  0  0  0  0  0  0  0  0
   -6.7190    1.5585   27.3667 C   0  0  0  0  0  0  0  0  0  0  0  0
   -7.0504    0.2135   27.2455 C   0  0  0  0  0  0  0  0  0  0  0  0
   -8.4198    0.0873   26.7028 C   0  0  0  0  0  0  0  0  0  0  0  0
   -9.2596    1.1156   26.3288 C   0  0  0  0  0  0  0  0  0  0  0  0
   -7.6146    6.5784   27.8576 Cl  0  0  0  0  0  0  0  0  0  0  0  0
   -6.2376   -0.8246   27.5967 C   0  0  0  0  0  0  0  0  0  0  0  0
   -6.6561   -1.8654   28.0540 C   0  0  0  0  0  0  0  0  0  0  0  0
   -6.3568   -2.6991   28.6768 C   0  0  0  0  0  0  0  0  0  0  0  0
   -4.8818   -2.6777   29.0250 C   0  0  0  0  0  0  0  0  0  0  0  0
   -4.1584   -1.5744   28.5538 C   0  0  0  0  0  0  0  0  0  0  0  0
   -4.8413   -0.5438   27.9934 C   0  0  0  0  0  0  0  0  0  0  0  0
  -10.5273    0.7844   25.7977 C   0  0  0  0  0  0  0  0  0  0  0  0
  -10.7003   -0.2901   25.3263 C   0  0  0  0  0  0  0  0  0  0  0  0
   -9.8126   -1.4192   25.6586 C   0  0  0  0  0  0  0  0  0  0  0  0
   -8.6883   -1.2235   26.3044 C   0  0  0  0  0  0  0  0  0  0  0  0
   -8.1315   -2.1462   27.3892 C   0  0  1  0  0  0  0  0  0  0  0  0
   -8.9296   -3.6198   27.6408 Cl  0  0  0  0  0  0  0  0  0  0  0  0
  4 11  1  0
  8 12  1  0
 13 22  1  0
 21 22  1  0
 22 23  1  6
 12 13  2  0
 13 14  1  0
 14 15  2  0
 15 16  1  0
 16 17  2  0
 17 12  1  0
  1  2  2  0
  3  6  2  0
  6  5  1  0
  5  4  2  0
  4  1  1  0
  2  3  1  0
  3 10  1  0
  9  8  1  0
  8  7  2  0
  7  2  1  0
  9 10  2  0
 10 18  1  0
 18 19  2  0
 19 20  1  0
 20 21  2  0
 21  9  1  0
M  END
$$$$
