No_1060-complexes_sdf/6BKW-FPZ/2024-09-17-14-21-01/
     RDKit          3D

 26 29  0  0  0  0  0  0  0  0999 V2000
   -7.2496    3.8871   27.4508 C   0  0  0  0  0  0  0  0  0  0  0  0
   -7.6161    2.7143   27.1523 C   0  0  0  0  0  0  0  0  0  0  0  0
   -8.8302    2.4659   26.5056 C   0  0  0  0  0  0  0  0  0  0  0  0
   -8.1584    5.0090   27.3234 C   0  0  0  0  0  0  0  0  0  0  0  0
   -9.3788    4.7965   26.7695 C   0  0  0  0  0  0  0  0  0  0  0  0
   -9.7028    3.5649   26.3276 C   0  0  0  0  0  0  0  0  0  0  0  0
   -6.7190    1.5585   27.3667 C   0  0  0  0  0  0  0  0  0  0  0  0
   -7.0504    0.2135   27.2455 C   0  0  0  0  0  0  0  0  0  0  0  0
   -8.4198    0.0873   26.7028 C   0  0  0  0  0  0  0  0  0  0  0  0
   -9.2596    1.1156   26.3288 C   0  0  0  0  0  0  0  0  0  0  0  0
   -7.7258    6.2045   27.7413 F   0  0  0  0  0  0  0  0  0  0  0  0
   -6.2382   -0.8268   27.5971 C   0  0  0  0  0  0  0  0  0  0  0  0
   -6.5253   -1.7768   28.0257 N   0  0  0  0  0  0  0  0  0  0  0  0
   -4.7666   -0.5751   27.4229 C   0  0  0  0  0  0  0  0  0  0  0  0
   -3.9316   -1.5844   27.4468 C   0  0  0  0  0  0  0  0  0  0  0  0
   -5.7011   -2.9021   28.3098 C   0  0  0  0  0  0  0  0  0  0  0  0
   -4.3781   -2.7664   28.0923 C   0  0  0  0  0  0  0  0  0  0  0  0
  -10.8852    3.3951   25.7194 O   0  0  0  0  0  0  0  0  0  0  0  0
  -11.9822    3.5285   26.2796 C   0  0  0  0  0  0  0  0  0  0  0  0
  -12.1293    3.6614   27.5291 C   0  0  0  0  0  0  0  0  0  0  0  0
  -13.3764    3.8700   28.2483 C   0  0  0  0  0  0  0  0  0  0  0  0
  -13.4386    3.9323   29.6670 C   0  0  0  0  0  0  0  0  0  0  0  0
  -14.6159    4.1326   30.3219 C   0  0  0  0  0  0  0  0  0  0  0  0
  -15.7487    4.4579   29.5885 C   0  0  0  0  0  0  0  0  0  0  0  0
  -14.5516    4.2494   27.5236 C   0  0  0  0  0  0  0  0  0  0  0  0
  -15.7076    4.5649   28.2396 C   0  0  0  0  0  0  0  0  0  0  0  0
  4 11  1  0
  8 12  1  0
  6 18  1  0
 18 19  1  0
 19 20  2  3
 20 21  1  0
 21 22  2  0
 22 23  1  0
 23 24  2  0
 24 26  1  0
 26 25  2  0
 25 21  1  0
  1  2  2  0
  3  6  2  0
  6  5  1  0
  5  4  2  0
  4  1  1  0
  2  3  1  0
  3 10  1  0
 10  9  2  0
  9  8  1  0
  8  7  2  0
  7  2  1  0
 12 13  2  0
 13 16  1  0
 16 17  2  0
 17 15  1  0
 15 14  2  0
 14 12  1  0
M  END
$$$$
