No_1254-complexes_sdf/6BKW-FPZ/2024-09-17-14-21-01/
     RDKit          3D

 29 33  0  0  0  0  0  0  0  0999 V2000
   -7.9040    3.9820   27.1177 C   0  0  0  0  0  0  0  0  0  0  0  0
   -7.8663    4.8694   27.9238 C   0  0  0  0  0  0  0  0  0  0  0  0
   -9.0501    3.8017   26.2617 C   0  0  0  0  0  0  0  0  0  0  0  0
  -10.0189    4.7608   26.3707 C   0  0  0  0  0  0  0  0  0  0  0  0
   -8.6973    5.9722   27.8968 C   0  0  0  0  0  0  0  0  0  0  0  0
   -9.8216    5.8946   27.1241 C   0  0  0  0  0  0  0  0  0  0  0  0
   -8.9544    2.5594   25.4484 C   0  0  0  0  0  0  0  0  0  0  0  0
   -9.7200    2.5383   24.3408 C   0  0  0  0  0  0  0  0  0  0  0  0
   -9.7464    1.3768   23.5137 C   0  0  0  0  0  0  0  0  0  0  0  0
   -8.8708    0.3017   23.8791 C   0  0  0  0  0  0  0  0  0  0  0  0
   -8.1425    0.3616   25.0252 C   0  0  0  0  0  0  0  0  0  0  0  0
   -8.1649    1.5073   25.8583 C   0  0  0  0  0  0  0  0  0  0  0  0
   -8.8486   -0.8997   23.0062 C   0  0  0  0  0  0  0  0  0  0  0  0
   -7.7043   -1.3710   22.6249 C   0  0  0  0  0  0  0  0  0  0  0  0
   -6.5379   -0.9794   23.2146 C   0  0  0  0  0  0  0  0  0  0  0  0
   -6.7646   -0.2899   24.6158 C   0  0  0  0  0  0  0  0  0  0  0  0
   -7.5136   -2.4096   21.6004 C   0  0  0  0  0  0  0  0  0  0  0  0
   -6.5431   -2.6948   21.0700 O   0  0  0  0  0  0  0  0  0  0  0  0
   -8.7237   -2.6259   20.8895 O   0  0  0  0  0  0  0  0  0  0  0  0
  -10.6218    1.3840   22.3883 C   0  0  0  0  0  0  0  0  0  0  0  0
  -10.7574    2.4613   21.6741 C   0  0  0  0  0  0  0  0  0  0  0  0
  -10.1794    3.4854   22.0147 C   0  0  0  0  0  0  0  0  0  0  0  0
   -9.9048    3.7438   23.5028 C   0  0  0  0  0  0  0  0  0  0  0  0
   -8.7543   -3.0698   19.6357 C   0  0  0  0  0  0  0  0  0  0  0  0
   -9.6930   -2.3762   18.8787 C   0  0  0  0  0  0  0  0  0  0  0  0
   -9.5313   -2.3170   17.4892 C   0  0  0  0  0  0  0  0  0  0  0  0
   -8.4955   -3.0943   16.9234 C   0  0  0  0  0  0  0  0  0  0  0  0
   -7.5581   -3.6896   17.7027 C   0  0  0  0  0  0  0  0  0  0  0  0
   -7.6637   -3.5414   19.0842 C   0  0  0  0  0  0  0  0  0  0  0  0
  3  7  1  0
 14 17  1  0
 17 18  2  0
 17 19  1  0
 19 24  1  0
 24 25  2  0
 25 26  1  0
 26 27  2  0
 27 28  1  0
 28 29  2  0
 29 24  1  0
 11 16  1  0
 16 15  2  0
 15 14  1  0
 14 13  2  0
 13 10  1  0
  7  8  2  0
  9 10  2  0
 10 11  1  0
 11 12  2  0
 12  7  1  0
  8  9  1  0
  9 20  1  0
 20 21  2  0
 21 22  1  0
 22 23  2  0
 23  8  1  0
  1  2  2  0
  2  5  1  0
  5  6  2  0
  6  4  1  0
  4  3  2  0
  3  1  1  0
M  END
$$$$
