No_113-complexes_sdf/6BKW-FPZ/2024-09-17-14-21-01/
     RDKit          3D

 19 20  0  0  0  0  0  0  0  0999 V2000
   -7.2496    3.8871   27.4508 C   0  0  0  0  0  0  0  0  0  0  0  0
   -7.9379    4.9063   27.8518 C   0  0  0  0  0  0  0  0  0  0  0  0
   -7.4895    6.2027   27.7481 C   0  0  0  0  0  0  0  0  0  0  0  0
   -7.8057    2.6324   27.3137 C   0  0  0  0  0  0  0  0  0  0  0  0
   -9.1872    2.4678   27.5434 C   0  0  0  0  0  0  0  0  0  0  0  0
   -9.9237    3.5447   27.9999 C   0  0  0  0  0  0  0  0  0  0  0  0
   -9.3832    4.8080   28.1012 C   0  0  0  0  0  0  0  0  0  0  0  0
  -11.3761    3.3018   28.3126 C   0  0  0  0  0  0  0  0  0  0  0  0
  -11.8002    2.1020   28.7710 C   0  0  0  0  0  0  0  0  0  0  0  0
  -13.1395    1.8838   29.1449 C   0  0  0  0  0  0  0  0  0  0  0  0
  -14.0038    2.9928   29.1714 C   0  0  0  0  0  0  0  0  0  0  0  0
  -12.3292    4.4553   28.4319 C   0  0  0  0  0  0  0  0  0  0  0  0
  -13.5955    4.2416   28.7611 C   0  0  0  0  0  0  0  0  0  0  0  0
   -7.0306    1.4326   26.9313 C   0  0  0  0  0  0  0  0  0  0  0  0
   -5.9391    0.9910   27.7622 C   0  0  0  0  0  0  0  0  0  0  0  0
   -5.2198   -0.1685   27.4946 C   0  0  0  0  0  0  0  0  0  0  0  0
   -4.0343   -0.4532   28.2410 C   0  0  0  0  0  0  0  0  0  0  0  0
   -3.6721    0.4007   29.2978 C   0  0  0  0  0  0  0  0  0  0  0  0
   -4.4098    1.5854   29.4733 C   0  0  0  0  0  0  0  0  0  0  0  0
  2  3  1  0
  6  8  1  0
  4 14  1  0
 14 15  2  3
 15 16  1  0
 16 17  1  0
 17 18  2  3
 18 19  1  0
  1  2  2  0
  2  7  1  0
  7  6  2  0
  6  5  1  0
  5  4  2  0
  4  1  1  0
  8  9  2  0
  9 10  1  0
 10 11  2  0
 11 13  1  0
 13 12  2  0
 12  8  1  0
M  END
$$$$
