No_1466-complexes_sdf/6BKW-FPZ/2024-09-17-14-21-01/
     RDKit          3D

 24 26  0  0  0  0  0  0  0  0999 V2000
   -7.7129    4.2099   27.0854 C   0  0  0  0  0  0  0  0  0  0  0  0
   -7.7814    5.1722   27.8972 C   0  0  0  0  0  0  0  0  0  0  0  0
   -8.8776    3.8408   26.3416 C   0  0  0  0  0  0  0  0  0  0  0  0
   -9.9844    4.6492   26.4743 C   0  0  0  0  0  0  0  0  0  0  0  0
   -8.8033    6.1375   27.8728 C   0  0  0  0  0  0  0  0  0  0  0  0
   -9.9554    5.8280   27.1737 C   0  0  0  0  0  0  0  0  0  0  0  0
   -8.8752    2.6155   25.5663 C   0  0  0  0  0  0  0  0  0  0  0  0
   -9.7674    2.4672   24.5176 C   0  0  0  0  0  0  0  0  0  0  0  0
   -9.7868    1.3139   23.7963 C   0  0  0  0  0  0  0  0  0  0  0  0
   -8.8124    0.2939   24.0686 C   0  0  0  0  0  0  0  0  0  0  0  0
   -7.9672    0.4354   25.1370 C   0  0  0  0  0  0  0  0  0  0  0  0
   -7.9674    1.5907   25.9153 C   0  0  0  0  0  0  0  0  0  0  0  0
  -10.6713    1.1588   22.6427 C   0  0  0  0  0  0  0  0  0  0  0  0
  -11.9540    0.9370   22.9773 C   0  0  0  0  0  0  0  0  0  0  0  0
  -12.8998    0.9355   22.0097 C   0  0  0  0  0  0  0  0  0  0  0  0
  -14.2904    0.7652   22.2924 C   0  0  0  0  0  0  0  0  0  0  0  0
  -14.6379    0.6557   23.6497 C   0  0  0  0  0  0  0  0  0  0  0  0
  -13.7066    0.6905   24.6313 C   0  0  0  0  0  0  0  0  0  0  0  0
  -12.3697    0.8872   24.3673 C   0  0  0  0  0  0  0  0  0  0  0  0
  -10.1143    1.2808   21.3584 C   0  0  0  0  0  0  0  0  0  0  0  0
  -14.1507    0.6215   26.0817 C   0  0  0  0  0  0  0  0  0  0  0  0
  -14.1844   -0.3948   26.6352 O   0  0  0  0  0  0  0  0  0  0  0  0
  -14.3999    1.7940   26.6406 O   0  0  0  0  0  0  0  0  0  0  0  0
   -9.3133    1.5950   20.7645 O   0  0  0  0  0  0  0  0  0  0  0  0
  3  7  1  0
  9 13  1  0
 13 14  1  0
 13 20  1  0
 18 21  1  0
 21 22  2  0
 21 23  1  0
 20 24  2  0
 14 15  2  0
 15 16  1  0
 16 17  2  0
 17 18  1  0
 18 19  2  0
 19 14  1  0
  1  2  2  0
  2  5  1  0
  5  6  2  0
  6  4  1  0
  4  3  2  0
  3  1  1  0
  7  8  2  0
  8  9  1  0
  9 10  2  0
 10 11  1  0
 11 12  2  0
 12  7  1  0
M  END
$$$$
