No_1687-complexes_sdf/6BKW-FPZ/2024-09-17-14-21-01/
     RDKit          3D

 38 42  0  0  0  0  0  0  0  0999 V2000
   -7.9040    3.9820   27.1177 C   0  0  0  0  0  0  0  0  0  0  0  0
   -9.0711    4.3164   27.0630 C   0  0  0  0  0  0  0  0  0  0  0  0
   -9.5182    5.5541   27.5777 C   0  0  0  0  0  0  0  0  0  0  0  0
   -7.4468    2.6843   26.6499 C   0  0  0  0  0  0  0  0  0  0  0  0
   -8.3856    1.7878   26.2216 C   0  0  0  0  0  0  0  0  0  0  0  0
   -9.6812    2.2328   26.0889 C   0  0  0  0  0  0  0  0  0  0  0  0
  -10.0147    3.4312   26.5259 C   0  0  0  0  0  0  0  0  0  0  0  0
   -7.9132    0.4733   25.8127 C   0  0  0  0  0  0  0  0  0  0  0  0
   -7.9749    0.1125   24.6898 O   0  0  0  0  0  0  0  0  0  0  0  0
   -7.3939   -0.3555   26.7432 O   0  0  0  0  0  0  0  0  0  0  0  0
   -8.6426    6.7121   27.2731 C   0  0  0  0  0  0  0  0  0  0  0  0
   -9.0577    7.7964   26.4556 C   0  0  0  0  0  0  0  0  0  0  0  0
   -7.3143    6.6635   27.8377 C   0  0  0  0  0  0  0  0  0  0  0  0
   -6.5388    7.7387   27.5144 N   0  0  0  0  0  0  0  0  0  0  0  0
   -6.9968    8.7725   26.7899 C   0  0  0  0  0  0  0  0  0  0  0  0
   -8.2542    8.7774   26.3546 N   0  0  0  0  0  0  0  0  0  0  0  0
   -6.9474   -1.5410   26.6131 C   0  0  0  0  0  0  0  0  0  0  0  0
   -6.6277   -2.3734   27.7867 C   0  0  1  0  0  0  0  0  0  0  0  0
   -6.6280   -1.5908   28.9370 C   0  0  0  0  0  0  0  0  0  0  0  0
   -5.5333   -0.6607   29.0478 C   0  0  0  0  0  0  0  0  0  0  0  0
   -5.2979    0.3029   28.3142 C   0  0  0  0  0  0  0  0  0  0  0  0
   -4.1726    1.2189   28.5963 C   0  0  0  0  0  0  0  0  0  0  0  0
   -4.6842   -0.6994   30.2749 C   0  0  0  0  0  0  0  0  0  0  0  0
   -3.6567    0.1427   30.5770 C   0  0  0  0  0  0  0  0  0  0  0  0
   -3.3890    1.1134   29.6907 C   0  0  0  0  0  0  0  0  0  0  0  0
   -2.9597   -0.0036   31.6875 F   0  0  0  0  0  0  0  0  0  0  0  0
   -7.7535   -3.4189   27.8378 C   0  0  2  0  0  0  0  0  0  0  0  0
   -5.3111   -3.0809   27.6013 C   0  0  0  0  0  0  0  0  0  0  0  0
   -7.6920   -4.4372   27.5183 C   0  0  0  0  0  0  0  0  0  0  0  0
   -5.2714   -4.3082   26.9966 C   0  0  0  0  0  0  0  0  0  0  0  0
   -6.4400   -5.1017   27.1307 C   0  0  0  0  0  0  0  0  0  0  0  0
   -9.0828   -2.7903   28.3115 C   0  0  0  0  0  0  0  0  0  0  0  0
  -10.1231   -2.5162   27.7861 C   0  0  0  0  0  0  0  0  0  0  0  0
  -11.2408   -1.9783   28.3520 C   0  0  0  0  0  0  0  0  0  0  0  0
  -12.3212   -1.3495   27.6725 C   0  0  0  0  0  0  0  0  0  0  0  0
  -12.2842   -1.5520   26.2747 C   0  0  0  0  0  0  0  0  0  0  0  0
  -11.2356   -2.1600   25.6430 C   0  0  0  0  0  0  0  0  0  0  0  0
  -10.1513   -2.5842   26.3771 C   0  0  0  0  0  0  0  0  0  0  0  0
  2  3  1  0
  5  8  1  0
  8  9  2  0
  8 10  1  0
  3 11  1  0
 10 17  1  0
 18 17  1  6
 18 19  1  0
 19 20  1  0
 24 26  1  0
 18 27  1  0
 18 28  1  0
 29 31  1  0
 30 31  1  0
 27 32  1  6
 32 33  1  0
 27 29  1  0
 30 28  1  0
 20 21  2  0
 21 22  1  0
 22 25  2  0
 25 24  1  0
 24 23  2  0
 23 20  1  0
 11 12  2  0
 12 16  1  0
 16 15  2  0
 15 14  1  0
 14 13  2  0
 13 11  1  0
 33 34  2  0
 34 35  1  0
 35 36  2  0
 36 37  1  0
 37 38  2  0
 38 33  1  0
  1  2  2  0
  2  7  1  0
  7  6  2  0
  6  5  1  0
  5  4  2  0
  4  1  1  0
M  END
$$$$
