No_1838-complexes_sdf/6BKW-FPZ/2024-09-17-14-21-01/
     RDKit          3D

 16 18  0  0  0  0  0  0  0  0999 V2000
   -7.2496    3.8871   27.4508 C   0  0  0  0  0  0  0  0  0  0  0  0
   -7.9379    4.9063   27.8518 C   0  0  0  0  0  0  0  0  0  0  0  0
   -9.3376    4.8647   27.7795 C   0  0  0  0  0  0  0  0  0  0  0  0
   -7.8544    2.6294   27.0414 C   0  0  0  0  0  0  0  0  0  0  0  0
   -9.2852    2.6570   27.0666 C   0  0  0  0  0  0  0  0  0  0  0  0
  -10.0126    3.7528   27.4890 C   0  0  0  0  0  0  0  0  0  0  0  0
   -9.7790    1.2782   26.6853 C   0  0  0  0  0  0  0  0  0  0  0  0
  -10.9192    0.9052   26.7250 C   0  0  0  0  0  0  0  0  0  0  0  0
  -11.9304    1.7741   27.1292 C   0  0  0  0  0  0  0  0  0  0  0  0
  -11.4686    3.3840   27.5774 C   0  0  0  0  0  0  0  0  0  0  0  0
   -8.7042    0.2874   26.2283 C   0  0  0  0  0  0  0  0  0  0  0  0
   -8.7896   -0.8944   26.6800 C   0  0  0  0  0  0  0  0  0  0  0  0
  -10.1490   -1.4659   26.7349 C   0  0  0  0  0  0  0  0  0  0  0  0
  -11.2858   -0.4998   26.9495 C   0  0  0  0  0  0  0  0  0  0  0  0
  -12.3148    4.3135   26.7179 C   0  0  0  0  0  0  0  0  0  0  0  0
  -11.8091    3.5680   29.1581 C   0  0  0  0  0  0  0  0  0  0  0  0
  5  7  1  0
  6 10  1  0
  9 10  1  0
 10 15  1  0
 10 16  1  0
  8  9  1  0
  1  2  2  0
  2  3  1  0
  3  6  2  0
  6  5  1  0
  5  4  2  0
  4  1  1  0
  7  8  2  0
  8 14  1  0
 14 13  2  0
 13 12  1  0
 12 11  2  0
 11  7  1  0
M  END
$$$$
