No_1118-complexes_sdf/6BKW-FPZ/2024-09-17-14-21-01/
     RDKit          3D

 20 22  0  0  0  0  0  0  0  0999 V2000
   -7.9040    3.9820   27.1177 C   0  0  0  0  0  0  0  0  0  0  0  0
   -9.0711    4.3164   27.0630 C   0  0  0  0  0  0  0  0  0  0  0  0
   -9.8698    3.9665   25.9494 C   0  0  0  0  0  0  0  0  0  0  0  0
   -7.0332    4.5030   28.2025 C   0  0  2  0  0  0  0  0  0  0  0  0
   -9.4357    2.9501   25.1393 C   0  0  0  0  0  0  0  0  0  0  0  0
   -8.2567    2.3218   25.4797 C   0  0  0  0  0  0  0  0  0  0  0  0
   -7.5105    2.7966   26.5752 C   0  0  0  0  0  0  0  0  0  0  0  0
  -10.2472    2.5204   24.0264 C   0  0  1  0  0  0  0  0  0  0  0  0
  -10.5935    3.4337   22.9918 C   0  0  0  0  0  0  0  0  0  0  0  0
  -10.5932    4.7741   23.2841 C   0  0  0  0  0  0  0  0  0  0  0  0
  -10.9097    2.9724   21.6886 C   0  0  0  0  0  0  0  0  0  0  0  0
  -10.8486    1.6259   21.3647 C   0  0  0  0  0  0  0  0  0  0  0  0
  -11.2695    1.1513   20.2076 C   0  0  0  0  0  0  0  0  0  0  0  0
  -11.7105    2.0403   19.2231 C   0  0  0  0  0  0  0  0  0  0  0  0
  -11.3448    3.8920   20.7093 C   0  0  0  0  0  0  0  0  0  0  0  0
  -11.7427    3.4299   19.4773 C   0  0  0  0  0  0  0  0  0  0  0  0
   -6.8266    5.6664   28.5230 N   0  0  0  0  0  0  0  0  0  0  0  0
   -5.9418    3.7321   28.4188 F   0  0  0  0  0  0  0  0  0  0  0  0
  -10.5042    1.1413   23.8711 C   0  0  0  0  0  0  0  0  0  0  0  0
  -10.5717    0.6131   22.4616 C   0  0  0  0  0  0  0  0  0  0  0  0
  1  4  1  0
  8  5  1  6
  8  9  1  0
  9 10  2  0
  9 11  1  0
  4 17  1  6
  4 18  1  0
  8 19  1  0
 12 20  1  0
 19 20  1  0
 11 12  2  0
 12 13  1  0
 13 14  2  0
 14 16  1  0
 16 15  2  0
 15 11  1  0
  1  2  2  0
  2  3  1  0
  3  5  2  0
  5  6  1  0
  6  7  2  0
  7  1  1  0
M  END
$$$$
