No_1704-complexes_sdf/6BKW-FPZ/2024-09-17-14-21-01/
     RDKit          3D

 13 13  0  0  0  0  0  0  0  0999 V2000
   -7.2496    3.8871   27.4508 C   0  0  0  0  0  0  0  0  0  0  0  0
   -7.6161    2.7143   27.1523 C   0  0  0  0  0  0  0  0  0  0  0  0
   -8.8302    2.4659   26.5056 C   0  0  0  0  0  0  0  0  0  0  0  0
   -8.1584    5.0090   27.3234 C   0  0  0  0  0  0  0  0  0  0  0  0
   -9.3788    4.7965   26.7695 C   0  0  0  0  0  0  0  0  0  0  0  0
   -9.7028    3.5649   26.3276 C   0  0  0  0  0  0  0  0  0  0  0  0
   -6.5601    1.6614   27.4277 C   0  0  0  0  0  0  0  0  0  0  0  0
   -5.7530    1.9658   28.2581 F   0  0  0  0  0  0  0  0  0  0  0  0
   -7.2653    0.5549   27.4434 F   0  0  0  0  0  0  0  0  0  0  0  0
   -7.6487    6.5831   27.9018 Cl  0  0  0  0  0  0  0  0  0  0  0  0
  -10.9791    3.3341   25.6322 C   0  0  0  0  0  0  0  0  0  0  0  0
  -11.0907    3.5182   24.2982 C   0  0  0  0  0  0  0  0  0  0  0  0
  -12.3002    3.4116   23.5625 C   0  0  0  0  0  0  0  0  0  0  0  0
  2  7  1  0
  7  8  1  0
  7  9  1  0
  4 10  1  0
  6 11  1  0
 11 12  2  3
 12 13  1  0
  1  2  2  0
  2  3  1  0
  3  6  2  0
  6  5  1  0
  5  4  2  0
  4  1  1  0
M  END
$$$$
