No_1782-complexes_sdf/6BKW-FPZ/2024-09-17-14-21-01/
     RDKit          3D

 21 23  0  0  0  0  0  0  0  0999 V2000
   -7.2496    3.8871   27.4508 C   0  0  0  0  0  0  0  0  0  0  0  0
   -8.5096    4.0291   27.2770 C   0  0  0  0  0  0  0  0  0  0  0  0
   -9.2677    5.1714   27.5773 C   0  0  0  0  0  0  0  0  0  0  0  0
   -9.2765    2.8248   26.8371 C   0  0  0  0  0  0  0  0  0  0  0  0
   -8.6731    1.7312   26.5464 C   0  0  0  0  0  0  0  0  0  0  0  0
   -6.5350    2.6522   27.3724 C   0  0  0  0  0  0  0  0  0  0  0  0
   -7.2308    1.5739   26.9609 C   0  0  0  0  0  0  0  0  0  0  0  0
   -8.5556    6.4044   27.5942 C   0  0  0  0  0  0  0  0  0  0  0  0
  -10.6493    5.1370   27.9320 C   0  0  0  0  0  0  0  0  0  0  0  0
   -6.7328    0.2383   26.7483 C   0  0  0  0  0  0  0  0  0  0  0  0
   -5.2334   -0.0691   27.4972 Cl  0  0  0  0  0  0  0  0  0  0  0  0
   -7.2323   -0.8184   26.0472 C   0  0  0  0  0  0  0  0  0  0  0  0
   -7.2300    6.4368   27.2274 C   0  0  0  0  0  0  0  0  0  0  0  0
   -6.5174    5.2173   27.4263 C   0  0  0  0  0  0  0  0  0  0  0  0
   -8.0158   -1.7084   26.5594 C   0  0  0  0  0  0  0  0  0  0  0  0
   -8.0156   -2.1186   27.6997 C   0  0  0  0  0  0  0  0  0  0  0  0
   -8.5975   -2.6598   28.5575 C   0  0  0  0  0  0  0  0  0  0  0  0
   -8.3169   -2.9351   29.9936 C   0  0  0  0  0  0  0  0  0  0  0  0
   -7.0825   -2.4795   30.4546 C   0  0  0  0  0  0  0  0  0  0  0  0
   -6.2846   -1.8064   29.5950 C   0  0  0  0  0  0  0  0  0  0  0  0
   -6.6689   -1.5256   28.3251 C   0  0  0  0  0  0  0  0  0  0  0  0
  3  9  1  0
  7 10  1  0
 10 11  1  0
 10 12  1  0
 12 15  1  0
 15 16  1  0
  2  3  2  0
  3  8  1  0
  8 13  2  0
 13 14  1  0
 14  1  2  0
  1  2  1  0
  2  4  1  0
  4  5  2  0
  5  7  1  0
  7  6  2  0
  6  1  1  0
 16 17  2  0
 17 18  1  0
 18 19  2  0
 19 20  1  0
 20 21  2  0
 21 16  1  0
M  END
$$$$
