No_1591-complexes_sdf/6BKW-FPZ/2024-09-17-14-21-01/
     RDKit          3D

 14 15  0  0  0  0  0  0  0  0999 V2000
   -7.7129    4.2099   27.0854 C   0  0  0  0  0  0  0  0  0  0  0  0
   -7.7814    5.1722   27.8972 C   0  0  0  0  0  0  0  0  0  0  0  0
   -8.8776    3.8408   26.3416 C   0  0  0  0  0  0  0  0  0  0  0  0
   -8.9136    2.6330   25.5655 C   0  0  0  0  0  0  0  0  0  0  0  0
   -8.8361    6.1389   27.9032 C   0  0  0  0  0  0  0  0  0  0  0  0
  -10.0140    4.6007   26.4589 C   0  0  0  0  0  0  0  0  0  0  0  0
   -9.9695    5.8024   27.1801 C   0  0  0  0  0  0  0  0  0  0  0  0
   -9.7097    1.6769   26.0456 C   0  0  0  0  0  0  0  0  0  0  0  0
  -10.6249    1.5741   26.5713 C   0  0  0  0  0  0  0  0  0  0  0  0
  -11.2864    0.3020   27.1113 C   0  0  0  0  0  0  0  0  0  0  0  0
  -10.5988   -0.8237   26.7684 C   0  0  0  0  0  0  0  0  0  0  0  0
   -9.1712    0.1445   25.8649 C   0  0  0  0  0  0  0  0  0  0  0  0
   -9.5924   -0.9141   26.1861 C   0  0  0  0  0  0  0  0  0  0  0  0
   -8.9168   -2.1826   25.8358 C   0  0  0  0  0  0  0  0  0  0  0  0
  3  4  1  0
  4  8  1  0
  8  9  2  0
  9 10  1  0
 10 11  2  0
  8 12  1  0
 11 12  1  0
 11 13  1  0
 13 14  1  0
  1  2  2  0
  2  5  1  0
  5  7  2  0
  7  6  1  0
  6  3  2  0
  3  1  1  0
M  END
$$$$
