No_1084-complexes_sdf/6BKW-FPZ/2024-09-17-14-21-01/
     RDKit          3D

 13 14  0  0  0  0  0  0  0  0999 V2000
   -7.2496    3.8871   27.4508 C   0  0  0  0  0  0  0  0  0  0  0  0
   -7.6161    2.7143   27.1523 C   0  0  0  0  0  0  0  0  0  0  0  0
   -6.9719    1.5838   27.5324 C   0  0  0  0  0  0  0  0  0  0  0  0
   -7.4590    0.2827   27.2615 C   0  0  0  0  0  0  0  0  0  0  0  0
   -8.8629    2.3938   26.5063 C   0  0  0  0  0  0  0  0  0  0  0  0
   -9.6872    3.5591   26.1479 C   0  0  0  0  0  0  0  0  0  0  0  0
   -8.0796    5.0775   27.2134 C   0  0  0  0  0  0  0  0  0  0  0  0
   -9.2741    4.8765   26.5280 C   0  0  0  0  0  0  0  0  0  0  0  0
   -8.6815    0.1313   26.6786 C   0  0  0  0  0  0  0  0  0  0  0  0
   -9.4013    1.2240   26.2605 C   0  0  0  0  0  0  0  0  0  0  0  0
   -7.4645    6.2341   27.5328 N   0  0  0  0  0  0  0  0  0  0  0  0
  -10.7924    3.5069   25.2604 C   0  0  0  0  0  0  0  0  0  0  0  0
  -12.0535    3.3037   25.8217 C   0  0  0  0  0  0  0  0  0  0  0  0
  7 11  1  0
  6 12  1  0
 12 13  1  0
  2  3  1  0
  3  4  2  0
  4  9  1  0
  9 10  2  0
 10  5  1  0
  1  2  2  0
  2  5  1  0
  5  6  2  0
  6  8  1  0
  8  7  2  0
  7  1  1  0
M  END
$$$$
