No_1081-complexes_sdf/6BKW-FPZ/2024-09-17-14-21-01/
     RDKit          3D

 19 21  0  0  0  0  0  0  0  0999 V2000
   -7.7129    4.2099   27.0854 C   0  0  0  0  0  0  0  0  0  0  0  0
   -8.9133    4.4736   27.0998 C   0  0  0  0  0  0  0  0  0  0  0  0
   -9.8363    3.8127   27.2418 C   0  0  0  0  0  0  0  0  0  0  0  0
   -7.3328    2.8873   27.3965 C   0  0  0  0  0  0  0  0  0  0  0  0
   -9.6579    2.3869   27.5492 C   0  0  0  0  0  0  0  0  0  0  0  0
   -8.3391    1.9932   27.6172 C   0  0  0  0  0  0  0  0  0  0  0  0
  -10.7505    1.4147   27.7901 C   0  0  0  0  0  0  0  0  0  0  0  0
  -10.5859    0.2092   27.7571 N   0  0  0  0  0  0  0  0  0  0  0  0
   -9.5286   -0.3599   27.3655 C   0  0  0  0  0  0  0  0  0  0  0  0
   -8.2003    0.4735   27.4987 C   0  0  0  0  0  0  0  0  0  0  0  0
   -9.1578    6.0714   26.8686 C   0  0  0  0  0  0  0  0  0  0  0  0
  -11.7385   -0.7138   28.0322 C   0  0  0  0  0  0  0  0  0  0  0  0
   -8.4794    6.7884   25.8257 C   0  0  0  0  0  0  0  0  0  0  0  0
  -11.9134    2.0304   27.9734 O   0  0  0  0  0  0  0  0  0  0  0  0
  -11.4641   -1.6957   28.6372 C   0  0  0  0  0  0  0  0  0  0  0  0
  -12.4659   -2.3862   29.3073 C   0  0  0  0  0  0  0  0  0  0  0  0
  -13.7881   -1.9694   29.1658 C   0  0  0  0  0  0  0  0  0  0  0  0
  -14.0386   -0.8008   28.5089 C   0  0  0  0  0  0  0  0  0  0  0  0
  -12.9610   -0.0817   28.0356 C   0  0  0  0  0  0  0  0  0  0  0  0
  5  7  1  0
  7  8  1  0
  8  9  1  0
  6 10  1  0
  2 11  1  0
  8 12  1  0
 11 13  1  0
  7 14  2  0
 10  9  1  0
  1  2  2  0
  2  3  1  0
  3  5  2  0
  5  6  1  0
  6  4  2  0
  4  1  1  0
 12 15  2  0
 15 16  1  0
 16 17  2  0
 17 18  1  0
 18 19  2  0
 19 12  1  0
M  END
$$$$
