No_1250-complexes_sdf/6BKW-FPZ/2024-09-17-14-21-01/
     RDKit          3D

 14 15  0  0  0  0  0  0  0  0999 V2000
   -7.2496    3.8871   27.4508 C   0  0  0  0  0  0  0  0  0  0  0  0
   -7.6161    2.7143   27.1523 C   0  0  0  0  0  0  0  0  0  0  0  0
   -6.9719    1.5838   27.5324 C   0  0  0  0  0  0  0  0  0  0  0  0
   -7.4590    0.2827   27.2615 C   0  0  0  0  0  0  0  0  0  0  0  0
   -8.7521    2.5117   26.3068 C   0  0  0  0  0  0  0  0  0  0  0  0
   -9.5643    3.6334   25.9825 C   0  0  0  0  0  0  0  0  0  0  0  0
   -8.0192    5.0864   27.1972 C   0  0  0  0  0  0  0  0  0  0  0  0
   -9.1214    4.9754   26.3814 C   0  0  0  0  0  0  0  0  0  0  0  0
   -6.7309   -0.8329   27.6786 C   0  0  0  0  0  0  0  0  0  0  0  0
   -5.4744   -0.6201   28.2756 C   0  0  0  0  0  0  0  0  0  0  0  0
   -4.9144    0.6245   28.4369 C   0  0  0  0  0  0  0  0  0  0  0  0
   -5.6275    1.6603   28.0890 C   0  0  0  0  0  0  0  0  0  0  0  0
   -7.5527    6.6156   27.8127 Cl  0  0  0  0  0  0  0  0  0  0  0  0
   -3.6716    0.7557   29.0325 N   0  0  0  0  0  0  0  0  0  0  0  0
  2  3  1  0
  7 13  1  0
 11 14  1  0
  3  4  2  0
  4  9  1  0
  9 10  2  0
 10 11  1  0
 11 12  2  0
 12  3  1  0
  1  2  2  0
  2  5  1  0
  5  6  2  0
  6  8  1  0
  8  7  2  0
  7  1  1  0
M  END
$$$$
