No_172-complexes_sdf/6BKW-FPZ/2024-09-17-14-21-01/
     RDKit          3D

 39 44  0  0  0  0  0  0  0  0999 V2000
   -7.2496    3.8871   27.4508 C   0  0  0  0  0  0  0  0  0  0  0  0
   -8.5096    4.0291   27.2770 C   0  0  0  0  0  0  0  0  0  0  0  0
   -9.3451    2.8786   26.9046 C   0  0  0  0  0  0  0  0  0  0  0  0
   -6.6065    2.5680   27.5073 C   0  0  0  0  0  0  0  0  0  0  0  0
   -7.3970    1.4834   27.2271 C   0  0  0  0  0  0  0  0  0  0  0  0
   -6.8114    0.1924   27.2947 C   0  0  0  0  0  0  0  0  0  0  0  0
   -8.7355    1.6575   26.9788 C   0  0  0  0  0  0  0  0  0  0  0  0
   -9.1211    5.3943   27.2180 C   0  0  0  0  0  0  0  0  0  0  0  0
  -10.3453    5.4718   27.5935 F   0  0  0  0  0  0  0  0  0  0  0  0
   -9.0084    5.9487   25.9699 F   0  0  0  0  0  0  0  0  0  0  0  0
   -8.3777    6.3271   27.9497 F   0  0  0  0  0  0  0  0  0  0  0  0
   -5.5090    0.0742   27.8081 C   0  0  0  0  0  0  0  0  0  0  0  0
   -4.8091   -1.1709   27.8870 C   0  0  0  0  0  0  0  0  0  0  0  0
   -5.4143   -2.2083   27.2496 C   0  0  0  0  0  0  0  0  0  0  0  0
   -7.2369   -0.9683   26.7594 C   0  0  0  0  0  0  0  0  0  0  0  0
   -6.6388   -2.1466   26.7298 C   0  0  0  0  0  0  0  0  0  0  0  0
   -3.4798   -1.1978   28.5545 C   0  0  0  0  0  0  0  0  0  0  0  0
   -3.2510   -0.3115   29.6047 C   0  0  0  0  0  0  0  0  0  0  0  0
   -3.9356    0.9660   29.5797 C   0  0  0  0  0  0  0  0  0  0  0  0
   -5.0538    1.0648   28.8588 C   0  0  0  0  0  0  0  0  0  0  0  0
   -2.6311   -2.3097   28.4055 C   0  0  0  0  0  0  0  0  0  0  0  0
   -1.5050   -2.1469   28.1807 N   0  0  0  0  0  0  0  0  0  0  0  0
   -1.0049   -0.9413   28.2558 C   0  0  0  0  0  0  0  0  0  0  0  0
   -0.5860   -3.2593   27.9281 C   0  0  0  0  0  0  0  0  0  0  0  0
   -3.1076   -3.3675   28.8449 O   0  0  0  0  0  0  0  0  0  0  0  0
   -9.6402    0.5334   26.6349 C   0  0  2  0  0  0  0  0  0  0  0  0
   -8.8915   -0.7988   26.4657 C   0  0  0  0  0  0  0  0  0  0  0  0
  -10.4728    0.6920   25.4199 C   0  0  0  0  0  0  0  0  0  0  0  0
  -10.5410    0.2836   27.9046 C   0  0  0  0  0  0  0  0  0  0  0  0
  -11.6160    1.0252   25.5117 C   0  0  0  0  0  0  0  0  0  0  0  0
  -11.6445   -0.1060   27.8286 C   0  0  1  0  0  0  0  0  0  0  0  0
  -12.4525   -0.3916   29.0548 C   0  0  0  0  0  0  0  0  0  0  0  0
  -12.3976    0.4544   26.6937 C   0  0  0  0  0  0  0  0  0  0  0  0
   -9.3992   -1.8587   26.0119 O   0  0  0  0  0  0  0  0  0  0  0  0
  -13.5780   -0.4477   29.3966 C   0  0  0  0  0  0  0  0  0  0  0  0
  -14.1234   -0.9293   30.6044 C   0  0  0  0  0  0  0  0  0  0  0  0
  -13.3173   -1.7402   31.3611 C   0  0  0  0  0  0  0  0  0  0  0  0
  -11.9832   -1.9649   30.9930 C   0  0  0  0  0  0  0  0  0  0  0  0
  -11.4857   -1.4110   29.8563 C   0  0  0  0  0  0  0  0  0  0  0  0
  5  6  1  0
  2  8  1  0
  8  9  1  0
  8 10  1  0
  8 11  1  0
 17 21  1  0
 21 22  1  0
 22 23  1  0
 22 24  1  0
 21 25  2  0
  7 26  1  0
 15 27  1  0
 26 27  1  0
 26 28  1  6
 26 29  1  0
 31 32  1  1
 30 33  1  0
 31 33  1  0
 27 34  2  0
 28 30  1  0
 31 29  1  0
  6 12  2  0
 13 14  2  0
 14 16  1  0
 16 15  2  0
 15  6  1  0
 12 13  1  0
 13 17  1  0
 17 18  2  0
 18 19  1  0
 19 20  2  0
 20 12  1  0
  1  2  2  0
  2  3  1  0
  3  7  2  0
  7  5  1  0
  5  4  2  0
  4  1  1  0
 32 35  2  0
 35 36  1  0
 36 37  2  0
 37 38  1  0
 38 39  2  0
 39 32  1  0
M  END
$$$$
