No_101-complexes_sdf/6BKW-FPZ/2024-09-17-14-21-01/
     RDKit          3D

 21 22  0  0  0  0  0  0  0  0999 V2000
   -7.2496    3.8871   27.4508 C   0  0  0  0  0  0  0  0  0  0  0  0
   -7.9379    4.9063   27.8518 C   0  0  0  0  0  0  0  0  0  0  0  0
   -7.4895    6.2027   27.7481 C   0  0  0  0  0  0  0  0  0  0  0  0
   -7.8057    2.6324   27.3137 C   0  0  0  0  0  0  0  0  0  0  0  0
   -9.1872    2.4678   27.5434 C   0  0  0  0  0  0  0  0  0  0  0  0
   -9.8341    3.4859   27.6987 C   0  0  0  0  0  0  0  0  0  0  0  0
   -9.3965    4.8102   27.9339 C   0  0  0  0  0  0  0  0  0  0  0  0
  -11.4143    3.4943   27.9982 C   0  0  0  0  0  0  0  0  0  0  0  0
  -11.7442    2.6536   28.9888 C   0  0  0  0  0  0  0  0  0  0  0  0
  -13.0929    2.5882   29.4595 C   0  0  0  0  0  0  0  0  0  0  0  0
  -14.0186    3.3880   28.8123 C   0  0  0  0  0  0  0  0  0  0  0  0
  -12.2815    4.3769   27.4345 C   0  0  0  0  0  0  0  0  0  0  0  0
  -13.5931    4.3683   27.8604 C   0  0  0  0  0  0  0  0  0  0  0  0
   -6.9790    1.4104   27.0386 C   0  0  0  0  0  0  0  0  0  0  0  0
   -7.2656    0.7979   26.0577 F   0  0  0  0  0  0  0  0  0  0  0  0
   -6.0322    1.1072   27.7509 F   0  0  0  0  0  0  0  0  0  0  0  0
   -7.5256    7.3160   27.1011 N   0  0  0  0  0  0  0  0  0  0  0  0
   -8.5336    7.2925   26.1741 C   0  0  0  0  0  0  0  0  0  0  0  0
  -15.4156    3.4389   29.2507 C   0  0  0  0  0  0  0  0  0  0  0  0
  -16.2645    3.8286   28.6595 C   0  0  0  0  0  0  0  0  0  0  0  0
  -15.9806    4.4669   27.3348 C   0  0  0  0  0  0  0  0  0  0  0  0
  2  3  1  0
  6  8  1  0
  4 14  1  0
 14 15  1  0
 14 16  1  0
  3 17  2  3
 17 18  1  0
 11 19  1  0
 19 20  2  3
 20 21  1  0
  1  2  2  0
  2  7  1  0
  7  6  2  0
  6  5  1  0
  5  4  2  0
  4  1  1  0
  8  9  2  0
  9 10  1  0
 10 11  2  0
 11 13  1  0
 13 12  2  0
 12  8  1  0
M  END
$$$$
