No_1680-complexes_sdf/6BKW-FPZ/2024-09-17-14-21-01/
     RDKit          3D

 29 32  0  0  0  0  0  0  0  0999 V2000
   -7.9040    3.9820   27.1177 C   0  0  0  0  0  0  0  0  0  0  0  0
   -7.8663    4.8694   27.9238 C   0  0  0  0  0  0  0  0  0  0  0  0
   -9.0491    3.8523   26.2542 C   0  0  0  0  0  0  0  0  0  0  0  0
   -8.7661    5.9491   27.9690 C   0  0  0  0  0  0  0  0  0  0  0  0
   -9.9295    4.8502   26.2323 C   0  0  0  0  0  0  0  0  0  0  0  0
   -9.8077    5.9288   27.0933 C   0  0  0  0  0  0  0  0  0  0  0  0
   -6.8002    2.6256   27.2024 Cl  0  0  0  0  0  0  0  0  0  0  0  0
   -9.1191    2.6984   25.2948 C   0  0  1  0  0  0  0  0  0  0  0  0
   -8.8971    1.4743   25.7014 C   0  0  0  0  0  0  0  0  0  0  0  0
   -9.6266    2.9744   24.0067 C   0  0  0  0  0  0  0  0  0  0  0  0
   -9.0706    0.4542   24.8403 N   0  0  0  0  0  0  0  0  0  0  0  0
   -9.8550    1.9131   23.1649 C   0  0  0  0  0  0  0  0  0  0  0  0
   -9.4908    0.6355   23.6100 C   0  0  0  0  0  0  0  0  0  0  0  0
   -8.6617   -0.8593   25.3720 C   0  0  0  0  0  0  0  0  0  0  0  0
   -9.0861   -1.0379   26.6085 C   0  0  0  0  0  0  0  0  0  0  0  0
   -8.0504   -1.5473   27.4836 C   0  0  0  0  0  0  0  0  0  0  0  0
   -6.8059   -1.5312   27.1749 C   0  0  0  0  0  0  0  0  0  0  0  0
   -6.4308   -1.3151   25.8307 C   0  0  0  0  0  0  0  0  0  0  0  0
   -7.4394   -1.2890   24.7444 C   0  0  0  0  0  0  0  0  0  0  0  0
   -9.5012   -0.3200   22.8354 O   0  0  0  0  0  0  0  0  0  0  0  0
  -10.4305   -0.9045   27.0199 C   0  0  0  0  0  0  0  0  0  0  0  0
  -10.8883   -1.2532   28.1816 C   0  0  0  0  0  0  0  0  0  0  0  0
  -12.2010   -1.0446   28.5550 C   0  0  0  0  0  0  0  0  0  0  0  0
  -13.0682   -0.4035   27.7188 C   0  0  0  0  0  0  0  0  0  0  0  0
  -12.6185   -0.0297   26.4490 C   0  0  0  0  0  0  0  0  0  0  0  0
  -11.3052   -0.2481   26.1447 C   0  0  0  0  0  0  0  0  0  0  0  0
  -13.5810    0.6352   25.5355 C   0  0  0  0  0  0  0  0  0  0  0  0
  -13.7314    0.1459   24.3254 C   0  0  0  0  0  0  0  0  0  0  0  0
  -14.5769    0.7923   23.3919 C   0  0  0  0  0  0  0  0  0  0  0  0
  1  7  1  0
  8  3  1  1
  8  9  1  0
  8 10  1  0
  9 11  1  0
 11 13  1  0
 12 13  1  0
 11 14  1  0
 13 20  2  0
 15 21  1  0
 25 27  1  0
 27 28  2  3
 28 29  1  0
 10 12  1  0
 21 22  2  0
 22 23  1  0
 23 24  2  0
 24 25  1  0
 25 26  2  0
 26 21  1  0
  1  2  2  0
  2  4  1  0
  4  6  2  0
  6  5  1  0
  5  3  2  0
  3  1  1  0
 14 15  1  0
 15 16  2  0
 16 17  1  0
 17 18  2  0
 18 19  1  0
 19 14  2  0
M  END
$$$$
