No_1072-complexes_sdf/6BKW-FPZ/2024-09-17-14-21-01/
     RDKit          3D

 40 44  0  0  0  0  0  0  0  0999 V2000
   -7.7129    4.2099   27.0854 C   0  0  0  0  0  0  0  0  0  0  0  0
   -8.2112    3.0637   26.9225 C   0  0  0  0  0  0  0  0  0  0  0  0
   -7.5138    1.9223   27.4249 C   0  0  0  0  0  0  0  0  0  0  0  0
   -8.5309    5.4147   26.8151 C   0  0  0  0  0  0  0  0  0  0  0  0
   -9.6817    5.2393   26.1100 C   0  0  0  0  0  0  0  0  0  0  0  0
  -10.1032    3.9957   25.8534 C   0  0  0  0  0  0  0  0  0  0  0  0
   -9.4035    2.8430   26.2573 C   0  0  0  0  0  0  0  0  0  0  0  0
   -6.8643    1.0176   26.6720 C   0  0  0  0  0  0  0  0  0  0  0  0
   -6.1576   -0.0542   27.2672 C   0  0  0  0  0  0  0  0  0  0  0  0
   -5.1482   -0.2456   27.2628 C   0  0  0  0  0  0  0  0  0  0  0  0
   -4.3958   -1.3077   27.9936 C   0  0  0  0  0  0  0  0  0  0  0  0
   -5.1632   -2.1461   28.7742 C   0  0  0  0  0  0  0  0  0  0  0  0
   -6.7696   -1.0454   28.3217 C   0  0  0  0  0  0  0  0  0  0  0  0
   -6.3718   -1.9422   28.9411 C   0  0  0  0  0  0  0  0  0  0  0  0
   -7.9833    6.7674   27.0490 C   0  0  0  0  0  0  0  0  0  0  0  0
   -8.1826    7.8175   26.8242 N   0  0  0  0  0  0  0  0  0  0  0  0
   -6.9407    6.5938   28.0417 O   0  0  0  0  0  0  0  0  0  0  0  0
   -7.2404   -2.7829   29.8117 C   0  0  0  0  0  0  0  0  0  0  0  0
   -7.4759   -3.9356   29.6564 N   0  0  0  0  0  0  0  0  0  0  0  0
   -8.2696   -4.6745   30.2635 C   0  0  0  0  0  0  0  0  0  0  0  0
   -9.2320   -4.2600   30.8555 C   0  0  0  0  0  0  0  0  0  0  0  0
   -9.2324   -2.7811   31.2125 C   0  0  0  0  0  0  0  0  0  0  0  0
   -8.2869   -2.0202   30.6421 C   0  0  0  0  0  0  0  0  0  0  0  0
   -2.8676   -1.4922   27.8730 C   0  0  0  0  0  0  0  0  0  0  0  0
   -2.1270   -0.8398   28.4102 C   0  0  0  0  0  0  0  0  0  0  0  0
   -2.5318    0.2186   29.4223 C   0  0  0  0  0  0  0  0  0  0  0  0
   -0.6260   -0.8588   28.2774 C   0  0  0  0  0  0  0  0  0  0  0  0
  -11.3943    3.8438   25.1022 C   0  0  0  0  0  0  0  0  0  0  0  0
  -11.5678    2.7989   24.5826 C   0  0  0  0  0  0  0  0  0  0  0  0
  -10.7980    1.7040   24.6491 C   0  0  0  0  0  0  0  0  0  0  0  0
   -9.6764    1.6772   25.5291 C   0  0  0  0  0  0  0  0  0  0  0  0
   -8.2930   -6.3914   29.9135 Cl  0  0  0  0  0  0  0  0  0  0  0  0
  -11.1976    0.3282   24.0954 C   0  0  0  0  0  0  0  0  0  0  0  0
  -11.4324    0.3190   22.8730 C   0  0  0  0  0  0  0  0  0  0  0  0
  -11.8364   -0.9380   22.2006 C   0  0  0  0  0  0  0  0  0  0  0  0
  -11.8392   -2.0537   22.9650 C   0  0  0  0  0  0  0  0  0  0  0  0
  -11.5408   -2.0194   24.2844 C   0  0  0  0  0  0  0  0  0  0  0  0
  -11.1642   -0.8204   24.9299 C   0  0  0  0  0  0  0  0  0  0  0  0
   -2.5653   -2.4319   26.8151 C   0  0  0  0  0  0  0  0  0  0  0  0
   -2.6916   -2.0369   25.4844 C   0  0  0  0  0  0  0  0  0  0  0  0
  2  3  1  0
  3  8  2  3
  8  9  1  0
  4 15  1  0
 15 16  1  0
 15 17  2  0
 14 18  1  0
 11 24  1  0
 24 25  2  3
 25 26  1  0
 25 27  1  0
 20 32  1  0
 30 33  1  0
 24 39  1  0
 39 40  1  0
 18 19  2  0
 19 20  1  0
 20 21  2  0
 21 22  1  0
 22 23  2  0
 23 18  1  0
 33 34  2  0
 34 35  1  0
 35 36  2  0
 36 37  1  0
 37 38  2  0
 38 33  1  0
  1  2  2  0
  2  7  1  0
  6  5  1  0
  5  4  2  0
  4  1  1  0
  6  7  2  0
  7 31  1  0
 31 30  2  0
 30 29  1  0
 29 28  2  0
 28  6  1  0
  9 10  2  0
 10 11  1  0
 11 12  2  0
 12 14  1  0
 14 13  2  0
 13  9  1  0
M  END
$$$$
