No_1727-complexes_sdf/6BKW-FPZ/2024-09-17-14-21-01/
     RDKit          3D

 26 31  0  0  0  0  0  0  0  0999 V2000
   -7.9040    3.9820   27.1177 C   0  0  0  0  0  0  0  0  0  0  0  0
   -8.2057    2.8231   26.8733 C   0  0  0  0  0  0  0  0  0  0  0  0
   -9.2962    2.4021   26.1155 C   0  0  0  0  0  0  0  0  0  0  0  0
   -8.8403    4.9695   26.9329 C   0  0  0  0  0  0  0  0  0  0  0  0
   -9.9203    4.6961   26.0942 C   0  0  0  0  0  0  0  0  0  0  0  0
  -10.1704    3.4287   25.7979 C   0  0  0  0  0  0  0  0  0  0  0  0
   -8.4818    6.4135   27.2143 C   0  0  0  0  0  0  0  0  0  0  0  0
   -8.0957    6.5736   28.3552 F   0  0  0  0  0  0  0  0  0  0  0  0
   -8.8792    7.3545   26.5506 F   0  0  0  0  0  0  0  0  0  0  0  0
   -7.2173    1.6567   27.2504 C   0  0  1  0  0  0  0  0  0  0  0  0
   -7.4490    0.3993   26.9750 N   0  0  0  0  0  0  0  0  0  0  0  0
   -6.6931   -0.5643   27.4095 C   0  0  0  0  0  0  0  0  0  0  0  0
   -7.1104   -1.8821   27.3169 C   0  0  0  0  0  0  0  0  0  0  0  0
   -5.3854   -0.2540   28.0387 C   0  0  0  0  0  0  0  0  0  0  0  0
   -5.0423    1.1178   28.1911 C   0  0  0  0  0  0  0  0  0  0  0  0
   -5.9350    2.0897   27.8544 C   0  0  0  0  0  0  0  0  0  0  0  0
   -8.0800   -2.1572   26.7315 C   0  0  0  0  0  0  0  0  0  0  0  0
   -8.6815   -3.4804   26.5720 C   0  0  0  0  0  0  0  0  0  0  0  0
   -9.8919   -3.7101   25.8805 C   0  0  0  0  0  0  0  0  0  0  0  0
  -10.5273   -2.6422   25.2901 C   0  0  0  0  0  0  0  0  0  0  0  0
  -10.0406   -1.3635   25.3722 C   0  0  0  0  0  0  0  0  0  0  0  0
   -8.9318   -1.0775   26.0537 C   0  0  0  0  0  0  0  0  0  0  0  0
   -8.4449    0.2038   26.2752 C   0  0  1  0  0  0  0  0  0  0  0  0
   -9.4609    1.0582   25.8519 C   0  0  0  0  0  0  0  0  0  0  0  0
  -10.5859    0.4687   25.1659 C   0  0  2  0  0  0  0  0  0  0  0  0
  -11.9304    0.5822   25.7440 C   0  0  0  0  0  0  0  0  0  0  0  0
  4  7  1  0
  7  8  1  0
  7  9  1  0
  2 10  1  0
 10 11  1  0
 11 12  1  0
 12 14  1  0
 10 16  1  6
 15 16  1  0
 13 17  1  0
 11 23  1  0
 22 23  1  0
  3 24  1  0
 23 24  1  1
 21 25  1  0
 24 25  1  0
 25 26  1  1
 12 13  1  0
 15 14  1  0
  1  2  2  0
  2  3  1  0
  3  6  2  0
  6  5  1  0
  5  4  2  0
  4  1  1  0
 17 18  2  0
 18 19  1  0
 19 20  2  0
 20 21  1  0
 21 22  2  0
 22 17  1  0
M  END
$$$$
