No_1851-complexes_sdf/6BKW-FPZ/2024-09-17-14-21-01/
     RDKit          3D

 12 13  0  0  0  0  0  0  0  0999 V2000
   -7.9040    3.9820   27.1177 C   0  0  0  0  0  0  0  0  0  0  0  0
   -8.2057    2.8231   26.8733 C   0  0  0  0  0  0  0  0  0  0  0  0
   -8.7695    5.0740   26.7916 C   0  0  0  0  0  0  0  0  0  0  0  0
   -9.9618    4.7598   26.1630 C   0  0  0  0  0  0  0  0  0  0  0  0
   -7.3763    1.7038   27.3414 C   0  0  0  0  0  0  0  0  0  0  0  0
   -9.3929    2.3436   26.2895 C   0  0  0  0  0  0  0  0  0  0  0  0
  -10.2635    3.4175   25.9130 C   0  0  0  0  0  0  0  0  0  0  0  0
   -6.0761    1.9658   27.8823 C   0  0  0  0  0  0  0  0  0  0  0  0
   -7.8413    0.3620   27.4438 C   0  0  0  0  0  0  0  0  0  0  0  0
   -5.1933    0.9139   28.2615 C   0  0  0  0  0  0  0  0  0  0  0  0
   -5.6538   -0.3704   28.3526 C   0  0  0  0  0  0  0  0  0  0  0  0
   -6.9615   -0.6051   27.9598 C   0  0  0  0  0  0  0  0  0  0  0  0
  2  5  1  0
  1  2  2  0
  2  6  1  0
  6  7  2  0
  7  4  1  0
  4  3  2  0
  3  1  1  0
  5  8  2  0
  8 10  1  0
 10 11  2  0
 11 12  1  0
 12  9  2  0
  9  5  1  0
M  END
$$$$
