No_1061-complexes_sdf/6BKW-FPZ/2024-09-17-14-21-01/
     RDKit          3D

 23 26  0  0  0  0  0  0  0  0999 V2000
   -7.9040    3.9820   27.1177 C   0  0  0  0  0  0  0  0  0  0  0  0
   -9.0711    4.3164   27.0630 C   0  0  0  0  0  0  0  0  0  0  0  0
   -9.9692    3.7224   26.1073 C   0  0  0  0  0  0  0  0  0  0  0  0
   -6.9787    4.6761   28.1003 C   0  0  0  0  0  0  0  0  0  0  0  0
   -9.4538    2.6801   25.3673 C   0  0  0  0  0  0  0  0  0  0  0  0
   -8.1927    2.1957   25.6621 C   0  0  2  0  0  0  0  0  0  0  0  0
   -7.4333    2.8255   26.6299 C   0  0  0  0  0  0  0  0  0  0  0  0
  -10.3066    1.9975   24.3777 C   0  0  0  0  0  0  0  0  0  0  0  0
   -9.7680    1.0924   23.6436 C   0  0  0  0  0  0  0  0  0  0  0  0
  -10.4827    0.4966   22.5627 C   0  0  0  0  0  0  0  0  0  0  0  0
   -9.8970   -0.5494   21.7775 C   0  0  0  0  0  0  0  0  0  0  0  0
   -8.5670   -0.9306   22.0352 C   0  0  0  0  0  0  0  0  0  0  0  0
   -7.8292   -0.3649   23.0017 C   0  0  0  0  0  0  0  0  0  0  0  0
   -8.3332    0.5788   23.7777 C   0  0  2  0  0  0  0  0  0  0  0  0
   -7.6736    1.1863   24.9001 N   0  0  0  0  0  0  0  0  0  0  0  0
   -7.4775    5.8319   28.6633 N   0  0  0  0  0  0  0  0  0  0  0  0
   -5.8231    4.3137   28.2860 O   0  0  0  0  0  0  0  0  0  0  0  0
  -11.5961    2.5527   24.0912 C   0  0  0  0  0  0  0  0  0  0  0  0
  -12.2323    3.4761   24.9476 C   0  0  0  0  0  0  0  0  0  0  0  0
  -11.3584    4.1834   25.9260 C   0  0  0  0  0  0  0  0  0  0  0  0
   -6.4583   -0.8551   23.2741 C   0  0  0  0  0  0  0  0  0  0  0  0
   -6.0523   -1.8305   22.6315 O   0  0  0  0  0  0  0  0  0  0  0  0
   -5.7058   -0.3471   24.1825 O   0  0  0  0  0  0  0  0  0  0  0  0
  1  2  2  0
  2  3  1  0
  1  4  1  0
  3  5  2  0
  5  6  1  0
  1  7  1  0
  6  7  1  6
  5  8  1  0
  8  9  2  0
  9 10  1  0
 10 11  2  0
 11 12  1  0
 12 13  2  0
  9 14  1  0
 13 14  1  0
  6 15  1  0
 14 15  1  1
  4 16  1  0
  4 17  2  0
  8 18  1  0
 18 19  2  0
  3 20  1  0
 19 20  1  0
 13 21  1  0
 21 22  2  0
 21 23  1  0
M  END
$$$$
