No_165-complexes_sdf/6BKW-FPZ/2024-09-17-14-21-01/
     RDKit          3D

 18 19  0  0  0  0  0  0  0  0999 V2000
   -7.2496    3.8871   27.4508 C   0  0  0  0  0  0  0  0  0  0  0  0
   -8.5096    4.0291   27.2770 C   0  0  0  0  0  0  0  0  0  0  0  0
   -9.2669    5.1645   27.5845 C   0  0  0  0  0  0  0  0  0  0  0  0
   -8.4566    6.3212   27.8001 C   0  0  0  0  0  0  0  0  0  0  0  0
   -6.5590    2.5934   27.2169 C   0  0  0  0  0  0  0  0  0  0  0  0
   -7.3469    1.4814   27.0290 C   0  0  0  0  0  0  0  0  0  0  0  0
   -6.6938    0.2885   26.9083 C   0  0  0  0  0  0  0  0  0  0  0  0
   -8.7201    1.7715   26.9263 C   0  0  0  0  0  0  0  0  0  0  0  0
   -9.3473    2.8751   27.1197 C   0  0  0  0  0  0  0  0  0  0  0  0
   -5.6402    0.0416   27.5060 O   0  0  0  0  0  0  0  0  0  0  0  0
   -7.2337   -0.7150   26.1427 N   0  0  0  0  0  0  0  0  0  0  0  0
  -10.6372    5.2622   27.7111 C   0  0  0  0  0  0  0  0  0  0  0  0
   -6.7109   -1.6968   25.8015 C   0  0  2  0  0  0  0  0  0  0  0  0
   -7.1301    6.3498   27.4286 C   0  0  0  0  0  0  0  0  0  0  0  0
   -6.4631    5.0691   27.5010 C   0  0  0  0  0  0  0  0  0  0  0  0
   -5.8185   -2.2321   25.7522 C   0  0  0  0  0  0  0  0  0  0  0  0
   -7.8086   -2.4994   24.8088 C   0  0  0  0  0  0  0  0  0  0  0  0
   -4.6941   -1.6510   26.5578 C   0  0  0  0  0  0  0  0  0  0  0  0
  6  7  1  0
  7 10  2  0
  7 11  1  0
  3 12  1  0
 11 13  1  0
 13 16  1  0
 13 17  1  6
 16 18  1  0
  2  3  2  0
  3  4  1  0
  4 14  2  0
 14 15  1  0
 15  1  2  0
  1  2  1  0
  2  9  1  0
  9  8  2  0
  8  6  1  0
  6  5  2  0
  5  1  1  0
M  END
$$$$
