No_1028-complexes_sdf/6BKW-FPZ/2024-09-17-14-21-01/
     RDKit          3D

 13 13  0  0  0  0  0  0  0  0999 V2000
   -7.2496    3.8871   27.4508 C   0  0  0  0  0  0  0  0  0  0  0  0
   -8.5096    4.0291   27.2770 C   0  0  0  0  0  0  0  0  0  0  0  0
   -9.3451    2.8786   26.9046 C   0  0  0  0  0  0  0  0  0  0  0  0
   -6.6065    2.5680   27.5073 C   0  0  0  0  0  0  0  0  0  0  0  0
   -7.4233    1.4858   27.2402 C   0  0  0  0  0  0  0  0  0  0  0  0
   -8.7362    1.6525   26.9989 C   0  0  0  0  0  0  0  0  0  0  0  0
   -9.0996    5.3741   27.2135 C   0  0  0  0  0  0  0  0  0  0  0  0
  -10.3332    5.4271   27.5994 F   0  0  0  0  0  0  0  0  0  0  0  0
   -8.4170    6.2644   28.0587 F   0  0  0  0  0  0  0  0  0  0  0  0
   -8.9890    5.8772   25.9660 F   0  0  0  0  0  0  0  0  0  0  0  0
   -6.7670    0.2029   27.2461 C   0  0  0  0  0  0  0  0  0  0  0  0
   -7.3624   -0.9025   27.1680 C   0  0  0  0  0  0  0  0  0  0  0  0
   -6.7207   -2.1675   27.2018 C   0  0  0  0  0  0  0  0  0  0  0  0
  2  7  1  0
  7  8  1  0
  7  9  1  0
  7 10  1  0
  5 11  1  0
 11 12  2  3
 12 13  1  0
  1  2  2  0
  2  3  1  0
  3  6  2  0
  6  5  1  0
  5  4  2  0
  4  1  1  0
M  END
$$$$
