No_1894-complexes_sdf/6BKW-FPZ/2024-09-17-14-21-01/
     RDKit          3D

 33 36  0  0  0  0  0  0  0  0999 V2000
   -7.9040    3.9820   27.1177 C   0  0  0  0  0  0  0  0  0  0  0  0
   -8.2057    2.8231   26.8733 C   0  0  0  0  0  0  0  0  0  0  0  0
   -9.2962    2.4021   26.1155 C   0  0  0  0  0  0  0  0  0  0  0  0
   -8.7358    5.0662   26.5917 C   0  0  0  0  0  0  0  0  0  0  0  0
   -9.7618    4.7023   25.7546 C   0  0  0  0  0  0  0  0  0  0  0  0
  -10.0066    3.4105   25.4922 C   0  0  0  0  0  0  0  0  0  0  0  0
   -8.3943    6.4760   26.8801 C   0  0  0  0  0  0  0  0  0  0  0  0
   -8.0785    6.8107   28.2034 C   0  0  0  0  0  0  0  0  0  0  0  0
   -8.5617    7.4560   25.8979 C   0  0  0  0  0  0  0  0  0  0  0  0
   -7.3476    1.6633   27.4843 C   0  0  0  0  0  0  0  0  0  0  0  0
   -6.0716    1.9099   27.8365 N   0  0  0  0  0  0  0  0  0  0  0  0
   -5.3113    0.8616   28.2975 C   0  0  0  0  0  0  0  0  0  0  0  0
   -5.7925   -0.3798   28.3283 C   0  0  0  0  0  0  0  0  0  0  0  0
   -7.7032    0.3242   27.4757 C   0  0  0  0  0  0  0  0  0  0  0  0
   -7.0086   -0.6511   27.9557 C   0  0  0  0  0  0  0  0  0  0  0  0
   -4.0714    1.2889   28.7207 F   0  0  0  0  0  0  0  0  0  0  0  0
   -4.8615   -1.4342   28.9529 C   0  0  0  0  0  0  0  0  0  0  0  0
   -5.2915   -2.5378   29.2242 C   0  0  0  0  0  0  0  0  0  0  0  0
   -4.4789   -3.4778   29.8723 C   0  0  0  0  0  0  0  0  0  0  0  0
   -3.1192   -3.1311   30.1840 C   0  0  0  0  0  0  0  0  0  0  0  0
   -2.6792   -1.8365   29.8907 C   0  0  0  0  0  0  0  0  0  0  0  0
   -3.4830   -0.9704   29.3507 C   0  0  0  0  0  0  0  0  0  0  0  0
  -11.0955    3.0943   24.5599 C   0  0  2  0  0  0  0  0  0  0  0  0
  -10.7807    2.6272   23.3537 C   0  0  0  0  0  0  0  0  0  0  0  0
  -11.5967    2.5921   22.2963 C   0  0  0  0  0  0  0  0  0  0  0  0
  -11.1844    2.0754   20.9958 C   0  0  0  0  0  0  0  0  0  0  0  0
   -9.8854    1.4883   20.9075 C   0  0  0  0  0  0  0  0  0  0  0  0
   -9.0747    1.4414   22.0123 C   0  0  0  0  0  0  0  0  0  0  0  0
   -9.4427    1.9620   23.2129 C   0  0  0  0  0  0  0  0  0  0  0  0
  -12.3900    3.4174   24.9068 C   0  0  0  0  0  0  0  0  0  0  0  0
  -12.7805    4.1786   25.7071 C   0  0  0  0  0  0  0  0  0  0  0  0
  -14.1719    4.4526   26.1484 C   0  0  0  0  0  0  0  0  0  0  0  0
  -15.1108    3.9623   25.2932 C   0  0  0  0  0  0  0  0  0  0  0  0
  4  7  1  0
  7  8  1  0
  7  9  1  0
  2 10  1  0
 12 16  1  0
 13 17  1  0
 23  6  1  6
 23 24  1  0
 23 30  1  0
 30 31  2  3
 31 32  1  0
 32 33  2  0
 17 18  2  0
 18 19  1  0
 19 20  2  0
 20 21  1  0
 21 22  2  0
 22 17  1  0
 24 25  2  0
 25 26  1  0
 26 27  2  0
 27 28  1  0
 28 29  2  0
 29 24  1  0
  1  2  2  0
  2  3  1  0
  3  6  2  0
  6  5  1  0
  5  4  2  0
  4  1  1  0
 10 11  2  0
 11 12  1  0
 12 13  2  0
 13 15  1  0
 15 14  2  0
 14 10  1  0
M  END
$$$$
