No_1882-complexes_sdf/6BKW-FPZ/2024-09-17-14-21-01/
     RDKit          3D

 30 34  0  0  0  0  0  0  0  0999 V2000
   -7.9040    3.9820   27.1177 C   0  0  0  0  0  0  0  0  0  0  0  0
   -8.2057    2.8231   26.8733 C   0  0  0  0  0  0  0  0  0  0  0  0
   -7.4766    1.7477   27.4593 C   0  0  0  0  0  0  0  0  0  0  0  0
   -8.7468    5.1251   26.6967 C   0  0  0  0  0  0  0  0  0  0  0  0
   -9.7234    4.8589   25.8202 C   0  0  0  0  0  0  0  0  0  0  0  0
   -9.9711    3.5858   25.4266 C   0  0  0  0  0  0  0  0  0  0  0  0
   -9.2266    2.4957   25.9600 C   0  0  0  0  0  0  0  0  0  0  0  0
   -7.8305    0.3697   27.3235 C   0  0  0  0  0  0  0  0  0  0  0  0
   -8.9837    0.1833   26.4540 C   0  0  0  0  0  0  0  0  0  0  0  0
   -9.6460    1.1855   25.7538 C   0  0  0  0  0  0  0  0  0  0  0  0
   -8.1840    6.4696   27.0982 C   0  0  0  0  0  0  0  0  0  0  0  0
   -9.0154    7.5609   26.9086 N   0  0  0  0  0  0  0  0  0  0  0  0
   -7.0919    6.5473   27.7028 O   0  0  0  0  0  0  0  0  0  0  0  0
   -7.1499   -0.6643   27.9840 C   0  0  0  0  0  0  0  0  0  0  0  0
   -6.2685   -1.3036   27.3897 C   0  0  0  0  0  0  0  0  0  0  0  0
   -5.5500   -1.1186   26.4982 C   0  0  1  0  0  0  0  0  0  0  0  0
   -5.2104    0.0252   26.0210 C   0  0  0  0  0  0  0  0  0  0  0  0
   -4.7260   -2.2793   25.8526 C   0  0  0  0  0  0  0  0  0  0  0  0
   -3.5102   -2.3570   26.1970 C   0  0  0  0  0  0  0  0  0  0  0  0
   -5.3595   -3.0251   24.8377 C   0  0  0  0  0  0  0  0  0  0  0  0
   -4.8543   -4.1236   24.4986 C   0  0  0  0  0  0  0  0  0  0  0  0
   -3.4467   -4.2499   24.5291 C   0  0  0  0  0  0  0  0  0  0  0  0
   -2.7570   -3.5362   25.6482 C   0  0  0  0  0  0  0  0  0  0  0  0
   -6.1619   -2.7599   28.0708 C   0  0  0  0  0  0  0  0  0  0  0  0
   -6.9091   -2.9682   29.1215 C   0  0  0  0  0  0  0  0  0  0  0  0
   -6.6888   -4.1960   29.8327 C   0  0  0  0  0  0  0  0  0  0  0  0
   -5.7943   -5.0939   29.3339 C   0  0  0  0  0  0  0  0  0  0  0  0
   -5.0551   -4.8629   28.2383 C   0  0  0  0  0  0  0  0  0  0  0  0
   -5.2076   -3.6680   27.6802 C   0  0  0  0  0  0  0  0  0  0  0  0
   -4.4438   -3.6459   26.8390 O   0  0  0  0  0  0  0  0  0  0  0  0
  4 11  1  0
 11 12  1  0
 11 13  2  0
  8 14  1  0
 14 15  1  0
 15 16  1  0
 16 17  1  1
 16 18  1  0
 15 24  1  0
 19 30  1  0
 29 30  1  0
 24 25  2  0
 25 26  1  0
 26 27  2  0
 27 28  1  0
 28 29  2  0
 29 24  1  0
  1  2  2  0
  7  6  2  0
  6  5  1  0
  5  4  2  0
  4  1  1  0
 18 19  2  0
 19 23  1  0
 23 22  2  0
 22 21  1  0
 21 20  2  0
 20 18  1  0
  2  3  1  0
  3  8  2  0
  8  9  1  0
  9 10  2  0
 10  7  1  0
  7  2  1  0
M  END
$$$$
