No_1763-complexes_sdf/6BKW-FPZ/2024-09-17-14-21-01/
     RDKit          3D

 14 15  0  0  0  0  0  0  0  0999 V2000
   -7.9040    3.9820   27.1177 C   0  0  0  0  0  0  0  0  0  0  0  0
   -8.2057    2.8231   26.8733 C   0  0  0  0  0  0  0  0  0  0  0  0
   -9.2962    2.4021   26.1155 C   0  0  0  0  0  0  0  0  0  0  0  0
   -8.7358    5.0662   26.5917 C   0  0  0  0  0  0  0  0  0  0  0  0
   -9.7618    4.7023   25.7546 C   0  0  0  0  0  0  0  0  0  0  0  0
  -10.0066    3.4105   25.4922 C   0  0  0  0  0  0  0  0  0  0  0  0
   -8.3943    6.4761   26.8801 C   0  0  0  0  0  0  0  0  0  0  0  0
   -8.0785    6.8107   28.2034 C   0  0  0  0  0  0  0  0  0  0  0  0
   -8.5617    7.4560   25.8979 C   0  0  0  0  0  0  0  0  0  0  0  0
   -7.2140    1.4986   27.5973 Cl  0  0  0  0  0  0  0  0  0  0  0  0
  -11.2694    3.0425   24.4186 Cl  0  0  0  0  0  0  0  0  0  0  0  0
   -7.6284    5.7089   28.9656 C   0  0  0  0  0  0  0  0  0  0  0  0
   -7.5327    4.3258   28.3997 C   0  0  0  0  0  0  0  0  0  0  0  0
   -9.5480    0.7705   25.5592 Cl  0  0  0  0  0  0  0  0  0  0  0  0
  7  9  1  0
  2 10  1  0
  6 11  1  0
  3 14  1  0
  1  2  2  0
  2  3  1  0
  3  6  2  0
  6  5  1  0
  5  4  2  0
  1  4  1  0
  4  7  1  0
  7  8  2  0
  8 12  1  0
 12 13  2  0
 13  1  1  0
M  END
$$$$
