No_1976-complexes_sdf/6BKW-FPZ/2024-09-17-14-21-01/
     RDKit          3D

 17 18  0  0  0  0  0  0  0  0999 V2000
   -7.2496    3.8871   27.4508 C   0  0  0  0  0  0  0  0  0  0  0  0
   -7.6161    2.7143   27.1523 C   0  0  0  0  0  0  0  0  0  0  0  0
   -6.9719    1.5838   27.5324 C   0  0  0  0  0  0  0  0  0  0  0  0
   -7.4590    0.2827   27.2615 C   0  0  0  0  0  0  0  0  0  0  0  0
   -8.7521    2.5117   26.3068 C   0  0  0  0  0  0  0  0  0  0  0  0
   -9.2100    1.2391   25.9794 C   0  0  0  0  0  0  0  0  0  0  0  0
   -8.5134    0.1313   26.5112 C   0  0  0  0  0  0  0  0  0  0  0  0
   -8.0469    5.0686   27.1938 C   0  0  0  0  0  0  0  0  0  0  0  0
   -9.1378    5.0394   26.3144 C   0  0  0  0  0  0  0  0  0  0  0  0
   -9.5691    3.6875   25.9223 C   0  0  0  0  0  0  0  0  0  0  0  0
   -7.7752    6.6111   27.9574 Cl  0  0  0  0  0  0  0  0  0  0  0  0
   -6.8218   -0.9441   27.8083 C   0  0  0  0  0  0  0  0  0  0  0  0
   -5.4900   -0.8251   28.2816 C   0  0  0  0  0  0  0  0  0  0  0  0
   -4.8839   -1.9291   28.9578 C   0  0  0  0  0  0  0  0  0  0  0  0
   -3.5791   -1.6359   29.4624 C   0  0  0  0  0  0  0  0  0  0  0  0
   -2.9097   -0.4156   29.3041 C   0  0  0  0  0  0  0  0  0  0  0  0
   -3.6018    0.6588   28.6941 C   0  0  0  0  0  0  0  0  0  0  0  0
  8 11  1  0
  4 12  1  0
 12 13  2  3
 13 14  1  0
 14 15  2  3
 15 16  1  0
 16 17  2  0
  1  2  2  0
  5 10  2  0
 10  9  1  0
  9  8  2  0
  8  1  1  0
  2  3  1  0
  3  4  2  0
  4  7  1  0
  7  6  2  0
  6  5  1  0
  5  2  1  0
M  END
$$$$
