No_1869-complexes_sdf/6BKW-FPZ/2024-09-17-14-21-01/
     RDKit          3D

 23 26  0  0  0  0  0  0  0  0999 V2000
   -7.9040    3.9820   27.1177 C   0  0  0  0  0  0  0  0  0  0  0  0
   -9.0711    4.3164   27.0630 C   0  0  0  0  0  0  0  0  0  0  0  0
   -9.5294    5.4517   27.7215 C   0  0  0  0  0  0  0  0  0  0  0  0
   -6.9328    4.7309   27.8881 C   0  0  0  0  0  0  0  0  0  0  0  0
   -7.3666    5.8455   28.5488 C   0  0  0  0  0  0  0  0  0  0  0  0
   -8.6669    6.2428   28.4199 C   0  0  0  0  0  0  0  0  0  0  0  0
   -9.9775    3.4523   26.2361 C   0  0  2  0  0  0  0  0  0  0  0  0
   -9.5561    2.3880   25.6596 C   0  0  0  0  0  0  0  0  0  0  0  0
   -9.8428    2.0348   24.3572 C   0  0  0  0  0  0  0  0  0  0  0  0
  -10.8889    2.7708   23.6922 C   0  0  1  0  0  0  0  0  0  0  0  0
  -11.3436    3.9498   24.2977 C   0  0  0  0  0  0  0  0  0  0  0  0
  -10.8453    4.3533   25.4360 C   0  0  0  0  0  0  0  0  0  0  0  0
   -9.4599    0.7492   23.7204 C   0  0  0  0  0  0  0  0  0  0  0  0
   -8.3784    0.1441   24.2471 C   0  0  0  0  0  0  0  0  0  0  0  0
   -7.9757    0.4414   25.6093 C   0  0  0  0  0  0  0  0  0  0  0  0
   -8.4341    1.5328   26.2206 C   0  0  0  0  0  0  0  0  0  0  0  0
  -11.4209    2.3917   22.3951 C   0  0  0  0  0  0  0  0  0  0  0  0
  -10.8088    2.9597   21.2887 C   0  0  0  0  0  0  0  0  0  0  0  0
  -11.1178    2.6112   20.0049 C   0  0  0  0  0  0  0  0  0  0  0  0
  -12.3847    1.4615   22.2374 C   0  0  0  0  0  0  0  0  0  0  0  0
  -12.7970    1.0988   20.9126 C   0  0  0  0  0  0  0  0  0  0  0  0
  -12.1521    1.7277   19.8192 C   0  0  0  0  0  0  0  0  0  0  0  0
  -10.9673    2.7996   27.4092 C   0  0  0  0  0  0  0  0  0  0  0  0
  2  7  1  0
  7  8  1  0
  9 10  1  0
  7 12  1  0
 11 12  1  0
 10 17  1  6
  7 23  1  1
 10 11  1  0
 17 18  2  0
 18 19  1  0
 19 22  2  0
 22 21  1  0
 21 20  2  0
 20 17  1  0
  1  2  2  0
  2  3  1  0
  3  6  2  0
  6  5  1  0
  5  4  2  0
  4  1  1  0
  8 16  2  0
 16 15  1  0
 15 14  2  0
 14 13  1  0
 13  9  2  0
  9  8  1  0
M  END
$$$$
