No_1455-complexes_sdf/6BKW-FPZ/2024-09-17-14-21-01/
     RDKit          3D

 26 28  0  0  0  0  0  0  0  0999 V2000
   -7.2496    3.8871   27.4508 C   0  0  0  0  0  0  0  0  0  0  0  0
   -7.6161    2.7143   27.1523 C   0  0  0  0  0  0  0  0  0  0  0  0
   -8.6212    2.2239   26.4074 C   0  0  0  0  0  0  0  0  0  0  0  0
   -8.2742    4.8439   27.4315 C   0  0  0  0  0  0  0  0  0  0  0  0
   -9.5008    4.5360   26.8786 C   0  0  0  0  0  0  0  0  0  0  0  0
   -9.6715    3.2678   26.3980 C   0  0  0  0  0  0  0  0  0  0  0  0
   -7.9944    6.1286   27.8965 N   0  0  0  0  0  0  0  0  0  0  0  0
   -8.8413    0.9156   26.0224 C   0  0  0  0  0  0  0  0  0  0  0  0
   -8.9587    0.6943   24.7614 C   0  0  0  0  0  0  0  0  0  0  0  0
   -9.0647   -0.6248   24.1526 C   0  0  0  0  0  0  0  0  0  0  0  0
   -9.0733   -1.6674   25.0155 C   0  0  0  0  0  0  0  0  0  0  0  0
   -8.7336   -0.1933   26.8945 C   0  0  0  0  0  0  0  0  0  0  0  0
   -8.8852   -1.4669   26.4463 C   0  0  0  0  0  0  0  0  0  0  0  0
   -8.6443    7.2373   27.3385 C   0  0  0  0  0  0  0  0  0  0  0  0
   -8.8863   -2.6507   27.3119 C   0  0  0  0  0  0  0  0  0  0  0  0
   -9.7549   -2.7127   28.1526 C   0  0  0  0  0  0  0  0  0  0  0  0
  -10.7770   -1.6700   28.3880 C   0  0  0  0  0  0  0  0  0  0  0  0
  -11.7371   -1.7628   29.4581 C   0  0  0  0  0  0  0  0  0  0  0  0
  -12.7366   -0.7920   29.4763 C   0  0  0  0  0  0  0  0  0  0  0  0
  -12.6608    0.3777   28.6677 C   0  0  0  0  0  0  0  0  0  0  0  0
  -11.6465    0.4927   27.7291 C   0  0  0  0  0  0  0  0  0  0  0  0
  -10.7794   -0.4803   27.5823 C   0  0  0  0  0  0  0  0  0  0  0  0
   -9.7180    0.1965   27.2497 N   0  0  0  0  0  0  0  0  0  0  0  0
   -9.5352    1.0375   28.3184 N   0  0  0  0  0  0  0  0  0  0  0  0
  -10.3205    0.9960   26.6788 N   0  0  0  0  0  0  0  0  0  0  0  0
  -10.8142    1.7936   25.6491 C   0  0  0  0  0  0  0  0  0  0  0  0
  4  7  1  0
  3  8  1  0
  7 14  1  0
 13 15  1  0
 15 16  2  3
 16 17  1  0
 12 23  1  0
 23 24  1  0
 23 25  1  0
 25 26  1  0
 17 18  2  0
 18 19  1  0
 19 20  2  0
 20 21  1  0
 21 22  2  0
 22 17  1  0
  1  2  2  0
  2  3  1  0
  3  6  2  0
  6  5  1  0
  5  4  2  0
  4  1  1  0
  8  9  2  0
  9 10  1  0
 10 11  2  0
 11 13  1  0
 13 12  2  0
 12  8  1  0
M  END
$$$$
