No_1115-complexes_sdf/6BKW-FPZ/2024-09-17-14-21-01/
     RDKit          3D

 15 16  0  0  0  0  0  0  0  0999 V2000
   -7.9040    3.9820   27.1177 C   0  0  0  0  0  0  0  0  0  0  0  0
   -9.0711    4.3164   27.0630 C   0  0  0  0  0  0  0  0  0  0  0  0
  -10.0395    3.8218   27.1938 C   0  0  0  0  0  0  0  0  0  0  0  0
   -7.6424    2.5858   27.3610 C   0  0  0  0  0  0  0  0  0  0  0  0
   -8.7646    1.7754   27.4263 C   0  0  0  0  0  0  0  0  0  0  0  0
   -9.9966    2.3406   27.3957 C   0  0  0  0  0  0  0  0  0  0  0  0
   -6.4006    1.8885   27.4586 C   0  0  0  0  0  0  0  0  0  0  0  0
   -5.8098    0.9956   27.7066 C   0  0  0  0  0  0  0  0  0  0  0  0
   -4.4195    0.7728   27.8880 C   0  0  0  0  0  0  0  0  0  0  0  0
   -3.8907   -0.4388   28.3308 C   0  0  0  0  0  0  0  0  0  0  0  0
   -4.7655   -1.4780   28.6035 C   0  0  0  0  0  0  0  0  0  0  0  0
   -6.4627   -0.3232   28.1179 C   0  0  0  0  0  0  0  0  0  0  0  0
   -6.0069   -1.3864   28.5441 C   0  0  0  0  0  0  0  0  0  0  0  0
   -9.1677    5.9633   26.7996 C   0  0  0  0  0  0  0  0  0  0  0  0
   -8.6811    7.0139   27.0885 N   0  0  0  0  0  0  0  0  0  0  0  0
  4  7  1  0
  2 14  1  0
 14 15  3  0
  7  8  1  0
  1  2  2  0
  2  3  1  0
  3  6  2  0
  6  5  1  0
  5  4  2  0
  4  1  1  0
  8  9  2  0
  9 10  1  0
 10 11  2  0
 11 13  1  0
 13 12  2  0
 12  8  1  0
M  END
$$$$
