No_1181-complexes_sdf/6BKW-FPZ/2024-09-17-14-21-01/
     RDKit          3D

 19 21  0  0  0  0  0  0  0  0999 V2000
   -7.7129    4.2099   27.0854 C   0  0  0  0  0  0  0  0  0  0  0  0
   -7.7814    5.1722   27.8972 C   0  0  0  0  0  0  0  0  0  0  0  0
   -8.7889    3.2468   27.2220 C   0  0  0  0  0  0  0  0  0  0  0  0
   -9.8671    3.4455   28.0317 C   0  0  0  0  0  0  0  0  0  0  0  0
   -8.9592    5.6476   28.6200 C   0  0  0  0  0  0  0  0  0  0  0  0
   -9.9658    4.7049   28.7257 C   0  0  0  0  0  0  0  0  0  0  0  0
   -8.6796    1.9137   26.5491 C   0  0  0  0  0  0  0  0  0  0  0  0
   -8.3410    1.7813   25.5062 C   0  0  0  0  0  0  0  0  0  0  0  0
   -8.8996    0.7910   27.4416 C   0  0  0  0  0  0  0  0  0  0  0  0
   -8.3389   -0.4187   27.2841 C   0  0  0  0  0  0  0  0  0  0  0  0
   -8.0086    0.4660   24.9545 C   0  0  0  0  0  0  0  0  0  0  0  0
   -7.6949    0.2413   23.5723 C   0  0  0  0  0  0  0  0  0  0  0  0
   -8.0550   -0.6180   25.8497 C   0  0  0  0  0  0  0  0  0  0  0  0
   -8.5643    0.5735   22.5836 C   0  0  0  0  0  0  0  0  0  0  0  0
   -9.1029   -0.4291   21.6889 C   0  0  0  0  0  0  0  0  0  0  0  0
  -10.0877   -0.0832   20.7605 C   0  0  0  0  0  0  0  0  0  0  0  0
  -10.5801    1.2275   20.7343 C   0  0  0  0  0  0  0  0  0  0  0  0
  -10.0933    2.2030   21.5545 C   0  0  0  0  0  0  0  0  0  0  0  0
   -9.1792    1.8862   22.5332 C   0  0  0  0  0  0  0  0  0  0  0  0
  3  7  1  0
 11 12  1  0
 12 14  1  0
  7  8  2  0
  8 11  1  0
 11 13  2  0
 13 10  1  0
 10  9  2  0
  9  7  1  0
  1  2  2  0
  2  5  1  0
  5  6  2  0
  6  4  1  0
  4  3  2  0
  3  1  1  0
 14 15  2  0
 15 16  1  0
 16 17  2  0
 17 18  1  0
 18 19  2  0
 19 14  1  0
M  END
$$$$
