No_1544-complexes_sdf/6BKW-FPZ/2024-09-17-14-21-01/
     RDKit          3D

 30 35  0  0  0  0  0  0  0  0999 V2000
   -7.9040    3.9820   27.1177 C   0  0  0  0  0  0  0  0  0  0  0  0
   -9.0711    4.3164   27.0630 C   0  0  0  0  0  0  0  0  0  0  0  0
   -9.5182    5.5541   27.5777 C   0  0  1  0  0  0  0  0  0  0  0  0
   -7.4468    2.6843   26.6499 C   0  0  0  0  0  0  0  0  0  0  0  0
   -8.3856    1.7878   26.2216 C   0  0  0  0  0  0  0  0  0  0  0  0
   -9.6812    2.2328   26.0889 C   0  0  0  0  0  0  0  0  0  0  0  0
  -10.0147    3.4312   26.5259 C   0  0  0  0  0  0  0  0  0  0  0  0
   -7.9132    0.4733   25.8127 C   0  0  0  0  0  0  0  0  0  0  0  0
   -7.3372   -0.3146   26.4746 O   0  0  0  0  0  0  0  0  0  0  0  0
   -8.1919    0.1459   24.5438 O   0  0  0  0  0  0  0  0  0  0  0  0
   -8.6902    6.6132   27.6174 N   0  0  0  0  0  0  0  0  0  0  0  0
   -7.3654    6.3920   27.4592 C   0  0  0  0  0  0  0  0  0  0  0  0
   -6.9346    5.1137   27.3303 N   0  0  0  0  0  0  0  0  0  0  0  0
  -10.8229    5.5947   27.7948 N   0  0  0  0  0  0  0  0  0  0  0  0
  -11.3835    3.7705   26.5402 C   0  0  0  0  0  0  0  0  0  0  0  0
  -11.7545    4.8807   27.2771 C   0  0  0  0  0  0  0  0  0  0  0  0
  -13.0650    5.1734   27.5261 N   0  0  0  0  0  0  0  0  0  0  0  0
  -13.6644    5.2148   28.8088 C   0  0  0  0  0  0  0  0  0  0  0  0
  -14.8345    4.5313   28.9555 C   0  0  0  0  0  0  0  0  0  0  0  0
  -13.9281    5.1363   26.5778 C   0  0  0  0  0  0  0  0  0  0  0  0
  -15.3331    4.9314   26.6651 C   0  0  0  0  0  0  0  0  0  0  0  0
  -15.8339    4.7569   27.9383 C   0  0  1  0  0  0  0  0  0  0  0  0
  -17.1487    4.4968   28.1304 O   0  0  0  0  0  0  0  0  0  0  0  0
  -17.6418    4.0679   29.2430 C   0  0  1  0  0  0  0  0  0  0  0  0
  -18.8185    3.3752   29.2231 C   0  0  0  0  0  0  0  0  0  0  0  0
  -19.2848    2.8218   30.3560 C   0  0  0  0  0  0  0  0  0  0  0  0
  -18.6220    3.0011   31.6335 C   0  0  0  0  0  0  0  0  0  0  0  0
  -17.4365    3.7018   31.6607 C   0  0  0  0  0  0  0  0  0  0  0  0
  -16.9033    4.2364   30.5274 C   0  0  1  0  0  0  0  0  0  0  0  0
  -15.5108    4.8278   30.4477 C   0  0  0  0  0  0  0  0  0  0  0  0
  1  2  1  0
  2  3  1  0
  1  4  2  0
  4  5  1  0
  5  6  2  0
  2  7  2  0
  6  7  1  0
  5  8  1  0
  8  9  2  0
  8 10  1  0
  3 11  1  6
 11 12  1  0
  1 13  1  0
 12 13  1  0
  3 14  1  0
  7 15  1  0
 14 16  1  0
 15 16  2  0
 16 17  1  0
 17 18  1  0
 18 19  2  0
 17 20  1  0
 20 21  2  0
 19 22  1  0
 21 22  1  0
 22 23  1  6
 24 23  1  6
 24 25  1  0
 25 26  2  0
 26 27  1  0
 27 28  2  0
 24 29  1  0
 28 29  1  0
 19 30  1  0
 29 30  1  6
M  END
$$$$
