No_151-complexes_sdf/6BKW-FPZ/2024-09-17-14-21-01/
     RDKit          3D

 26 29  0  0  0  0  0  0  0  0999 V2000
   -7.9040    3.9820   27.1177 C   0  0  0  0  0  0  0  0  0  0  0  0
   -7.8663    4.8694   27.9238 C   0  0  0  0  0  0  0  0  0  0  0  0
   -7.4547    2.7080   27.4594 C   0  0  0  0  0  0  0  0  0  0  0  0
   -7.9337    1.5946   26.8372 C   0  0  0  0  0  0  0  0  0  0  0  0
   -8.9032    1.7881   25.8510 C   0  0  0  0  0  0  0  0  0  0  0  0
   -9.3787    2.9871   25.5530 C   0  0  0  0  0  0  0  0  0  0  0  0
   -8.9781    4.0300   26.2200 C   0  0  0  0  0  0  0  0  0  0  0  0
   -8.2132    6.2312   27.6173 N   0  0  0  0  0  0  0  0  0  0  0  0
   -9.1014    6.5119   26.6241 C   0  0  0  0  0  0  0  0  0  0  0  0
   -9.3812    5.4924   26.0274 C   0  0  0  0  0  0  0  0  0  0  0  0
   -7.4910    0.1852   27.0182 C   0  0  0  0  0  0  0  0  0  0  0  0
   -8.1556   -0.8547   26.8886 C   0  0  0  0  0  0  0  0  0  0  0  0
   -7.7564   -2.0849   27.3685 C   0  0  0  0  0  0  0  0  0  0  0  0
   -6.5381   -2.1818   28.0614 C   0  0  0  0  0  0  0  0  0  0  0  0
   -6.1120   -0.0202   27.6620 C   0  0  0  0  0  0  0  0  0  0  0  0
   -5.6939   -1.0970   28.1669 C   0  0  0  0  0  0  0  0  0  0  0  0
   -4.3967   -1.1800   28.8444 C   0  0  2  0  0  0  0  0  0  0  0  0
   -4.3425   -0.6672   30.2007 C   0  0  0  0  0  0  0  0  0  0  0  0
   -3.9088   -1.3169   31.2187 C   0  0  0  0  0  0  0  0  0  0  0  0
   -3.8268   -0.6960   32.5479 C   0  0  0  0  0  0  0  0  0  0  0  0
   -3.3691   -1.4743   33.6418 C   0  0  0  0  0  0  0  0  0  0  0  0
   -2.9121   -2.6922   33.4492 C   0  0  0  0  0  0  0  0  0  0  0  0
   -3.4253   -2.6585   31.1982 C   0  0  0  0  0  0  0  0  0  0  0  0
   -2.9405   -3.3034   32.2887 C   0  0  0  0  0  0  0  0  0  0  0  0
   -3.2726   -1.6324   28.2504 C   0  0  0  0  0  0  0  0  0  0  0  0
   -3.2303   -2.8958   27.6252 C   0  0  0  0  0  0  0  0  0  0  0  0
  4 11  1  0
 16 17  1  0
 17 18  1  6
 17 25  1  0
 25 26  1  0
 18 19  1  0
 19 20  2  0
 20 21  1  0
 21 22  2  0
 22 24  1  0
 24 23  2  0
 23 19  1  0
  1  2  2  0
  2  8  1  0
  8  9  2  0
  9 10  1  0
 10  7  2  0
 11 12  2  0
 12 13  1  0
 13 14  2  0
 14 16  1  0
 16 15  2  0
 15 11  1  0
  1  3  1  0
  3  4  2  0
  4  5  1  0
  5  6  2  0
  6  7  1  0
  7  1  1  0
M  END
$$$$
