No_1502-complexes_sdf/6BKW-FPZ/2024-09-17-14-21-01/
     RDKit          3D

 11 11  0  0  0  0  0  0  0  0999 V2000
   -7.7129    4.2099   27.0854 C   0  0  0  0  0  0  0  0  0  0  0  0
   -8.9133    4.4736   27.0998 C   0  0  0  0  0  0  0  0  0  0  0  0
   -9.7135    3.9633   26.0300 C   0  0  0  0  0  0  0  0  0  0  0  0
   -6.8420    4.9760   28.0851 C   0  0  0  0  0  0  0  0  0  0  0  0
   -9.9322    2.5915   25.9957 C   0  0  0  0  0  0  0  0  0  0  0  0
  -10.4230    2.0654   24.9049 C   0  0  0  0  0  0  0  0  0  0  0  0
  -10.1456    0.8605   24.4617 C   0  0  0  0  0  0  0  0  0  0  0  0
  -10.5783    0.4225   23.2301 C   0  0  0  0  0  0  0  0  0  0  0  0
  -10.2688   -0.8425   22.7049 C   0  0  0  0  0  0  0  0  0  0  0  0
   -7.7245    6.0112   28.6270 C   0  0  0  0  0  0  0  0  0  0  0  0
   -8.9653    5.7455   27.8293 C   0  0  0  0  0  0  0  0  0  0  0  0
  1  2  1  0
  2  3  1  0
  1  4  1  0
  3  5  1  0
  5  6  1  0
  6  7  1  0
  7  8  2  3
  8  9  1  0
  4 10  2  0
  2 11  1  0
 10 11  1  0
M  END
$$$$
