No_1439-complexes_sdf/6BKW-FPZ/2024-09-17-14-21-01/
     RDKit          3D

 14 14  0  0  0  0  0  0  0  0999 V2000
   -7.9040    3.9820   27.1177 C   0  0  0  0  0  0  0  0  0  0  0  0
   -8.2057    2.8231   26.8733 C   0  0  0  0  0  0  0  0  0  0  0  0
   -8.7695    5.0740   26.7916 C   0  0  0  0  0  0  0  0  0  0  0  0
   -9.9618    4.7598   26.1630 C   0  0  0  0  0  0  0  0  0  0  0  0
   -9.4200    2.4524   26.2849 C   0  0  0  0  0  0  0  0  0  0  0  0
  -10.2590    3.4815   25.9250 C   0  0  0  0  0  0  0  0  0  0  0  0
   -8.3837    6.4702   27.0872 C   0  0  0  0  0  0  0  0  0  0  0  0
   -7.6376    7.3641   26.6024 C   0  0  0  0  0  0  0  0  0  0  0  0
   -7.2624    1.6639   27.2707 C   0  0  0  0  0  0  0  0  0  0  0  0
   -7.6158    0.3917   27.1876 N   0  0  0  0  0  0  0  0  0  0  0  0
   -6.1429    1.9608   27.7191 F   0  0  0  0  0  0  0  0  0  0  0  0
   -8.6259   -0.1831   26.8004 C   0  0  0  0  0  0  0  0  0  0  0  0
   -9.7191    0.5045   26.2730 C   0  0  0  0  0  0  0  0  0  0  0  0
  -10.8300    0.3882   25.7911 C   0  0  0  0  0  0  0  0  0  0  0  0
  3  7  1  0
  7  8  2  0
  2  9  1  0
  9 10  1  0
  9 11  1  0
 10 12  1  0
 12 13  2  3
 13 14  1  0
  1  2  2  0
  2  5  1  0
  5  6  2  0
  6  4  1  0
  4  3  2  0
  3  1  1  0
M  END
$$$$
