No_1773-complexes_sdf/6BKW-FPZ/2024-09-17-14-21-01/
     RDKit          3D

 26 29  0  0  0  0  0  0  0  0999 V2000
   -7.9040    3.9820   27.1177 C   0  0  0  0  0  0  0  0  0  0  0  0
   -7.8663    4.8694   27.9238 C   0  0  0  0  0  0  0  0  0  0  0  0
   -7.4698    2.6989   27.4277 C   0  0  0  0  0  0  0  0  0  0  0  0
   -7.9683    1.5964   26.8266 C   0  0  0  0  0  0  0  0  0  0  0  0
   -7.5289    0.3101   27.1202 C   0  0  0  0  0  0  0  0  0  0  0  0
   -8.3245   -0.7895   26.7699 C   0  0  0  0  0  0  0  0  0  0  0  0
   -8.6045    6.0684   27.7548 C   0  0  0  0  0  0  0  0  0  0  0  0
   -9.3997   -0.5474   25.8960 C   0  0  0  0  0  0  0  0  0  0  0  0
   -9.7656    0.7058   25.5279 C   0  0  0  0  0  0  0  0  0  0  0  0
   -9.0247    1.8010   26.0175 C   0  0  0  0  0  0  0  0  0  0  0  0
   -9.0740    6.4441   26.4035 C   0  0  0  0  0  0  0  0  0  0  0  0
   -8.7979    4.2648   25.9942 C   0  0  0  0  0  0  0  0  0  0  0  0
   -9.2784    5.4698   25.7074 C   0  0  0  0  0  0  0  0  0  0  0  0
   -9.3537    3.0065   25.3741 C   0  0  0  0  0  0  0  0  0  0  0  0
  -10.8703    0.8409   24.5459 C   0  0  2  0  0  0  0  0  0  0  0  0
  -12.0075    1.2019   25.0420 C   0  0  0  0  0  0  0  0  0  0  0  0
  -12.9833    1.7458   24.2876 C   0  0  0  0  0  0  0  0  0  0  0  0
  -14.2010    2.2332   24.8617 C   0  0  0  0  0  0  0  0  0  0  0  0
  -14.3763    2.1334   26.2403 C   0  0  0  0  0  0  0  0  0  0  0  0
  -13.3896    1.6400   27.0584 C   0  0  0  0  0  0  0  0  0  0  0  0
  -12.2239    1.2168   26.5417 C   0  0  0  0  0  0  0  0  0  0  0  0
  -10.9567   -0.4150   23.7090 C   0  0  0  0  0  0  0  0  0  0  0  0
  -10.6195   -0.2827   22.4351 C   0  0  0  0  0  0  0  0  0  0  0  0
  -10.0887    0.9516   21.8790 C   0  0  0  0  0  0  0  0  0  0  0  0
   -9.6820    1.1677   20.5877 C   0  0  0  0  0  0  0  0  0  0  0  0
  -10.6085    1.6187   20.0807 C   0  0  0  0  0  0  0  0  0  0  0  0
  1  3  1  0
  3  4  1  0
 10 14  1  0
 12 14  1  0
 15  9  1  1
 15 16  1  0
 15 22  1  0
 22 23  2  3
 23 24  1  0
 24 25  2  3
 25 26  1  0
  4  5  2  0
  5  6  1  0
  6  8  2  0
  8  9  1  0
  9 10  2  0
 10  4  1  0
  1  2  2  0
  2  7  1  0
  7 11  2  0
 11 13  1  0
 13 12  2  0
 12  1  1  0
 16 17  2  0
 17 18  1  0
 18 19  2  0
 19 20  1  0
 20 21  2  0
 21 16  1  0
M  END
$$$$
