No_1565-complexes_sdf/6BKW-FPZ/2024-09-17-14-21-01/
     RDKit          3D

 26 30  0  0  0  0  0  0  0  0999 V2000
   -7.9040    3.9820   27.1177 C   0  0  0  0  0  0  0  0  0  0  0  0
   -8.2057    2.8231   26.8733 C   0  0  0  0  0  0  0  0  0  0  0  0
   -7.4766    1.7477   27.4593 C   0  0  0  0  0  0  0  0  0  0  0  0
   -6.7221    4.3631   27.8544 C   0  0  0  0  0  0  0  0  0  0  0  0
   -6.1698    2.0708   27.9540 C   0  0  0  0  0  0  0  0  0  0  0  0
   -5.9008    3.3790   28.1722 N   0  0  0  0  0  0  0  0  0  0  0  0
   -8.6203    5.3250   26.8245 C   0  0  0  0  0  0  0  0  0  0  0  0
   -8.2222    6.5889   27.1084 C   0  0  0  0  0  0  0  0  0  0  0  0
   -9.0595    7.6211   26.7078 C   0  0  0  0  0  0  0  0  0  0  0  0
   -5.3890    0.9159   28.2865 C   0  0  0  0  0  0  0  0  0  0  0  0
   -5.7134   -0.3748   28.2873 C   0  0  0  0  0  0  0  0  0  0  0  0
   -7.0325   -0.5700   27.6161 C   0  0  0  0  0  0  0  0  0  0  0  0
   -7.8448    0.4194   27.2376 C   0  0  0  0  0  0  0  0  0  0  0  0
   -9.7860    5.0845   25.9999 C   0  0  0  0  0  0  0  0  0  0  0  0
  -10.4788    3.9709   26.1184 C   0  0  0  0  0  0  0  0  0  0  0  0
  -11.7335    3.6898   25.5154 C   0  0  0  0  0  0  0  0  0  0  0  0
   -9.5999    2.6601   26.3845 C   0  0  0  0  0  0  0  0  0  0  0  0
  -12.0021    2.7156   24.7206 C   0  0  0  0  0  0  0  0  0  0  0  0
  -13.1913    2.5827   24.1415 C   0  0  0  0  0  0  0  0  0  0  0  0
  -14.2203    3.5174   24.4322 C   0  0  0  0  0  0  0  0  0  0  0  0
  -13.9956    4.5607   25.3105 C   0  0  0  0  0  0  0  0  0  0  0  0
  -12.6845    4.6648   25.8793 C   0  0  0  0  0  0  0  0  0  0  0  0
   -4.8450   -1.4292   28.6660 C   0  0  2  0  0  0  0  0  0  0  0  0
   -4.9525   -2.6770   28.9545 Cl  0  0  0  0  0  0  0  0  0  0  0  0
   -3.8081   -0.5669   29.4162 C   0  0  0  0  0  0  0  0  0  0  0  0
   -3.8124    0.7968   29.1027 C   0  0  0  0  0  0  0  0  0  0  0  0
  2  3  1  0
  1  4  1  0
  4  6  1  0
  5  6  1  0
  8  9  1  0
 15 16  1  0
 11 23  1  0
 23 24  1  1
 23 25  1  0
 10 26  1  0
 25 26  2  0
  8  7  1  0
  3  5  2  0
  5 10  1  0
 10 11  2  0
 11 12  1  0
 12 13  2  0
 13  3  1  0
  1  2  2  0
  2 17  1  0
 17 15  2  0
 15 14  1  0
 14  7  2  0
  7  1  1  0
 16 18  2  0
 18 19  1  0
 19 20  2  0
 20 21  1  0
 21 22  2  0
 22 16  1  0
M  END
$$$$
