No_1285-complexes_sdf/6BKW-FPZ/2024-09-17-14-21-01/
     RDKit          3D

 10 10  0  0  0  0  0  0  0  0999 V2000
   -7.9040    3.9820   27.1177 C   0  0  0  0  0  0  0  0  0  0  0  0
   -7.8663    4.8694   27.9238 C   0  0  0  0  0  0  0  0  0  0  0  0
   -9.0501    3.8017   26.2617 C   0  0  0  0  0  0  0  0  0  0  0  0
  -10.0189    4.7608   26.3707 C   0  0  0  0  0  0  0  0  0  0  0  0
   -8.6973    5.9722   27.8968 C   0  0  0  0  0  0  0  0  0  0  0  0
   -9.8216    5.8946   27.1241 C   0  0  0  0  0  0  0  0  0  0  0  0
   -9.1313    2.7565   25.4802 F   0  0  0  0  0  0  0  0  0  0  0  0
   -7.0115    2.9557   27.0975 F   0  0  0  0  0  0  0  0  0  0  0  0
  -11.3441    4.6807   25.3097 Cl  0  0  0  0  0  0  0  0  0  0  0  0
   -6.6896    5.1286   28.7182 O   0  0  0  0  0  0  0  0  0  0  0  0
  3  7  1  0
  1  8  1  0
  4  9  1  0
  2 10  1  0
  1  2  2  0
  2  5  1  0
  5  6  2  0
  6  4  1  0
  4  3  2  0
  3  1  1  0
M  END
$$$$
