No_1314-complexes_sdf/6BKW-FPZ/2024-09-17-14-21-01/
     RDKit          3D

 20 23  0  0  0  0  0  0  0  0999 V2000
   -7.9040    3.9820   27.1177 C   0  0  0  0  0  0  0  0  0  0  0  0
   -9.0711    4.3164   27.0630 C   0  0  0  0  0  0  0  0  0  0  0  0
   -9.5294    5.4517   27.7215 C   0  0  0  0  0  0  0  0  0  0  0  0
   -6.9328    4.7309   27.8881 C   0  0  0  0  0  0  0  0  0  0  0  0
   -7.3377    5.8421   28.5537 C   0  0  0  0  0  0  0  0  0  0  0  0
   -8.6411    6.2609   28.3972 C   0  0  0  0  0  0  0  0  0  0  0  0
  -10.0493    3.4953   26.2711 C   0  0  0  0  0  0  0  0  0  0  0  0
  -10.5585    3.8087   25.3240 C   0  0  0  0  0  0  0  0  0  0  0  0
  -11.2573    3.2128   24.3350 C   0  0  0  0  0  0  0  0  0  0  0  0
  -11.4490    1.8655   24.4909 C   0  0  0  0  0  0  0  0  0  0  0  0
   -9.9777    2.0492   26.4211 C   0  0  0  0  0  0  0  0  0  0  0  0
  -10.7234    1.2445   25.5642 C   0  0  0  0  0  0  0  0  0  0  0  0
   -9.2887    1.4685   27.4370 O   0  0  0  0  0  0  0  0  0  0  0  0
   -9.5574    0.1732   27.7558 C   0  0  0  0  0  0  0  0  0  0  0  0
  -10.7978   -0.1837   25.7743 C   0  0  0  0  0  0  0  0  0  0  0  0
  -10.1563   -0.6542   26.9493 C   0  0  0  0  0  0  0  0  0  0  0  0
  -11.4693   -0.9855   24.8748 C   0  0  0  0  0  0  0  0  0  0  0  0
  -11.4672   -2.2635   25.0692 C   0  0  0  0  0  0  0  0  0  0  0  0
  -10.9044   -2.7429   26.2790 C   0  0  0  0  0  0  0  0  0  0  0  0
  -10.2094   -1.9935   27.2412 C   0  0  0  0  0  0  0  0  0  0  0  0
  2  7  1  0
 11 13  1  0
 13 14  1  0
 12 15  1  0
 14 16  1  0
  7  8  2  0
  8  9  1  0
  9 10  2  0
 10 12  1  0
 12 11  2  0
 11  7  1  0
  1  2  2  0
  2  3  1  0
  3  6  2  0
  6  5  1  0
  5  4  2  0
  4  1  1  0
 15 16  2  0
 16 20  1  0
 20 19  2  0
 19 18  1  0
 18 17  2  0
 17 15  1  0
M  END
$$$$
