No_1705-complexes_sdf/6BKW-FPZ/2024-09-17-14-21-01/
     RDKit          3D

 27 28  0  0  0  0  0  0  0  0999 V2000
   -7.9040    3.9820   27.1177 C   0  0  0  0  0  0  0  0  0  0  0  0
   -7.8663    4.8694   27.9238 C   0  0  0  0  0  0  0  0  0  0  0  0
   -9.0501    3.8017   26.2617 C   0  0  0  0  0  0  0  0  0  0  0  0
  -10.0189    4.7608   26.3707 C   0  0  0  0  0  0  0  0  0  0  0  0
   -8.6973    5.9722   27.8968 C   0  0  0  0  0  0  0  0  0  0  0  0
   -9.8216    5.8946   27.1241 C   0  0  0  0  0  0  0  0  0  0  0  0
   -9.1445    2.6271   25.4265 C   0  0  0  0  0  0  0  0  0  0  0  0
   -9.9972    2.7053   24.3067 C   0  0  0  0  0  0  0  0  0  0  0  0
  -10.1490    1.5913   23.5400 C   0  0  0  0  0  0  0  0  0  0  0  0
   -9.3267    0.4241   23.7814 C   0  0  0  0  0  0  0  0  0  0  0  0
   -8.5036    0.4076   24.8662 C   0  0  0  0  0  0  0  0  0  0  0  0
   -8.3753    1.5006   25.7023 C   0  0  0  0  0  0  0  0  0  0  0  0
  -10.9233    1.5854   22.4666 F   0  0  0  0  0  0  0  0  0  0  0  0
   -7.4887   -1.1370   25.1918 Br  0  0  0  0  0  0  0  0  0  0  0  0
   -6.6839    5.1153   28.6967 O   0  0  0  0  0  0  0  0  0  0  0  0
  -10.9127    4.1074   23.9061 Cl  0  0  0  0  0  0  0  0  0  0  0  0
   -9.4461   -0.5902   22.9362 F   0  0  0  0  0  0  0  0  0  0  0  0
   -7.6097    1.4295   26.7702 O   0  0  0  0  0  0  0  0  0  0  0  0
   -7.7732    0.3220   27.6535 C   0  0  2  0  0  0  0  0  0  0  0  0
   -6.7544   -0.0262   28.4813 C   0  0  0  0  0  0  0  0  0  0  0  0
   -6.6025   -1.2158   29.1437 C   0  0  0  0  0  0  0  0  0  0  0  0
   -7.7790   -2.0373   29.1508 C   0  0  0  0  0  0  0  0  0  0  0  0
   -8.7205   -0.5250   27.5843 F   0  0  0  0  0  0  0  0  0  0  0  0
   -7.8345   -3.2175   29.9367 C   0  0  0  0  0  0  0  0  0  0  0  0
   -9.0365   -3.9047   29.9655 C   0  0  0  0  0  0  0  0  0  0  0  0
  -10.1373   -3.4115   29.2365 C   0  0  0  0  0  0  0  0  0  0  0  0
  -10.0642   -2.2831   28.4902 C   0  0  0  0  0  0  0  0  0  0  0  0
  3  7  1  0
  9 13  1  0
 11 14  1  0
  2 15  1  0
  8 16  1  0
 10 17  1  0
 12 18  1  0
 18 19  1  0
 19 20  1  0
 20 21  2  3
 21 22  1  0
 19 23  1  6
 22 24  1  0
 24 25  2  3
 25 26  1  0
 26 27  2  0
  1  2  2  0
  2  5  1  0
  5  6  2  0
  6  4  1  0
  4  3  2  0
  3  1  1  0
  7  8  2  0
  8  9  1  0
  9 10  2  0
 10 11  1  0
 11 12  2  0
 12  7  1  0
M  END
$$$$
