No_1840-complexes_sdf/6BKW-FPZ/2024-09-17-14-21-01/
     RDKit          3D

 21 22  0  0  0  0  0  0  0  0999 V2000
   -7.9040    3.9820   27.1177 C   0  0  0  0  0  0  0  0  0  0  0  0
   -9.0711    4.3164   27.0630 C   0  0  0  0  0  0  0  0  0  0  0  0
   -9.5294    5.4517   27.7215 C   0  0  0  0  0  0  0  0  0  0  0  0
   -6.9328    4.7309   27.8881 C   0  0  0  0  0  0  0  0  0  0  0  0
   -7.3377    5.8421   28.5537 C   0  0  0  0  0  0  0  0  0  0  0  0
   -8.6411    6.2609   28.3972 C   0  0  0  0  0  0  0  0  0  0  0  0
  -10.0493    3.4953   26.2711 C   0  0  0  0  0  0  0  0  0  0  0  0
  -10.5585    3.8087   25.3241 C   0  0  0  0  0  0  0  0  0  0  0  0
  -11.2573    3.2128   24.3350 C   0  0  0  0  0  0  0  0  0  0  0  0
  -11.4490    1.8655   24.4909 C   0  0  0  0  0  0  0  0  0  0  0  0
   -9.8764    2.0982   26.2228 C   0  0  0  0  0  0  0  0  0  0  0  0
  -10.6303    1.2678   25.4550 C   0  0  0  0  0  0  0  0  0  0  0  0
  -10.6057   -0.2213   25.5769 C   0  0  0  0  0  0  0  0  0  0  0  0
  -11.5953   -0.8286   25.7066 F   0  0  0  0  0  0  0  0  0  0  0  0
   -9.8235   -0.4078   26.7553 F   0  0  0  0  0  0  0  0  0  0  0  0
   -9.7597   -0.7032   24.6652 F   0  0  0  0  0  0  0  0  0  0  0  0
   -5.6945    4.2322   28.0388 F   0  0  0  0  0  0  0  0  0  0  0  0
  -12.0973    3.9387   23.3106 C   0  0  1  0  0  0  0  0  0  0  0  0
  -13.2263    4.3909   23.5566 C   0  0  0  0  0  0  0  0  0  0  0  0
  -11.4429    4.1616   22.0601 C   0  0  0  0  0  0  0  0  0  0  0  0
  -10.1169    4.6131   22.0527 C   0  0  0  0  0  0  0  0  0  0  0  0
  2  7  1  0
 12 13  1  0
 13 14  1  0
 13 15  1  0
 13 16  1  0
  4 17  1  0
  9 18  1  0
 18 19  1  1
 18 20  1  0
 20 21  1  0
  7  8  2  0
  8  9  1  0
  9 10  2  0
 10 12  1  0
 12 11  2  0
 11  7  1  0
  1  2  2  0
  2  3  1  0
  3  6  2  0
  6  5  1  0
  5  4  2  0
  4  1  1  0
M  END
$$$$
