No_133-complexes_sdf/6BKW-FPZ/2024-09-17-14-21-01/
     RDKit          3D

 13 14  0  0  0  0  0  0  0  0999 V2000
   -7.9040    3.9820   27.1177 C   0  0  0  0  0  0  0  0  0  0  0  0
   -8.2057    2.8231   26.8733 C   0  0  0  0  0  0  0  0  0  0  0  0
   -9.2962    2.4021   26.1155 C   0  0  0  0  0  0  0  0  0  0  0  0
   -8.7358    5.0662   26.5917 C   0  0  0  0  0  0  0  0  0  0  0  0
   -9.7618    4.7022   25.7546 C   0  0  0  0  0  0  0  0  0  0  0  0
  -10.0066    3.4105   25.4922 C   0  0  0  0  0  0  0  0  0  0  0  0
   -8.3936    6.4769   26.8843 C   0  0  0  0  0  0  0  0  0  0  0  0
   -8.6020    7.4177   26.1293 N   0  0  0  0  0  0  0  0  0  0  0  0
   -7.7289    6.5654   28.0080 O   0  0  0  0  0  0  0  0  0  0  0  0
   -7.3492    1.6560   27.4681 C   0  0  0  0  0  0  0  0  0  0  0  0
   -7.7418    0.3999   27.4002 N   0  0  0  0  0  0  0  0  0  0  0  0
   -8.9444    0.0781   27.2044 C   0  0  0  0  0  0  0  0  0  0  0  0
   -9.7605    1.0073   26.3155 C   0  0  0  0  0  0  0  0  0  0  0  0
  4  7  1  0
  7  8  1  0
  7  9  2  0
  1  2  2  0
  3  6  2  0
  6  5  1  0
  5  4  2  0
  4  1  1  0
  2  3  1  0
  3 13  1  0
 13 12  2  0
 12 11  1  0
 11 10  2  0
 10  2  1  0
M  END
$$$$
