No_1284-complexes_sdf/6BKW-FPZ/2024-09-17-14-21-01/
     RDKit          3D

 38 41  0  0  0  0  0  0  0  0999 V2000
   -7.7129    4.2099   27.0854 C   0  0  0  0  0  0  0  0  0  0  0  0
   -8.2112    3.0637   26.9225 C   0  0  0  0  0  0  0  0  0  0  0  0
   -9.4446    2.8304   26.1868 C   0  0  0  0  0  0  0  0  0  0  0  0
   -8.4697    5.3956   26.7238 C   0  0  0  0  0  0  0  0  0  0  0  0
   -9.6172    5.2111   25.9513 C   0  0  0  0  0  0  0  0  0  0  0  0
  -10.0424    3.9782   25.6873 C   0  0  0  0  0  0  0  0  0  0  0  0
   -7.7142    1.7268   27.3793 C   0  0  0  0  0  0  0  0  0  0  0  0
   -8.3137    0.6040   27.3111 N   0  0  0  0  0  0  0  0  0  0  0  0
   -7.6992   -0.4838   27.7515 C   0  0  0  0  0  0  0  0  0  0  0  0
   -6.3961   -0.3866   28.1323 C   0  0  0  0  0  0  0  0  0  0  0  0
   -6.3061    1.5816   27.8402 C   0  0  0  0  0  0  0  0  0  0  0  0
   -5.6501    0.7060   28.1617 C   0  0  0  0  0  0  0  0  0  0  0  0
   -4.2478    0.7169   28.6115 C   0  0  0  0  0  0  0  0  0  0  0  0
   -3.8421   -0.0420   29.7035 C   0  0  0  0  0  0  0  0  0  0  0  0
   -2.5580   -0.5316   29.7722 C   0  0  0  0  0  0  0  0  0  0  0  0
   -2.1475   -1.2525   30.9222 C   0  0  0  0  0  0  0  0  0  0  0  0
   -3.0255   -1.3470   32.0378 C   0  0  0  0  0  0  0  0  0  0  0  0
   -4.2775   -0.8250   31.9376 C   0  0  0  0  0  0  0  0  0  0  0  0
   -4.6918   -0.1215   30.8298 C   0  0  0  0  0  0  0  0  0  0  0  0
   -7.9298    6.7238   27.0264 C   0  0  0  0  0  0  0  0  0  0  0  0
   -8.2208    7.7708   27.0209 N   0  0  0  0  0  0  0  0  0  0  0  0
   -6.8303    6.5189   27.9133 O   0  0  0  0  0  0  0  0  0  0  0  0
   -3.3731    0.9792   27.6823 O   0  0  0  0  0  0  0  0  0  0  0  0
   -5.2268   -0.9378   33.1167 C   0  0  0  0  0  0  0  0  0  0  0  0
   -6.4491   -1.2133   33.0401 N   0  0  0  0  0  0  0  0  0  0  0  0
   -4.6852   -0.8955   34.3440 O   0  0  0  0  0  0  0  0  0  0  0  0
  -11.1380    3.8452   24.9183 F   0  0  0  0  0  0  0  0  0  0  0  0
   -7.0758   -1.5601   31.8663 C   0  0  0  0  0  0  0  0  0  0  0  0
   -8.2459   -2.5494   32.0747 C   0  0  0  0  0  0  0  0  0  0  0  0
   -9.0800   -2.7647   31.0404 C   0  0  0  0  0  0  0  0  0  0  0  0
  -10.2632   -3.3872   31.2546 C   0  0  0  0  0  0  0  0  0  0  0  0
  -10.6091   -3.8812   32.5306 C   0  0  0  0  0  0  0  0  0  0  0  0
   -9.7607   -3.6853   33.5767 C   0  0  0  0  0  0  0  0  0  0  0  0
   -8.5718   -2.9568   33.3818 C   0  0  0  0  0  0  0  0  0  0  0  0
   -8.4173   -1.6330   27.7643 N   0  0  0  0  0  0  0  0  0  0  0  0
   -8.5892   -2.4013   26.6702 C   0  0  0  0  0  0  0  0  0  0  0  0
   -8.0568   -3.3591   26.5691 C   0  0  0  0  0  0  0  0  0  0  0  0
   -8.1357   -4.2177   25.3860 C   0  0  0  0  0  0  0  0  0  0  0  0
  2  7  1  0
 12 13  1  0
 13 14  1  0
  4 20  1  0
 20 21  1  0
 20 22  2  0
 13 23  2  0
 18 24  1  0
 24 25  1  0
 24 26  2  0
  6 27  1  0
 25 28  1  0
 28 29  1  0
  9 35  1  0
 35 36  1  0
 36 37  2  3
 37 38  1  0
  7  8  2  0
  8  9  1  0
  9 10  2  0
 10 12  1  0
 12 11  2  0
 11  7  1  0
 14 15  2  0
 15 16  1  0
 16 17  2  0
 17 18  1  0
 18 19  2  0
 19 14  1  0
  1  2  2  0
  2  3  1  0
  3  6  2  0
  6  5  1  0
  5  4  2  0
  4  1  1  0
 29 30  2  0
 30 31  1  0
 31 32  2  0
 32 33  1  0
 33 34  2  0
 34 29  1  0
M  END
$$$$
