No_1435-complexes_sdf/6BKW-FPZ/2024-09-17-14-21-01/
     RDKit          3D

 15 17  0  0  0  0  0  0  0  0999 V2000
   -7.7129    4.2099   27.0854 C   0  0  0  0  0  0  0  0  0  0  0  0
   -7.7814    5.1722   27.8972 C   0  0  0  0  0  0  0  0  0  0  0  0
   -8.8998    3.8713   26.3707 C   0  0  0  0  0  0  0  0  0  0  0  0
   -8.9563    2.6796   25.5490 C   0  0  0  0  0  0  0  0  0  0  0  0
   -8.8131    6.1334   27.9344 C   0  0  0  0  0  0  0  0  0  0  0  0
   -9.9804    5.8121   27.1929 C   0  0  0  0  0  0  0  0  0  0  0  0
   -9.9861    4.6836   26.4532 C   0  0  0  0  0  0  0  0  0  0  0  0
   -8.3254    1.5772   26.0196 N   0  0  0  0  0  0  0  0  0  0  0  0
   -8.2060    0.4450   25.3096 C   0  0  0  0  0  0  0  0  0  0  0  0
   -7.2858   -0.5095   25.7814 C   0  0  0  0  0  0  0  0  0  0  0  0
   -6.5391   -0.2653   26.9793 C   0  0  0  0  0  0  0  0  0  0  0  0
   -6.6849    0.9696   27.6630 C   0  0  0  0  0  0  0  0  0  0  0  0
   -7.4928    1.9052   27.1533 C   0  0  1  0  0  0  0  0  0  0  0  0
   -7.3348    3.1379   27.6083 N   0  0  0  0  0  0  0  0  0  0  0  0
   -9.8353    2.5509   24.6553 O   0  0  0  0  0  0  0  0  0  0  0  0
  3  4  1  0
  4  8  1  0
  8  9  1  0
 10 11  1  0
  8 13  1  0
 13 12  1  6
  1 14  1  0
 13 14  1  0
  4 15  2  0
  9 10  1  0
 11 12  1  0
  1  2  2  0
  2  5  1  0
  5  6  2  0
  6  7  1  0
  7  3  2  0
  3  1  1  0
M  END
$$$$
