No_108-complexes_sdf/6BKW-FPZ/2024-09-17-14-21-01/
     RDKit          3D

 15 16  0  0  0  0  0  0  0  0999 V2000
   -7.9040    3.9820   27.1177 C   0  0  0  0  0  0  0  0  0  0  0  0
   -9.0711    4.3164   27.0630 C   0  0  0  0  0  0  0  0  0  0  0  0
  -10.0395    3.8218   27.1938 C   0  0  0  0  0  0  0  0  0  0  0  0
   -7.6424    2.5858   27.3610 C   0  0  0  0  0  0  0  0  0  0  0  0
   -8.7741    1.7889   27.4566 C   0  0  0  0  0  0  0  0  0  0  0  0
  -10.0155    2.3581   27.4300 C   0  0  0  0  0  0  0  0  0  0  0  0
   -9.1463    5.9504   26.8742 C   0  0  0  0  0  0  0  0  0  0  0  0
   -8.6590    6.5068   25.6590 C   0  0  0  0  0  0  0  0  0  0  0  0
   -6.4300    2.0743   27.3161 F   0  0  0  0  0  0  0  0  0  0  0  0
  -11.2198    1.5142   27.7406 C   0  0  0  0  0  0  0  0  0  0  0  0
  -12.1583    2.0231   28.5620 C   0  0  0  0  0  0  0  0  0  0  0  0
  -13.1850    1.1999   29.0668 C   0  0  0  0  0  0  0  0  0  0  0  0
  -13.1933   -0.1202   28.6108 C   0  0  0  0  0  0  0  0  0  0  0  0
  -11.2583    0.1586   27.5088 C   0  0  0  0  0  0  0  0  0  0  0  0
  -12.2327   -0.6319   27.8940 C   0  0  0  0  0  0  0  0  0  0  0  0
  2  7  1  0
  7  8  1  0
  4  9  1  0
  6 10  1  0
  1  2  2  0
  2  3  1  0
  3  6  2  0
  6  5  1  0
  5  4  2  0
  4  1  1  0
 10 11  2  0
 11 12  1  0
 12 13  2  0
 13 15  1  0
 15 14  2  0
 14 10  1  0
M  END
$$$$
