No_1946-complexes_sdf/6BKW-FPZ/2024-09-17-14-21-01/
     RDKit          3D

 20 22  0  0  0  0  0  0  0  0999 V2000
   -7.7129    4.2099   27.0854 C   0  0  0  0  0  0  0  0  0  0  0  0
   -7.7814    5.1722   27.8972 C   0  0  0  0  0  0  0  0  0  0  0  0
   -8.8255    3.2789   27.1191 C   0  0  0  0  0  0  0  0  0  0  0  0
   -9.9209    3.4734   27.9101 C   0  0  0  0  0  0  0  0  0  0  0  0
  -10.9752    2.5069   28.0201 C   0  0  0  0  0  0  0  0  0  0  0  0
   -8.9991    5.6269   28.5996 C   0  0  0  0  0  0  0  0  0  0  0  0
   -9.9928    4.6433   28.6536 C   0  0  0  0  0  0  0  0  0  0  0  0
  -12.1309    2.8251   28.5480 C   0  0  0  0  0  0  0  0  0  0  0  0
  -10.5307    1.1317   28.0755 C   0  0  0  0  0  0  0  0  0  0  0  0
  -13.1556    1.8735   28.7603 C   0  0  0  0  0  0  0  0  0  0  0  0
  -11.5506    0.1230   28.2039 C   0  0  0  0  0  0  0  0  0  0  0  0
  -12.8073    0.5311   28.6329 C   0  0  0  0  0  0  0  0  0  0  0  0
   -8.5920    2.0181   26.3410 C   0  0  0  0  0  0  0  0  0  0  0  0
   -9.1174    1.7823   25.1431 C   0  0  0  0  0  0  0  0  0  0  0  0
   -8.9097    0.7306   24.3467 C   0  0  0  0  0  0  0  0  0  0  0  0
   -9.4863    0.6501   23.0245 C   0  0  0  0  0  0  0  0  0  0  0  0
  -10.2959    1.6940   22.5531 C   0  0  0  0  0  0  0  0  0  0  0  0
  -10.4841    2.8037   23.3283 C   0  0  0  0  0  0  0  0  0  0  0  0
   -9.9072    2.9376   24.6147 C   0  0  0  0  0  0  0  0  0  0  0  0
   -7.6908    1.1534   26.7965 O   0  0  0  0  0  0  0  0  0  0  0  0
  4  5  1  0
  3 13  1  0
 13 14  1  0
 13 20  2  0
 14 15  2  0
 15 16  1  0
 16 17  2  0
 17 18  1  0
 18 19  2  0
 19 14  1  0
  1  2  2  0
  2  6  1  0
  6  7  2  0
  7  4  1  0
  4  3  2  0
  3  1  1  0
  5  8  2  0
  8 10  1  0
 10 12  2  0
 12 11  1  0
 11  9  2  0
  9  5  1  0
M  END
$$$$
