No_1336-complexes_sdf/6BKW-FPZ/2024-09-17-14-21-01/
     RDKit          3D

 15 16  0  0  0  0  0  0  0  0999 V2000
   -7.9040    3.9820   27.1177 C   0  0  0  0  0  0  0  0  0  0  0  0
   -8.2057    2.8231   26.8733 C   0  0  0  0  0  0  0  0  0  0  0  0
   -8.7695    5.0740   26.7916 C   0  0  0  0  0  0  0  0  0  0  0  0
   -9.9618    4.7598   26.1630 C   0  0  0  0  0  0  0  0  0  0  0  0
   -7.3763    1.7038   27.3414 C   0  0  0  0  0  0  0  0  0  0  0  0
   -9.4134    2.4504   26.3004 C   0  0  0  0  0  0  0  0  0  0  0  0
  -10.2558    3.4522   25.9218 C   0  0  0  0  0  0  0  0  0  0  0  0
   -6.0952    1.9614   27.8767 C   0  0  0  0  0  0  0  0  0  0  0  0
   -5.2264    0.8847   28.2576 C   0  0  0  0  0  0  0  0  0  0  0  0
   -5.6636   -0.3998   28.1689 C   0  0  0  0  0  0  0  0  0  0  0  0
   -7.6448    0.3341   27.2818 C   0  0  0  0  0  0  0  0  0  0  0  0
   -6.8996   -0.6409   27.7229 C   0  0  0  0  0  0  0  0  0  0  0  0
   -8.4003    6.4960   27.0355 C   0  0  0  0  0  0  0  0  0  0  0  0
   -7.9279    7.6042   26.9866 N   0  0  0  0  0  0  0  0  0  0  0  0
   -3.9830    1.2559   28.7653 O   0  0  0  0  0  0  0  0  0  0  0  0
  2  5  1  0
  3 13  1  0
 13 14  3  0
  9 15  1  0
  1  2  2  0
  2  6  1  0
  6  7  2  0
  7  4  1  0
  4  3  2  0
  3  1  1  0
  5  8  2  0
  8  9  1  0
  9 10  2  0
 10 12  1  0
 12 11  2  0
 11  5  1  0
M  END
$$$$
