No_1991-complexes_sdf/6BKW-FPZ/2024-09-17-14-21-01/
     RDKit          3D

 16 17  0  0  0  0  0  0  0  0999 V2000
   -7.7129    4.2099   27.0854 C   0  0  0  0  0  0  0  0  0  0  0  0
   -8.9133    4.4736   27.0998 C   0  0  0  0  0  0  0  0  0  0  0  0
   -9.4643    5.5426   27.7628 C   0  0  0  0  0  0  0  0  0  0  0  0
   -6.8373    4.9942   27.9785 C   0  0  0  0  0  0  0  0  0  0  0  0
   -7.3717    6.0428   28.6744 C   0  0  0  0  0  0  0  0  0  0  0  0
   -8.6869    6.3937   28.5345 C   0  0  0  0  0  0  0  0  0  0  0  0
   -9.8029    3.6153   26.2122 C   0  0  0  0  0  0  0  0  0  0  0  0
  -10.1001    2.3701   26.5024 C   0  0  0  0  0  0  0  0  0  0  0  0
  -10.8218    1.5251   25.6423 C   0  0  0  0  0  0  0  0  0  0  0  0
  -11.3643    2.0969   24.4882 C   0  0  0  0  0  0  0  0  0  0  0  0
  -11.0766    3.4459   24.1676 C   0  0  0  0  0  0  0  0  0  0  0  0
  -10.3063    4.2543   25.0134 C   0  0  0  0  0  0  0  0  0  0  0  0
  -11.6441    4.0557   22.9421 C   0  0  0  0  0  0  0  0  0  0  0  0
  -11.1028    3.5054   21.9538 C   0  0  0  0  0  0  0  0  0  0  0  0
  -11.3128    4.0284   20.6059 C   0  0  0  0  0  0  0  0  0  0  0  0
  -10.6991    3.5123   19.4703 C   0  0  0  0  0  0  0  0  0  0  0  0
  2  7  1  0
 11 13  1  0
 13 14  1  0
 14 15  2  3
 15 16  1  0
  1  2  2  0
  2  3  1  0
  3  6  2  0
  6  5  1  0
  5  4  2  0
  4  1  1  0
  7  8  2  0
  8  9  1  0
  9 10  2  0
 10 11  1  0
 11 12  2  0
 12  7  1  0
M  END
$$$$
