No_178-complexes_sdf/6BKW-FPZ/2024-09-17-14-21-01/
     RDKit          3D

 24 26  0  0  0  0  0  0  0  0999 V2000
   -7.2496    3.8871   27.4508 C   0  0  0  0  0  0  0  0  0  0  0  0
   -7.6161    2.7143   27.1523 C   0  0  0  0  0  0  0  0  0  0  0  0
   -6.9719    1.5838   27.5324 C   0  0  0  0  0  0  0  0  0  0  0  0
   -5.6316    1.7305   27.9933 C   0  0  0  0  0  0  0  0  0  0  0  0
   -5.8952    4.0984   27.9705 C   0  0  0  0  0  0  0  0  0  0  0  0
   -5.1627    3.0216   28.2671 C   0  0  0  0  0  0  0  0  0  0  0  0
   -8.0902    5.0888   27.1966 C   0  0  0  0  0  0  0  0  0  0  0  0
   -7.8373    6.2876   27.7784 N   0  0  0  0  0  0  0  0  0  0  0  0
   -9.2360    5.0288   26.4264 C   0  0  0  0  0  0  0  0  0  0  0  0
   -4.7894    0.5742   28.2604 C   0  0  0  0  0  0  0  0  0  0  0  0
   -5.2182   -0.4916   28.8434 C   0  0  0  0  0  0  0  0  0  0  0  0
   -6.3253   -1.0312   28.7651 C   0  0  0  0  0  0  0  0  0  0  0  0
   -6.7607   -2.2377   29.4144 C   0  0  0  0  0  0  0  0  0  0  0  0
   -5.8511   -2.7249   30.3488 C   0  0  0  0  0  0  0  0  0  0  0  0
   -4.3567   -1.2140   29.8816 C   0  0  0  0  0  0  0  0  0  0  0  0
   -4.6524   -2.2388   30.5847 C   0  0  0  0  0  0  0  0  0  0  0  0
  -10.2136    4.0727   26.5363 C   0  0  0  0  0  0  0  0  0  0  0  0
  -11.0929    3.8440   25.4991 C   0  0  0  0  0  0  0  0  0  0  0  0
  -12.2665    3.1925   25.6628 C   0  0  0  0  0  0  0  0  0  0  0  0
  -12.4878    2.6327   26.9598 C   0  0  0  0  0  0  0  0  0  0  0  0
  -11.6290    2.8210   28.0240 C   0  0  0  0  0  0  0  0  0  0  0  0
  -10.4214    3.5902   27.8097 C   0  0  0  0  0  0  0  0  0  0  0  0
   -3.5301    0.6922   27.7666 O   0  0  0  0  0  0  0  0  0  0  0  0
   -9.1582    5.8531   25.3664 O   0  0  0  0  0  0  0  0  0  0  0  0
  1  7  1  0
  7  8  2  0
  7  9  1  0
  4 10  1  0
 10 11  1  0
  9 17  1  0
 10 23  2  0
  9 24  2  0
 17 18  2  0
 18 19  1  0
 19 20  2  0
 20 21  1  0
 21 22  2  0
 22 17  1  0
  1  2  2  0
  2  3  1  0
  3  4  2  0
  4  6  1  0
  6  5  2  0
  5  1  1  0
 11 12  2  0
 12 13  1  0
 13 14  2  0
 14 16  1  0
 16 15  2  0
 15 11  1  0
M  END
$$$$
