No_1816-complexes_sdf/6BKW-FPZ/2024-09-17-14-21-01/
     RDKit          3D

 30 33  0  0  0  0  0  0  0  0999 V2000
   -7.9040    3.9820   27.1177 C   0  0  0  0  0  0  0  0  0  0  0  0
   -7.8663    4.8694   27.9238 C   0  0  2  0  0  0  0  0  0  0  0  0
   -9.0491    3.8523   26.2542 C   0  0  0  0  0  0  0  0  0  0  0  0
   -9.9827    3.2456   26.6451 C   0  0  0  0  0  0  0  0  0  0  0  0
   -8.6215    5.6019   28.2262 C   0  0  0  0  0  0  0  0  0  0  0  0
  -10.1674    5.3809   27.9970 C   0  0  0  0  0  0  0  0  0  0  0  0
  -10.3977    4.2738   27.4095 C   0  0  0  0  0  0  0  0  0  0  0  0
  -11.9336    3.9993   27.7925 C   0  0  0  0  0  0  0  0  0  0  0  0
  -12.0107    3.2030   28.8981 C   0  0  0  0  0  0  0  0  0  0  0  0
  -13.2608    2.9400   29.5643 C   0  0  0  0  0  0  0  0  0  0  0  0
  -13.3280    2.1058   30.6398 C   0  0  0  0  0  0  0  0  0  0  0  0
  -14.2230    4.0273   29.3928 C   0  0  0  0  0  0  0  0  0  0  0  0
  -14.1863    4.8338   28.2652 C   0  0  0  0  0  0  0  0  0  0  0  0
  -12.9675    4.8982   27.4893 C   0  0  0  0  0  0  0  0  0  0  0  0
  -12.7737    1.1621   30.3969 F   0  0  0  0  0  0  0  0  0  0  0  0
  -14.6846    1.8363   30.8604 F   0  0  0  0  0  0  0  0  0  0  0  0
  -13.0525    2.7342   31.7995 F   0  0  0  0  0  0  0  0  0  0  0  0
   -6.4935    5.2475   28.2953 O   0  0  0  0  0  0  0  0  0  0  0  0
  -10.9841    2.9916   25.5105 C   0  0  0  0  0  0  0  0  0  0  0  0
  -11.4910    3.7710   24.6653 C   0  0  0  0  0  0  0  0  0  0  0  0
  -12.3492    3.5359   23.6446 C   0  0  0  0  0  0  0  0  0  0  0  0
  -12.7103    2.2778   23.4341 C   0  0  0  0  0  0  0  0  0  0  0  0
  -11.4690    1.6126   25.2937 C   0  0  0  0  0  0  0  0  0  0  0  0
  -12.3124    1.2910   24.3208 C   0  0  0  0  0  0  0  0  0  0  0  0
  -13.6881    1.9166   22.3686 C   0  0  0  0  0  0  0  0  0  0  0  0
  -13.3816    2.0811   21.1606 C   0  0  0  0  0  0  0  0  0  0  0  0
  -14.9476    1.3773   22.6663 C   0  0  0  0  0  0  0  0  0  0  0  0
  -15.7893    1.0185   21.7878 C   0  0  0  0  0  0  0  0  0  0  0  0
  -14.2409    1.7608   20.0590 C   0  0  0  0  0  0  0  0  0  0  0  0
  -15.4417    1.2352   20.4077 C   0  0  0  0  0  0  0  0  0  0  0  0
  1  2  1  0
  1  3  1  0
  3  4  2  0
  2  5  1  0
  5  6  1  0
  4  7  1  0
  6  7  2  0
  7  8  1  0
 10 11  1  0
 11 15  1  0
 11 16  1  0
 11 17  1  0
  2 18  1  6
  4 19  1  0
 22 25  1  0
  8  9  2  0
  9 10  1  0
 10 12  2  0
 12 13  1  0
 13 14  2  0
 14  8  1  0
 25 26  2  0
 26 29  1  0
 29 30  2  0
 30 28  1  0
 28 27  2  0
 27 25  1  0
 19 20  2  0
 20 21  1  0
 21 22  2  0
 22 24  1  0
 24 23  2  0
 23 19  1  0
M  END
$$$$
