No_1048-complexes_sdf/6BKW-FPZ/2024-09-17-14-21-01/
     RDKit          3D

 26 29  0  0  0  0  0  0  0  0999 V2000
   -7.9040    3.9820   27.1177 C   0  0  0  0  0  0  0  0  0  0  0  0
   -7.8663    4.8694   27.9238 C   0  0  0  0  0  0  0  0  0  0  0  0
   -7.4547    2.7080   27.4594 C   0  0  0  0  0  0  0  0  0  0  0  0
   -6.1474    2.6388   27.8014 C   0  0  0  0  0  0  0  0  0  0  0  0
   -8.5539    6.1392   27.6636 C   0  0  0  0  0  0  0  0  0  0  0  0
   -5.5162    1.3823   28.1415 C   0  0  0  0  0  0  0  0  0  0  0  0
   -4.2075    1.3041   28.6355 C   0  0  0  0  0  0  0  0  0  0  0  0
   -8.7864    4.1526   25.9696 C   0  0  0  0  0  0  0  0  0  0  0  0
   -9.4662    5.3687   25.7112 C   0  0  0  0  0  0  0  0  0  0  0  0
   -9.2616    6.4247   26.5994 C   0  0  0  0  0  0  0  0  0  0  0  0
   -6.1099    0.2282   27.4493 C   0  0  0  0  0  0  0  0  0  0  0  0
   -7.3982    0.2565   26.9744 C   0  0  0  0  0  0  0  0  0  0  0  0
   -8.0467    1.5498   26.8691 C   0  0  0  0  0  0  0  0  0  0  0  0
   -3.5792    0.3089   29.0158 N   0  0  0  0  0  0  0  0  0  0  0  0
   -3.0128   -0.2499   29.6293 C   0  0  0  0  0  0  0  0  0  0  0  0
   -2.3211   -1.3874   29.6294 C   0  0  0  0  0  0  0  0  0  0  0  0
   -3.0221    0.1713   30.9829 O   0  0  0  0  0  0  0  0  0  0  0  0
   -1.9028   -2.1152   30.5786 C   0  0  0  0  0  0  0  0  0  0  0  0
   -1.8649   -1.8143   28.2470 C   0  0  0  0  0  0  0  0  0  0  0  0
   -1.1349   -3.3428   30.4738 C   0  0  0  0  0  0  0  0  0  0  0  0
   -1.1341   -2.9849   28.0787 C   0  0  0  0  0  0  0  0  0  0  0  0
   -0.7918   -3.7275   29.1655 C   0  0  0  0  0  0  0  0  0  0  0  0
   -8.0721   -0.9057   26.5621 C   0  0  0  0  0  0  0  0  0  0  0  0
   -9.1354   -0.8634   25.9308 C   0  0  0  0  0  0  0  0  0  0  0  0
   -9.8813    0.3802   25.7946 C   0  0  0  0  0  0  0  0  0  0  0  0
   -9.3260    1.5129   26.2695 C   0  0  0  0  0  0  0  0  0  0  0  0
  6  7  1  0
  7 14  2  3
 14 15  1  0
 15 16  1  0
 15 17  2  0
  3  1  1  0
 13 26  2  0
 26 25  1  0
 25 24  2  0
 24 23  1  0
 23 12  2  0
 16 18  2  0
 18 20  1  0
 20 22  2  0
 22 21  1  0
 21 19  2  0
 19 16  1  0
  1  2  2  0
  2  5  1  0
  5 10  2  0
 10  9  1  0
  9  8  2  0
  8  1  1  0
  3  4  2  0
  4  6  1  0
  6 11  2  0
 11 12  1  0
 12 13  1  0
 13  3  1  0
M  END
$$$$
