No_1652-complexes_sdf/6BKW-FPZ/2024-09-17-14-21-01/
     RDKit          3D

 37 41  0  0  0  0  0  0  0  0999 V2000
   -7.7129    4.2099   27.0854 C   0  0  0  0  0  0  0  0  0  0  0  0
   -8.2112    3.0637   26.9225 C   0  0  0  0  0  0  0  0  0  0  0  0
   -8.5108    5.3904   26.9436 C   0  0  0  0  0  0  0  0  0  0  0  0
   -9.7256    5.1955   26.3518 C   0  0  0  0  0  0  0  0  0  0  0  0
   -9.4995    2.8258   26.4878 C   0  0  0  0  0  0  0  0  0  0  0  0
  -10.2542    3.9691   26.2055 C   0  0  0  0  0  0  0  0  0  0  0  0
   -7.9456    6.5695   27.1656 F   0  0  0  0  0  0  0  0  0  0  0  0
   -7.4303    1.9365   27.2588 F   0  0  0  0  0  0  0  0  0  0  0  0
   -9.7795    1.3385   26.2544 C   0  0  1  0  0  0  0  0  0  0  0  0
  -10.5323    0.8297   27.2765 C   0  0  0  0  0  0  0  0  0  0  0  0
  -11.5307    0.4564   27.2170 C   0  0  0  0  0  0  0  0  0  0  0  0
  -12.3165   -0.2147   28.4111 C   0  0  0  0  0  0  0  0  0  0  0  0
  -11.6378   -0.6089   29.3738 C   0  0  0  0  0  0  0  0  0  0  0  0
  -10.2066   -0.4721   29.3489 C   0  0  0  0  0  0  0  0  0  0  0  0
   -9.5671    0.2078   28.3564 C   0  0  0  0  0  0  0  0  0  0  0  0
   -9.5841    0.7974   25.0381 C   0  0  0  0  0  0  0  0  0  0  0  0
   -8.8945    1.3714   24.0953 C   0  0  0  0  0  0  0  0  0  0  0  0
   -8.6190    0.7430   22.8340 C   0  0  0  0  0  0  0  0  0  0  0  0
   -9.0825   -0.5551   22.6395 C   0  0  0  0  0  0  0  0  0  0  0  0
   -9.8474   -1.1740   23.6104 C   0  0  0  0  0  0  0  0  0  0  0  0
  -10.0560   -0.5351   24.8079 C   0  0  0  0  0  0  0  0  0  0  0  0
  -13.7854   -0.3563   28.3108 C   0  0  0  0  0  0  0  0  0  0  0  0
  -14.3575   -1.2406   28.2644 O   0  0  0  0  0  0  0  0  0  0  0  0
  -14.4555    0.9000   27.7941 N   0  0  0  0  0  0  0  0  0  0  0  0
  -15.8499    0.9114   27.6165 C   0  0  0  0  0  0  0  0  0  0  0  0
  -16.3474    1.9246   27.5192 C   0  0  0  0  0  0  0  0  0  0  0  0
  -15.6114    3.1797   27.3348 C   0  0  0  0  0  0  0  0  0  0  0  0
  -16.1630    4.5036   27.1896 C   0  0  0  0  0  0  0  0  0  0  0  0
  -15.2374    5.4871   27.2394 C   0  0  0  0  0  0  0  0  0  0  0  0
  -13.8104    5.2993   27.3159 C   0  0  0  0  0  0  0  0  0  0  0  0
  -13.3715    4.0370   27.5303 C   0  0  0  0  0  0  0  0  0  0  0  0
  -14.1950    3.0432   27.5479 C   0  0  0  0  0  0  0  0  0  0  0  0
  -13.7541    1.7856   27.7777 N   0  0  0  0  0  0  0  0  0  0  0  0
   -8.8483   -1.1761   21.3248 C   0  0  0  0  0  0  0  0  0  0  0  0
   -9.5892   -0.7314   20.3767 F   0  0  0  0  0  0  0  0  0  0  0  0
   -7.5102   -1.0061   21.0186 F   0  0  0  0  0  0  0  0  0  0  0  0
   -9.0205   -2.5139   21.3651 F   0  0  0  0  0  0  0  0  0  0  0  0
  3  7  1  0
  2  8  1  0
  9  5  1  6
  9 10  1  0
  9 16  1  0
 12 22  1  0
 22 23  2  0
 22 24  1  0
 24 25  1  0
 26 27  1  0
 24 33  1  0
 32 33  1  0
 19 34  1  0
 34 35  1  0
 34 36  1  0
 34 37  1  0
 25 26  1  0
 27 28  2  0
 28 29  1  0
 29 30  2  0
 30 31  1  0
 31 32  2  0
 32 27  1  0
 10 11  2  0
 11 12  1  0
 12 13  2  0
 13 14  1  0
 14 15  2  0
 15 10  1  0
  1  2  2  0
  2  5  1  0
  5  6  2  0
  6  4  1  0
  4  3  2  0
  3  1  1  0
 16 17  2  0
 17 18  1  0
 18 19  2  0
 19 20  1  0
 20 21  2  0
 21 16  1  0
M  END
$$$$
