No_1547-complexes_sdf/6BKW-FPZ/2024-09-17-14-21-01/
     RDKit          3D

 23 26  0  0  0  0  0  0  0  0999 V2000
   -7.7129    4.2099   27.0854 C   0  0  0  0  0  0  0  0  0  0  0  0
   -7.7814    5.1722   27.8972 C   0  0  0  0  0  0  0  0  0  0  0  0
   -8.8998    3.8713   26.3707 C   0  0  0  0  0  0  0  0  0  0  0  0
   -9.8197    4.2636   26.6487 C   0  0  0  0  0  0  0  0  0  0  0  0
  -10.0564    5.4056   27.4736 C   0  0  0  0  0  0  0  0  0  0  0  0
   -8.9370    5.9017   28.1282 C   0  0  0  0  0  0  0  0  0  0  0  0
   -8.6941    2.6721   25.5417 N   0  0  0  0  0  0  0  0  0  0  0  0
   -9.6282    2.4075   24.6515 C   0  0  0  0  0  0  0  0  0  0  0  0
  -10.8386    3.1263   24.6746 C   0  0  0  0  0  0  0  0  0  0  0  0
  -11.0056    4.0486   25.6787 C   0  0  0  0  0  0  0  0  0  0  0  0
   -9.4662    1.3881   23.8133 N   0  0  0  0  0  0  0  0  0  0  0  0
   -8.5676    0.3637   23.9744 C   0  0  0  0  0  0  0  0  0  0  0  0
  -10.0144    1.3954   22.4736 C   0  0  0  0  0  0  0  0  0  0  0  0
   -9.0860   -0.8756   24.3394 C   0  0  0  0  0  0  0  0  0  0  0  0
   -8.3076   -1.7917   24.5590 C   0  0  0  0  0  0  0  0  0  0  0  0
   -6.8298   -1.7059   24.5245 C   0  0  0  0  0  0  0  0  0  0  0  0
   -6.3429   -0.4218   24.2091 C   0  0  0  0  0  0  0  0  0  0  0  0
   -7.1582    0.5502   23.9427 C   0  0  0  0  0  0  0  0  0  0  0  0
   -9.4644    2.1983   21.5896 C   0  0  0  0  0  0  0  0  0  0  0  0
  -11.0510    0.5462   22.1738 C   0  0  0  0  0  0  0  0  0  0  0  0
  -11.5255    0.4511   20.9313 C   0  0  0  0  0  0  0  0  0  0  0  0
  -10.0612    2.3350   20.2772 C   0  0  0  0  0  0  0  0  0  0  0  0
  -11.0576    1.4445   19.9860 C   0  0  0  0  0  0  0  0  0  0  0  0
  8 11  1  0
 11 12  1  0
 11 13  1  0
 12 14  2  0
 14 15  1  0
 15 16  2  0
 16 17  1  0
 17 18  2  0
 18 12  1  0
  4 10  2  0
 10  9  1  0
  9  8  2  0
  8  7  1  0
  7  3  2  0
  1  2  2  0
  2  6  1  0
  6  5  2  0
  5  4  1  0
  4  3  1  0
  3  1  1  0
 13 19  2  0
 19 22  1  0
 22 23  2  0
 23 21  1  0
 21 20  2  0
 20 13  1  0
M  END
$$$$
