No_1536-complexes_sdf/6BKW-FPZ/2024-09-17-14-21-01/
     RDKit          3D

 14 15  0  0  0  0  0  0  0  0999 V2000
   -7.7129    4.2099   27.0854 C   0  0  0  0  0  0  0  0  0  0  0  0
   -7.7814    5.1722   27.8972 C   0  0  0  0  0  0  0  0  0  0  0  0
   -8.8776    3.8408   26.3416 C   0  0  0  0  0  0  0  0  0  0  0  0
   -8.9136    2.6330   25.5655 C   0  0  0  0  0  0  0  0  0  0  0  0
   -8.8361    6.1389   27.9032 C   0  0  0  0  0  0  0  0  0  0  0  0
   -9.9718    4.7048   26.3433 C   0  0  0  0  0  0  0  0  0  0  0  0
   -9.9205    5.8499   27.1013 C   0  0  0  0  0  0  0  0  0  0  0  0
   -8.2915    1.4822   26.1745 C   0  0  0  0  0  0  0  0  0  0  0  0
   -7.9094    1.5549   27.4528 C   0  0  0  0  0  0  0  0  0  0  0  0
   -8.2576    0.3090   25.3426 C   0  0  0  0  0  0  0  0  0  0  0  0
   -7.3067   -0.6860   25.6349 C   0  0  0  0  0  0  0  0  0  0  0  0
   -6.9539    0.3591   27.8194 C   0  0  0  0  0  0  0  0  0  0  0  0
   -6.7801   -0.7121   26.9842 C   0  0  0  0  0  0  0  0  0  0  0  0
   -9.6429    2.5706   24.5934 O   0  0  0  0  0  0  0  0  0  0  0  0
  3  4  1  0
  4  8  1  0
  4 14  2  0
  8  9  2  0
  9 12  1  0
 12 13  2  0
 13 11  1  0
 11 10  2  0
 10  8  1  0
  1  2  2  0
  2  5  1  0
  5  7  2  0
  7  6  1  0
  6  3  2  0
  3  1  1  0
M  END
$$$$
