No_1080-complexes_sdf/6BKW-FPZ/2024-09-17-14-21-01/
     RDKit          3D

 37 38  0  0  0  0  0  0  0  0999 V2000
   -7.9040    3.9820   27.1177 C   0  0  0  0  0  0  0  0  0  0  0  0
   -9.0711    4.3164   27.0630 C   0  0  0  0  0  0  0  0  0  0  0  0
   -9.5294    5.4517   27.7215 C   0  0  0  0  0  0  0  0  0  0  0  0
   -7.4336    2.7132   26.5681 C   0  0  0  0  0  0  0  0  0  0  0  0
   -8.3353    1.8569   26.0442 C   0  0  0  0  0  0  0  0  0  0  0  0
   -7.9243    0.5609   25.6726 C   0  0  0  0  0  0  0  0  0  0  0  0
  -10.0396    3.4856   26.3639 C   0  0  0  0  0  0  0  0  0  0  0  0
   -9.6183    2.2835   25.9020 C   0  0  0  0  0  0  0  0  0  0  0  0
   -8.0278    0.2525   24.5073 O   0  0  0  0  0  0  0  0  0  0  0  0
   -7.4094   -0.2562   26.5634 O   0  0  0  0  0  0  0  0  0  0  0  0
   -6.6244    4.8083   28.0644 Cl  0  0  0  0  0  0  0  0  0  0  0  0
   -6.8855   -1.4252   26.4015 C   0  0  0  0  0  0  0  0  0  0  0  0
   -6.2346   -2.0101   27.4978 C   0  0  0  0  0  0  0  0  0  0  0  0
   -6.2482   -1.1858   28.6067 C   0  0  0  0  0  0  0  0  0  0  0  0
   -5.8349    0.1066   28.4401 C   0  0  0  0  0  0  0  0  0  0  0  0
   -4.7480    0.3592   27.5922 C   0  0  0  0  0  0  0  0  0  0  0  0
   -3.7138   -0.4838   27.5625 C   0  0  2  0  0  0  0  0  0  0  0  0
   -2.8345   -0.1119   28.5295 C   0  0  0  0  0  0  0  0  0  0  0  0
   -3.2590    0.3160   29.6879 C   0  0  0  0  0  0  0  0  0  0  0  0
   -2.8223   -0.3776   30.9756 C   0  0  0  0  0  0  0  0  0  0  0  0
   -2.4304   -1.6843   30.8593 C   0  0  0  0  0  0  0  0  0  0  0  0
   -1.4883   -1.9106   29.8621 C   0  0  0  0  0  0  0  0  0  0  0  0
   -1.7831   -1.4791   28.8263 C   0  0  0  0  0  0  0  0  0  0  0  0
   -7.0075   -3.1564   27.8133 F   0  0  0  0  0  0  0  0  0  0  0  0
   -5.0480   -2.4970   27.1707 F   0  0  0  0  0  0  0  0  0  0  0  0
   -3.0956   -0.4675   26.2487 O   0  0  0  0  0  0  0  0  0  0  0  0
   -3.7854   -0.0417   32.2169 C   0  0  0  0  0  0  0  0  0  0  0  0
   -4.8964   -0.8772   32.3125 C   0  0  0  0  0  0  0  0  0  0  0  0
   -4.7635   -1.9974   33.1829 C   0  0  0  0  0  0  0  0  0  0  0  0
   -5.7672   -2.8934   33.1595 C   0  0  0  0  0  0  0  0  0  0  0  0
   -6.9206   -2.6495   32.4082 C   0  0  0  0  0  0  0  0  0  0  0  0
   -7.4673   -3.4315   31.9024 C   0  0  0  0  0  0  0  0  0  0  0  0
   -8.3751   -3.5918   31.4341 C   0  0  0  0  0  0  0  0  0  0  0  0
   -8.9711   -4.8036   30.8944 C   0  0  0  0  0  0  0  0  0  0  0  0
  -10.1872   -4.7954   30.2081 C   0  0  0  0  0  0  0  0  0  0  0  0
  -10.8857   -3.6083   30.0674 C   0  0  0  0  0  0  0  0  0  0  0  0
  -10.4710   -2.3966   30.5333 C   0  0  0  0  0  0  0  0  0  0  0  0
  5  6  1  0
  6  9  2  0
  6 10  1  0
  1 11  1  0
 10 12  1  0
 12 13  1  0
 13 14  1  0
 14 15  1  0
 15 16  1  0
 16 17  1  0
 17 18  1  0
 13 24  1  0
 13 25  1  0
 17 26  1  6
 20 27  1  0
 27 28  1  0
 28 29  1  0
 29 30  2  3
 30 31  1  0
 31 32  2  3
 32 33  1  0
 33 34  2  3
 34 35  1  0
 35 36  2  3
 36 37  1  0
  3  2  1  0
 18 19  2  0
 19 20  1  0
 20 21  2  0
 21 22  1  0
 22 23  2  0
 23 18  1  0
  1  2  2  0
  2  7  1  0
  7  8  2  0
  8  5  1  0
  5  4  2  0
  4  1  1  0
M  END
$$$$
