No_117-complexes_sdf/6BKW-FPZ/2024-09-17-14-21-01/
     RDKit          3D

 15 15  0  0  0  0  0  0  0  0999 V2000
   -7.7129    4.2099   27.0854 C   0  0  0  0  0  0  0  0  0  0  0  0
   -8.2112    3.0637   26.9225 C   0  0  0  0  0  0  0  0  0  0  0  0
   -9.4446    2.8304   26.1868 C   0  0  0  0  0  0  0  0  0  0  0  0
   -8.4697    5.3956   26.7238 C   0  0  0  0  0  0  0  0  0  0  0  0
   -9.6172    5.2111   25.9513 C   0  0  0  0  0  0  0  0  0  0  0  0
  -10.0424    3.9782   25.6873 C   0  0  0  0  0  0  0  0  0  0  0  0
   -7.9172    6.7181   27.0124 C   0  0  0  0  0  0  0  0  0  0  0  0
   -8.4157    7.7972   26.4523 N   0  0  0  0  0  0  0  0  0  0  0  0
   -7.2694    6.8080   28.1768 O   0  0  0  0  0  0  0  0  0  0  0  0
   -7.7568    1.7658   27.2915 N   0  0  0  0  0  0  0  0  0  0  0  0
   -6.4005    1.6360   27.6346 C   0  0  0  0  0  0  0  0  0  0  0  0
   -5.9077    0.3540   27.9985 C   0  0  0  0  0  0  0  0  0  0  0  0
   -4.5480    0.2275   28.4459 C   0  0  0  0  0  0  0  0  0  0  0  0
   -3.8543    1.4509   28.6253 C   0  0  0  0  0  0  0  0  0  0  0  0
   -5.6056    2.5918   27.9595 F   0  0  0  0  0  0  0  0  0  0  0  0
  4  7  1  0
  7  8  2  0
  7  9  1  0
  2 10  1  0
 10 11  1  0
 11 12  2  3
 12 13  1  0
 13 14  2  0
 11 15  1  0
  1  2  2  0
  2  3  1  0
  3  6  2  0
  6  5  1  0
  5  4  2  0
  4  1  1  0
M  END
$$$$
