No_15-complexes_sdf/6BKW-FPZ/2024-09-17-14-21-01/
     RDKit          3D

 15 16  0  0  0  0  0  0  0  0999 V2000
   -7.9040    3.9820   27.1177 C   0  0  0  0  0  0  0  0  0  0  0  0
   -7.8663    4.8694   27.9238 C   0  0  0  0  0  0  0  0  0  0  0  0
   -9.0491    3.8523   26.2542 C   0  0  0  0  0  0  0  0  0  0  0  0
   -8.7661    5.9491   27.9690 C   0  0  0  0  0  0  0  0  0  0  0  0
   -9.9295    4.8502   26.2323 C   0  0  0  0  0  0  0  0  0  0  0  0
   -8.5466    7.0933   28.6290 C   0  0  0  0  0  0  0  0  0  0  0  0
   -9.7560    5.9190   27.0016 C   0  0  0  0  0  0  0  0  0  0  0  0
   -9.1232    2.4923   25.1474 Cl  0  0  0  0  0  0  0  0  0  0  0  0
   -6.8289    2.5763   27.1706 Cl  0  0  0  0  0  0  0  0  0  0  0  0
  -10.9219    4.5318   25.2021 C   0  0  0  0  0  0  0  0  0  0  0  0
  -12.1531    3.9744   25.4737 C   0  0  0  0  0  0  0  0  0  0  0  0
  -13.1157    3.8446   24.5030 C   0  0  0  0  0  0  0  0  0  0  0  0
  -12.8043    4.2961   23.1751 C   0  0  0  0  0  0  0  0  0  0  0  0
  -11.5462    4.8765   22.8819 C   0  0  0  0  0  0  0  0  0  0  0  0
  -10.5758    5.0197   23.8877 C   0  0  0  0  0  0  0  0  0  0  0  0
  4  6  1  0
  3  8  1  0
  1  9  1  0
  5 10  1  0
 10 11  2  0
 11 12  1  0
 12 13  2  0
 13 14  1  0
 14 15  2  0
 15 10  1  0
  1  2  2  0
  2  4  1  0
  4  7  2  0
  7  5  1  0
  5  3  2  0
  3  1  1  0
M  END
$$$$
