No_1425-complexes_sdf/6BKW-FPZ/2024-09-17-14-21-01/
     RDKit          3D

 40 46  0  0  0  0  0  0  0  0999 V2000
   -7.2496    3.8871   27.4508 C   0  0  0  0  0  0  0  0  0  0  0  0
   -7.9379    4.9063   27.8518 C   0  0  0  0  0  0  0  0  0  0  0  0
   -7.5112    6.1898   27.6280 C   0  0  0  0  0  0  0  0  0  0  0  0
   -9.3085    4.6933   28.2930 C   0  0  0  0  0  0  0  0  0  0  0  0
   -7.7803    2.5137   27.6845 C   0  0  0  0  0  0  0  0  0  0  0  0
   -7.0499    1.4112   27.1570 C   0  0  0  0  0  0  0  0  0  0  0  0
   -7.2196    0.1763   27.6296 C   0  0  0  0  0  0  0  0  0  0  0  0
   -6.1689   -0.5748   28.1018 C   0  0  0  0  0  0  0  0  0  0  0  0
   -6.3706   -1.8147   28.7043 C   0  0  0  0  0  0  0  0  0  0  0  0
   -9.9029    3.4490   28.4214 C   0  0  0  0  0  0  0  0  0  0  0  0
   -9.1093    2.3947   28.0187 C   0  0  0  0  0  0  0  0  0  0  0  0
   -7.7077   -2.2783   28.7985 C   0  0  0  0  0  0  0  0  0  0  0  0
   -8.7513   -1.5538   28.2722 C   0  0  0  0  0  0  0  0  0  0  0  0
   -8.5323   -0.3148   27.7584 C   0  0  0  0  0  0  0  0  0  0  0  0
  -11.2920    3.2669   28.8328 C   0  0  0  0  0  0  0  0  0  0  0  0
  -11.9819    2.0691   28.6592 C   0  0  0  0  0  0  0  0  0  0  0  0
  -13.1473    1.8424   29.3445 C   0  0  0  0  0  0  0  0  0  0  0  0
  -13.7905    0.5895   29.2373 C   0  0  0  0  0  0  0  0  0  0  0  0
  -13.1816   -0.3811   28.4133 C   0  0  0  0  0  0  0  0  0  0  0  0
  -12.0200   -0.1471   27.7278 C   0  0  0  0  0  0  0  0  0  0  0  0
  -11.3756    1.0923   27.9077 C   0  0  0  0  0  0  0  0  0  0  0  0
   -9.9551    1.2155   27.5013 C   0  0  0  0  0  0  0  0  0  0  0  0
  -10.0000    0.7403   26.2344 O   0  0  0  0  0  0  0  0  0  0  0  0
   -9.3968    0.1967   26.9416 C   0  0  2  0  0  0  0  0  0  0  0  0
   -9.5374   -1.2015   26.1546 C   0  0  2  0  0  0  0  0  0  0  0  0
   -8.6442    0.4841   25.9988 O   0  0  0  0  0  0  0  0  0  0  0  0
   -8.2733    0.2408   24.8218 C   0  0  0  0  0  0  0  0  0  0  0  0
   -9.0337   -1.1390   24.8834 C   0  0  1  0  0  0  0  0  0  0  0  0
  -11.0034   -1.6523   25.8327 C   0  0  2  0  0  0  0  0  0  0  0  0
   -7.9490   -2.2733   24.5736 C   0  0  0  0  0  0  0  0  0  0  0  0
   -9.9555   -1.1007   23.6666 C   0  0  0  0  0  0  0  0  0  0  0  0
  -11.4785   -2.7913   26.2669 C   0  0  0  0  0  0  0  0  0  0  0  0
  -11.6090   -1.0053   24.8226 C   0  0  1  0  0  0  0  0  0  0  0  0
  -12.1528    0.2570   25.0544 C   0  0  0  0  0  0  0  0  0  0  0  0
  -10.0475   -1.0100   22.4543 C   0  0  0  0  0  0  0  0  0  0  0  0
  -11.1665   -1.3411   24.1748 N   0  0  0  0  0  0  0  0  0  0  0  0
  -11.7235   -1.9772   22.9919 C   0  0  0  0  0  0  0  0  0  0  0  0
   -9.7507   -0.5857   22.7794 O   0  0  0  0  0  0  0  0  0  0  0  0
  -12.2958   -1.6475   23.6807 Br  0  0  0  0  0  0  0  0  0  0  0  0
   -9.1751   -1.9309   23.5692 O   0  0  0  0  0  0  0  0  0  0  0  0
  2  3  1  0
  5  6  1  0
  6  7  1  0
 22 23  1  0
 14 24  1  0
 24 23  1  6
 25 24  1  6
 24 26  1  0
 26 27  1  0
 25 28  1  0
 28 27  1  1
 25 29  1  0
 28 30  1  0
 28 31  1  0
 29 32  1  6
 29 33  1  0
 33 34  1  1
 31 35  2  3
 33 36  1  0
 36 37  1  0
 35 38  1  0
 37 39  1  0
 30 40  1  0
 31 40  1  0
  1  2  2  0
  2  4  1  0
  4 10  2  0
 11  5  2  0
  5  1  1  0
  7  8  2  0
  8  9  1  0
  9 12  2  0
 12 13  1  0
 13 14  2  0
 14  7  1  0
 10 11  1  0
 11 22  1  0
 22 21  2  0
 16 15  2  0
 15 10  1  0
 16 17  1  0
 17 18  2  0
 18 19  1  0
 19 20  2  0
 20 21  1  0
 21 16  1  0
M  END
$$$$
