No_1236-complexes_sdf/6BKW-FPZ/2024-09-17-14-21-01/
     RDKit          3D

 24 26  0  0  0  0  0  0  0  0999 V2000
   -7.7129    4.2099   27.0854 C   0  0  0  0  0  0  0  0  0  0  0  0
   -8.2112    3.0637   26.9225 C   0  0  0  0  0  0  0  0  0  0  0  0
   -7.5138    1.9223   27.4249 C   0  0  0  0  0  0  0  0  0  0  0  0
   -8.5309    5.4147   26.8151 C   0  0  0  0  0  0  0  0  0  0  0  0
   -9.6817    5.2393   26.1100 C   0  0  0  0  0  0  0  0  0  0  0  0
  -10.1032    3.9957   25.8534 C   0  0  0  0  0  0  0  0  0  0  0  0
   -9.4035    2.8430   26.2573 C   0  0  0  0  0  0  0  0  0  0  0  0
   -6.1405    1.9750   27.8101 C   0  0  0  0  0  0  0  0  0  0  0  0
   -5.4236    0.8182   28.2098 C   0  0  0  0  0  0  0  0  0  0  0  0
   -6.0618   -0.3957   28.1359 C   0  0  0  0  0  0  0  0  0  0  0  0
   -7.8024    0.5164   27.2401 C   0  0  0  0  0  0  0  0  0  0  0  0
   -7.2816   -0.5048   27.7106 C   0  0  0  0  0  0  0  0  0  0  0  0
   -7.7954    6.6761   27.1197 C   0  0  0  0  0  0  0  0  0  0  0  0
   -4.0224    1.0227   28.7346 C   0  0  0  0  0  0  0  0  0  0  0  0
   -3.6094    0.3934   29.7256 O   0  0  0  0  0  0  0  0  0  0  0  0
   -8.5529    7.8419   26.9342 N   0  0  0  0  0  0  0  0  0  0  0  0
   -6.9871    6.7517   28.0941 O   0  0  0  0  0  0  0  0  0  0  0  0
   -3.1705    1.6399   27.9324 O   0  0  0  0  0  0  0  0  0  0  0  0
  -11.3778    3.6479   25.1923 C   0  0  0  0  0  0  0  0  0  0  0  0
  -12.5351    3.4283   25.8486 C   0  0  0  0  0  0  0  0  0  0  0  0
  -13.7350    3.3334   25.2547 C   0  0  0  0  0  0  0  0  0  0  0  0
  -11.3926    3.7070   23.7625 C   0  0  0  0  0  0  0  0  0  0  0  0
  -12.5813    3.6479   23.0803 C   0  0  0  0  0  0  0  0  0  0  0  0
  -13.7527    3.4563   23.8189 C   0  0  0  0  0  0  0  0  0  0  0  0
  2  3  1  0
  4 13  1  0
  9 14  1  0
 14 15  1  0
 13 16  1  0
 13 17  2  0
 14 18  1  0
  6 19  1  0
 19 20  2  0
 20 21  1  0
 21 24  2  0
 24 23  1  0
 23 22  2  0
 22 19  1  0
  3  8  2  0
  8  9  1  0
  9 10  2  0
 10 12  1  0
 12 11  2  0
 11  3  1  0
  1  2  2  0
  2  7  1  0
  7  6  2  0
  6  5  1  0
  5  4  2  0
  4  1  1  0
M  END
$$$$
