No_1231-complexes_sdf/6BKW-FPZ/2024-09-17-14-21-01/
     RDKit          3D

 13 14  0  0  0  0  0  0  0  0999 V2000
   -7.9040    3.9820   27.1177 C   0  0  0  0  0  0  0  0  0  0  0  0
   -7.8663    4.8694   27.9238 C   0  0  0  0  0  0  0  0  0  0  0  0
   -9.0491    3.8523   26.2542 C   0  0  0  0  0  0  0  0  0  0  0  0
   -8.7661    5.9491   27.9690 C   0  0  0  0  0  0  0  0  0  0  0  0
   -9.9295    4.8502   26.2323 C   0  0  0  0  0  0  0  0  0  0  0  0
   -9.8077    5.9288   27.0933 C   0  0  0  0  0  0  0  0  0  0  0  0
   -7.1473    2.8227   27.0397 N   0  0  0  0  0  0  0  0  0  0  0  0
   -6.1772    2.6584   27.9698 C   0  0  0  0  0  0  0  0  0  0  0  0
   -5.3708    1.3994   27.8213 C   0  0  0  0  0  0  0  0  0  0  0  0
   -5.8145    0.4296   27.0758 C   0  0  0  0  0  0  0  0  0  0  0  0
   -7.4587    1.5786   26.4689 C   0  0  0  0  0  0  0  0  0  0  0  0
   -6.8869    0.5168   26.4561 N   0  0  0  0  0  0  0  0  0  0  0  0
   -8.6552    1.6811   25.7522 O   0  0  0  0  0  0  0  0  0  0  0  0
  1  7  1  0
  7  8  1  0
  9 10  1  0
  7 11  1  0
 11 12  1  0
 11 13  2  0
  8  9  1  0
 10 12  1  0
  1  2  2  0
  2  4  1  0
  4  6  2  0
  6  5  1  0
  5  3  2  0
  3  1  1  0
M  END
$$$$
