No_1504-complexes_sdf/6BKW-FPZ/2024-09-17-14-21-01/
     RDKit          3D

 17 18  0  0  0  0  0  0  0  0999 V2000
   -7.9040    3.9820   27.1177 C   0  0  0  0  0  0  0  0  0  0  0  0
   -7.8663    4.8694   27.9238 C   0  0  0  0  0  0  0  0  0  0  0  0
   -9.0491    3.8523   26.2542 C   0  0  0  0  0  0  0  0  0  0  0  0
   -8.7661    5.9491   27.9690 C   0  0  0  0  0  0  0  0  0  0  0  0
   -9.9295    4.8502   26.2323 C   0  0  0  0  0  0  0  0  0  0  0  0
   -9.8077    5.9288   27.0933 C   0  0  0  0  0  0  0  0  0  0  0  0
   -6.9606    2.7994   27.1981 C   0  0  0  0  0  0  0  0  0  0  0  0
   -5.8113    2.9359   27.9439 C   0  0  0  0  0  0  0  0  0  0  0  0
   -4.9230    1.8028   28.0387 C   0  0  0  0  0  0  0  0  0  0  0  0
   -5.3041    0.5559   27.6500 C   0  0  0  0  0  0  0  0  0  0  0  0
   -7.3629    1.5022   26.8531 C   0  0  0  0  0  0  0  0  0  0  0  0
   -6.5674    0.4118   27.1293 C   0  0  0  0  0  0  0  0  0  0  0  0
   -4.4443   -0.5779   27.9206 C   0  0  0  0  0  0  0  0  0  0  0  0
   -3.5972   -0.3025   28.7120 F   0  0  0  0  0  0  0  0  0  0  0  0
   -5.2395   -1.5982   28.3798 F   0  0  0  0  0  0  0  0  0  0  0  0
   -3.9252   -0.9868   26.7236 F   0  0  0  0  0  0  0  0  0  0  0  0
  -11.1914    4.7764   25.0693 Cl  0  0  0  0  0  0  0  0  0  0  0  0
  1  7  1  0
 10 13  1  0
 13 14  1  0
 13 15  1  0
 13 16  1  0
  5 17  1  0
  7  8  2  0
  8  9  1  0
  9 10  2  0
 10 12  1  0
 12 11  2  0
 11  7  1  0
  1  2  2  0
  2  4  1  0
  4  6  2  0
  6  5  1  0
  5  3  2  0
  3  1  1  0
M  END
$$$$
