No_1441-complexes_sdf/6BKW-FPZ/2024-09-17-14-21-01/
     RDKit          3D

 24 27  0  0  0  0  0  0  0  0999 V2000
   -7.7129    4.2099   27.0854 C   0  0  0  0  0  0  0  0  0  0  0  0
   -7.7814    5.1722   27.8972 C   0  0  0  0  0  0  0  0  0  0  0  0
   -8.8776    3.8408   26.3416 C   0  0  0  0  0  0  0  0  0  0  0  0
   -9.9844    4.6492   26.4743 C   0  0  0  0  0  0  0  0  0  0  0  0
   -8.8033    6.1375   27.8728 C   0  0  0  0  0  0  0  0  0  0  0  0
   -9.9554    5.8280   27.1736 C   0  0  0  0  0  0  0  0  0  0  0  0
   -8.8651    2.7495   25.6146 F   0  0  0  0  0  0  0  0  0  0  0  0
  -11.1457    4.3234   25.6440 C   0  0  0  0  0  0  0  0  0  0  0  0
  -12.3783    4.1200   26.1646 C   0  0  0  0  0  0  0  0  0  0  0  0
  -13.5058    3.8387   25.3880 C   0  0  0  0  0  0  0  0  0  0  0  0
  -13.2779    3.6778   23.9974 C   0  0  0  0  0  0  0  0  0  0  0  0
  -10.9949    4.1686   24.2252 C   0  0  0  0  0  0  0  0  0  0  0  0
  -12.0120    3.9384   23.4553 C   0  0  0  0  0  0  0  0  0  0  0  0
   -6.6822    5.5923   28.6071 F   0  0  0  0  0  0  0  0  0  0  0  0
  -11.8244    3.8005   21.9894 C   0  0  0  0  0  0  0  0  0  0  0  0
  -10.5479    3.9756   21.6303 C   0  0  0  0  0  0  0  0  0  0  0  0
  -10.2839    3.7702   20.2314 C   0  0  0  0  0  0  0  0  0  0  0  0
  -11.2848    3.5077   19.3188 C   0  0  0  0  0  0  0  0  0  0  0  0
  -12.5801    3.4076   19.8004 C   0  0  0  0  0  0  0  0  0  0  0  0
  -12.8859    3.5615   21.1752 C   0  0  0  0  0  0  0  0  0  0  0  0
  -14.7976    3.6654   25.9435 C   0  0  0  0  0  0  0  0  0  0  0  0
  -15.0418    3.5397   27.1610 C   0  0  0  0  0  0  0  0  0  0  0  0
  -14.1668    3.7860   28.0328 C   0  0  0  0  0  0  0  0  0  0  0  0
  -12.7141    4.0535   27.6631 C   0  0  0  0  0  0  0  0  0  0  0  0
  3  7  1  0
  4  8  1  0
  2 14  1  0
 13 15  1  0
 15 16  2  0
 16 17  1  0
 17 18  2  0
 18 19  1  0
 19 20  2  0
 20 15  1  0
 10 21  1  0
 21 22  2  0
 22 23  1  0
 23 24  2  0
 24  9  1  0
  1  2  2  0
  2  5  1  0
  5  6  2  0
  6  4  1  0
  4  3  2  0
  3  1  1  0
  8  9  2  0
  9 10  1  0
 10 11  2  0
 11 13  1  0
 13 12  2  0
 12  8  1  0
M  END
$$$$
