No_121-complexes_sdf/6BKW-FPZ/2024-09-17-14-21-01/
     RDKit          3D

  9  9  0  0  0  0  0  0  0  0999 V2000
   -7.7129    4.2099   27.0854 C   0  0  0  0  0  0  0  0  0  0  0  0
   -7.7814    5.1722   27.8972 C   0  0  0  0  0  0  0  0  0  0  0  0
   -8.8776    3.8408   26.3416 C   0  0  0  0  0  0  0  0  0  0  0  0
   -9.9844    4.6492   26.4743 C   0  0  0  0  0  0  0  0  0  0  0  0
   -8.8033    6.1375   27.8728 C   0  0  0  0  0  0  0  0  0  0  0  0
   -9.9554    5.8281   27.1737 C   0  0  0  0  0  0  0  0  0  0  0  0
   -8.8751    2.2843   25.3308 Br  0  0  0  0  0  0  0  0  0  0  0  0
  -11.0506    4.3905   25.7196 F   0  0  0  0  0  0  0  0  0  0  0  0
   -6.6667    5.5712   28.6020 O   0  0  0  0  0  0  0  0  0  0  0  0
  3  7  1  0
  4  8  1  0
  2  9  1  0
  1  2  2  0
  2  5  1  0
  5  6  2  0
  6  4  1  0
  4  3  2  0
  3  1  1  0
M  END
$$$$
