No_1833-complexes_sdf/6BKW-FPZ/2024-09-17-14-21-01/
     RDKit          3D

 10 10  0  0  0  0  0  0  0  0999 V2000
   -7.9040    3.9820   27.1177 C   0  0  0  0  0  0  0  0  0  0  0  0
   -7.8663    4.8694   27.9238 C   0  0  0  0  0  0  0  0  0  0  0  0
   -9.0491    3.8523   26.2542 C   0  0  0  0  0  0  0  0  0  0  0  0
   -8.7661    5.9491   27.9690 C   0  0  0  0  0  0  0  0  0  0  0  0
   -9.9295    4.8502   26.2323 C   0  0  0  0  0  0  0  0  0  0  0  0
   -9.8077    5.9288   27.0933 C   0  0  0  0  0  0  0  0  0  0  0  0
   -6.9377    2.5632   27.0872 Cl  0  0  0  0  0  0  0  0  0  0  0  0
   -9.2003    2.4388   24.9918 Br  0  0  0  0  0  0  0  0  0  0  0  0
  -10.8970    4.8676   25.3338 F   0  0  0  0  0  0  0  0  0  0  0  0
   -6.7650    5.0022   28.7773 O   0  0  0  0  0  0  0  0  0  0  0  0
  1  7  1  0
  3  8  1  0
  5  9  1  0
  2 10  1  0
  1  2  2  0
  2  4  1  0
  4  6  2  0
  6  5  1  0
  5  3  2  0
  3  1  1  0
M  END
$$$$
