No_1049-complexes_sdf/6BKW-FPZ/2024-09-17-14-21-01/
     RDKit          3D

 36 43  0  0  0  0  0  0  0  0999 V2000
   -7.7129    4.2099   27.0854 C   0  0  0  0  0  0  0  0  0  0  0  0
   -7.7814    5.1722   27.8972 C   0  0  0  0  0  0  0  0  0  0  0  0
   -8.7889    3.2468   27.2220 C   0  0  0  0  0  0  0  0  0  0  0  0
   -8.5940    1.9755   26.6525 C   0  0  0  0  0  0  0  0  0  0  0  0
   -7.5537    1.2112   27.0910 C   0  0  0  0  0  0  0  0  0  0  0  0
   -8.9922    5.8883   28.1677 C   0  0  0  0  0  0  0  0  0  0  0  0
   -9.9703    3.6893   27.7341 C   0  0  0  0  0  0  0  0  0  0  0  0
  -11.1076    2.8347   27.7817 C   0  0  2  0  0  0  0  0  0  0  0  0
  -10.0809    4.9909   28.2635 C   0  0  0  0  0  0  0  0  0  0  0  0
   -7.3445   -0.0908   26.6311 C   0  0  0  0  0  0  0  0  0  0  0  0
   -8.3086   -0.6348   25.8162 C   0  0  0  0  0  0  0  0  0  0  0  0
   -9.4008    0.1176   25.3998 C   0  0  0  0  0  0  0  0  0  0  0  0
   -9.5351    1.4161   25.8508 C   0  0  0  0  0  0  0  0  0  0  0  0
  -12.1311    3.2151   28.6850 C   0  0  0  0  0  0  0  0  0  0  0  0
  -13.2760    2.3859   28.9412 C   0  0  0  0  0  0  0  0  0  0  0  0
  -13.2636    1.1842   28.2269 C   0  0  0  0  0  0  0  0  0  0  0  0
  -12.2563    0.7744   27.3960 C   0  0  1  0  0  0  0  0  0  0  0  0
  -11.1581    1.5823   27.2627 C   0  0  1  0  0  0  0  0  0  0  0  0
  -10.2015    1.6316   26.2941 N   0  0  0  0  0  0  0  0  0  0  0  0
  -11.2983    1.7807   25.1973 C   0  0  0  0  0  0  0  0  0  0  0  0
  -11.3940    3.0963   24.8696 C   0  0  0  0  0  0  0  0  0  0  0  0
  -12.4508    3.4778   23.9785 C   0  0  0  0  0  0  0  0  0  0  0  0
  -12.5307    1.0774   25.3912 C   0  0  0  0  0  0  0  0  0  0  0  0
  -11.7579   -0.4527   27.4850 N   0  0  0  0  0  0  0  0  0  0  0  0
  -13.3748    1.0949   24.2493 C   0  0  0  0  0  0  0  0  0  0  0  0
  -12.7655    0.3275   26.3596 N   0  0  0  0  0  0  0  0  0  0  0  0
  -13.5957    2.5893   23.9034 C   0  0  0  0  0  0  0  0  0  0  0  0
  -12.0174   -1.7100   27.7463 C   0  0  1  0  0  0  0  0  0  0  0  0
  -13.7277   -0.8098   26.1034 C   0  0  0  0  0  0  0  0  0  0  0  0
  -13.4468   -1.9875   26.6165 C   0  0  0  0  0  0  0  0  0  0  0  0
  -11.5606   -2.7322   28.4100 C   0  0  0  0  0  0  0  0  0  0  0  0
  -10.8555   -2.3090   29.5806 C   0  0  0  0  0  0  0  0  0  0  0  0
  -10.1045   -3.1870   30.4100 C   0  0  0  0  0  0  0  0  0  0  0  0
  -10.1831   -4.5174   30.0823 C   0  0  0  0  0  0  0  0  0  0  0  0
  -11.5060   -4.0770   28.2027 C   0  0  0  0  0  0  0  0  0  0  0  0
  -10.8343   -4.9717   28.9662 C   0  0  0  0  0  0  0  0  0  0  0  0
  3  4  1  0
  7  8  1  0
 14 15  1  0
 17 16  1  1
  8 18  1  0
 17 18  1  0
 13 19  1  0
 18 19  1  6
 19 20  1  0
 17 24  1  0
 17 26  1  0
 23 26  1  0
 24 28  1  0
 26 29  1  0
 28 31  1  6
 28 30  1  0
 30 29  1  0
 16 15  1  0
  8 14  1  1
  4  5  2  0
  5 10  1  0
 10 11  2  0
 11 12  1  0
 12 13  2  0
 13  4  1  0
 31 32  2  0
 32 33  1  0
 33 34  2  0
 34 36  1  0
 36 35  2  0
 35 31  1  0
  1  2  2  0
  2  6  1  0
  6  9  2  0
  9  7  1  0
  7  3  2  0
  3  1  1  0
 20 21  2  0
 21 22  1  0
 22 27  2  0
 27 25  1  0
 25 23  2  0
 23 20  1  0
M  END
$$$$
