No_1977-complexes_sdf/6BKW-FPZ/2024-09-17-14-21-01/
     RDKit          3D

 11 10  0  0  0  0  0  0  0  0999 V2000
   -7.9040    3.9820   27.1177 C   0  0  0  0  0  0  0  0  0  0  0  0
   -9.0711    4.3164   27.0630 C   0  0  0  0  0  0  0  0  0  0  0  0
   -9.8698    3.9665   25.9494 C   0  0  0  0  0  0  0  0  0  0  0  0
   -7.0332    4.5030   28.2025 C   0  0  0  0  0  0  0  0  0  0  0  0
  -10.9909    4.7237   25.5958 C   0  0  0  0  0  0  0  0  0  0  0  0
   -7.4989    5.5572   28.9524 C   0  0  0  0  0  0  0  0  0  0  0  0
  -11.7350    4.2316   24.5284 C   0  0  0  0  0  0  0  0  0  0  0  0
  -11.2912    3.1970   23.7185 C   0  0  0  0  0  0  0  0  0  0  0  0
  -10.1586    2.5464   24.0389 C   0  0  0  0  0  0  0  0  0  0  0  0
   -9.3966    2.9844   25.1500 C   0  0  0  0  0  0  0  0  0  0  0  0
   -9.6165    3.0024   25.5772 Br  0  0  0  0  0  0  0  0  0  0  0  0
  1  2  1  0
  2  3  2  3
  1  4  1  0
  3  5  1  0
  4  6  2  0
  5  7  2  3
  7  8  1  0
  8  9  2  3
  9 10  1  0
 10 11  1  0
M  END
$$$$
