No_1929-complexes_sdf/6BKW-FPZ/2024-09-17-14-21-01/
     RDKit          3D

  8  8  0  0  0  0  0  0  0  0999 V2000
   -7.7129    4.2099   27.0854 C   0  0  0  0  0  0  0  0  0  0  0  0
   -8.9133    4.4736   27.0998 C   0  0  0  0  0  0  0  0  0  0  0  0
   -9.8363    3.8127   27.2418 C   0  0  0  0  0  0  0  0  0  0  0  0
   -7.3328    2.8873   27.3965 C   0  0  0  0  0  0  0  0  0  0  0  0
  -11.2512    4.1351   27.3500 C   0  0  0  0  0  0  0  0  0  0  0  0
   -8.3421    1.9461   27.5030 C   0  0  0  0  0  0  0  0  0  0  0  0
   -9.6295    2.3958   27.5129 C   0  0  0  0  0  0  0  0  0  0  0  0
  -11.8431    4.6463   28.1905 C   0  0  0  0  0  0  0  0  0  0  0  0
  5  8  1  0
  5  3  1  0
  1  2  2  0
  2  3  1  0
  3  7  2  0
  7  6  1  0
  6  4  2  0
  4  1  1  0
M  END
$$$$
