No_1886-complexes_sdf/6BKW-FPZ/2024-09-17-14-21-01/
     RDKit          3D

 37 41  0  0  0  0  0  0  0  0999 V2000
   -7.7129    4.2099   27.0854 C   0  0  0  0  0  0  0  0  0  0  0  0
   -8.2112    3.0637   26.9225 C   0  0  0  0  0  0  0  0  0  0  0  0
   -8.5108    5.3904   26.9436 C   0  0  0  0  0  0  0  0  0  0  0  0
   -9.7256    5.1955   26.3518 C   0  0  0  0  0  0  0  0  0  0  0  0
   -9.4995    2.8258   26.4878 C   0  0  0  0  0  0  0  0  0  0  0  0
  -10.2542    3.9691   26.2055 C   0  0  0  0  0  0  0  0  0  0  0  0
   -7.7479    7.0774   27.2574 Br  0  0  0  0  0  0  0  0  0  0  0  0
   -7.3654    1.8388   27.2499 C   0  0  0  0  0  0  0  0  0  0  0  0
   -6.0665    2.0181   27.7757 C   0  0  0  0  0  0  0  0  0  0  0  0
   -5.2531    0.8661   28.0584 C   0  0  0  0  0  0  0  0  0  0  0  0
   -5.7517   -0.3942   27.9097 C   0  0  0  0  0  0  0  0  0  0  0  0
   -7.7904    0.5283   27.1167 C   0  0  0  0  0  0  0  0  0  0  0  0
   -9.1517    0.3811   26.6887 C   0  0  0  0  0  0  0  0  0  0  0  0
   -7.0331   -0.5392   27.4983 C   0  0  0  0  0  0  0  0  0  0  0  0
   -9.8375   -0.8559   26.5639 C   0  0  0  0  0  0  0  0  0  0  0  0
   -9.9175    1.6182   26.3813 C   0  0  0  0  0  0  0  0  0  0  0  0
   -4.0277    1.1669   28.5273 F   0  0  0  0  0  0  0  0  0  0  0  0
  -11.0362   -0.8496   26.7850 N   0  0  0  0  0  0  0  0  0  0  0  0
  -11.9338    0.1570   26.5416 C   0  0  0  0  0  0  0  0  0  0  0  0
  -11.3865    1.3027   26.3754 C   0  0  0  0  0  0  0  0  0  0  0  0
  -13.3501   -0.0867   26.5159 C   0  0  0  0  0  0  0  0  0  0  0  0
  -14.0360    0.6838   26.3097 O   0  0  0  0  0  0  0  0  0  0  0  0
  -13.7430   -1.3346   26.7714 O   0  0  0  0  0  0  0  0  0  0  0  0
   -4.8975   -1.5144   28.3816 C   0  0  0  0  0  0  0  0  0  0  0  0
   -3.8353   -1.1376   28.8772 F   0  0  0  0  0  0  0  0  0  0  0  0
   -4.6911   -2.3276   27.3030 F   0  0  0  0  0  0  0  0  0  0  0  0
   -5.6868   -2.3378   29.1842 F   0  0  0  0  0  0  0  0  0  0  0  0
  -14.8977   -1.5969   27.0730 C   0  0  0  0  0  0  0  0  0  0  0  0
  -15.3363   -2.9744   27.3029 C   0  0  2  0  0  0  0  0  0  0  0  0
  -14.4032   -3.8724   27.4508 C   0  0  0  0  0  0  0  0  0  0  0  0
  -13.4957   -3.7714   28.2996 C   0  0  0  0  0  0  0  0  0  0  0  0
  -12.4037   -4.7723   28.5456 C   0  0  0  0  0  0  0  0  0  0  0  0
  -12.4592   -5.8672   27.7221 C   0  0  0  0  0  0  0  0  0  0  0  0
  -13.4417   -6.0158   26.8067 C   0  0  0  0  0  0  0  0  0  0  0  0
  -14.3959   -5.0602   26.6721 C   0  0  0  0  0  0  0  0  0  0  0  0
  -16.6983   -3.3531   27.2124 C   0  0  0  0  0  0  0  0  0  0  0  0
  -17.1924   -3.9394   28.0688 O   0  0  0  0  0  0  0  0  0  0  0  0
  3  7  1  0
 10 17  1  0
 19 21  1  0
 21 22  2  0
 21 23  1  0
 11 24  1  0
 24 25  1  0
 24 26  1  0
 24 27  1  0
 23 28  1  0
 29 28  1  6
 29 30  1  0
 29 36  1  0
 36 37  2  0
  8  9  2  0
  9 10  1  0
 10 11  2  0
 11 14  1  0
 14 12  2  0
 30 31  2  0
 31 32  1  0
 32 33  2  0
 33 34  1  0
 34 35  2  0
 35 30  1  0
 13 15  2  0
 15 18  1  0
 18 19  2  0
 19 20  1  0
 20 16  2  0
  5 16  1  0
 16 13  1  0
 13 12  1  0
 12  8  1  0
  8  2  1  0
  1  2  2  0
  2  5  1  0
  5  6  2  0
  6  4  1  0
  4  3  2  0
  3  1  1  0
M  END
$$$$
