No_1529-complexes_sdf/6BKW-FPZ/2024-09-17-14-21-01/
     RDKit          3D

 19 20  0  0  0  0  0  0  0  0999 V2000
   -7.9040    3.9820   27.1177 C   0  0  0  0  0  0  0  0  0  0  0  0
   -8.2057    2.8231   26.8733 C   0  0  0  0  0  0  0  0  0  0  0  0
   -9.2962    2.4021   26.1155 C   0  0  0  0  0  0  0  0  0  0  0  0
   -8.7358    5.0662   26.5917 C   0  0  0  0  0  0  0  0  0  0  0  0
   -9.7618    4.7023   25.7546 C   0  0  0  0  0  0  0  0  0  0  0  0
  -10.0066    3.4105   25.4922 C   0  0  0  0  0  0  0  0  0  0  0  0
   -8.6255    6.4891   26.8817 C   0  0  0  0  0  0  0  0  0  0  0  0
   -8.4257    6.9343   28.1014 N   0  0  0  0  0  0  0  0  0  0  0  0
   -8.3091    7.3451   25.9145 N   0  0  0  0  0  0  0  0  0  0  0  0
   -7.4372    1.8049   27.4771 F   0  0  0  0  0  0  0  0  0  0  0  0
  -11.1008    3.0703   24.5592 C   0  0  0  0  0  0  0  0  0  0  0  0
  -10.7886    2.7124   23.3047 C   0  0  0  0  0  0  0  0  0  0  0  0
  -11.6751    2.5715   22.2913 C   0  0  0  0  0  0  0  0  0  0  0  0
  -13.0541    2.9127   22.5882 C   0  0  0  0  0  0  0  0  0  0  0  0
  -12.3946    3.5291   24.7756 C   0  0  0  0  0  0  0  0  0  0  0  0
  -13.3541    3.4601   23.8394 C   0  0  0  0  0  0  0  0  0  0  0  0
  -14.0422    2.7823   21.5337 C   0  0  0  0  0  0  0  0  0  0  0  0
  -15.2934    2.8651   21.7443 C   0  0  0  0  0  0  0  0  0  0  0  0
  -15.6312    3.5096   23.0655 C   0  0  0  0  0  0  0  0  0  0  0  0
  4  7  1  0
  7  8  2  0
  7  9  1  0
  2 10  1  0
  6 11  1  0
 14 17  1  0
 17 18  2  3
 18 19  1  0
  1  2  2  0
  2  3  1  0
  3  6  2  0
  6  5  1  0
  5  4  2  0
  4  1  1  0
 11 12  2  0
 12 13  1  0
 13 14  2  0
 14 16  1  0
 16 15  2  0
 15 11  1  0
M  END
$$$$
