No_1932-complexes_sdf/6BKW-FPZ/2024-09-17-14-21-01/
     RDKit          3D

 31 34  0  0  0  0  0  0  0  0999 V2000
   -7.9040    3.9820   27.1177 C   0  0  0  0  0  0  0  0  0  0  0  0
   -8.2057    2.8231   26.8733 C   0  0  0  0  0  0  0  0  0  0  0  0
   -9.2962    2.4021   26.1155 C   0  0  0  0  0  0  0  0  0  0  0  0
   -8.7358    5.0662   26.5917 C   0  0  0  0  0  0  0  0  0  0  0  0
   -8.4603    6.4492   26.8781 C   0  0  0  0  0  0  0  0  0  0  0  0
  -10.1146    3.3815   25.6105 C   0  0  0  0  0  0  0  0  0  0  0  0
   -9.8194    4.7235   25.8263 C   0  0  0  0  0  0  0  0  0  0  0  0
   -8.5562    7.3988   26.1032 N   0  0  0  0  0  0  0  0  0  0  0  0
   -7.3808    6.6130   27.8556 N   0  0  0  0  0  0  0  0  0  0  0  0
   -7.3258    1.6676   27.4454 C   0  0  0  0  0  0  0  0  0  0  0  0
   -6.1132    1.9434   27.8599 N   0  0  0  0  0  0  0  0  0  0  0  0
   -5.3269    0.8760   28.3063 C   0  0  0  0  0  0  0  0  0  0  0  0
   -5.7983   -0.3678   28.2968 C   0  0  0  0  0  0  0  0  0  0  0  0
   -7.6175    0.3167   27.4435 C   0  0  0  0  0  0  0  0  0  0  0  0
   -6.9761   -0.6533   27.9057 C   0  0  0  0  0  0  0  0  0  0  0  0
   -4.0235    1.2984   28.7675 N   0  0  0  0  0  0  0  0  0  0  0  0
  -11.2266    3.0817   24.7091 C   0  0  0  0  0  0  0  0  0  0  0  0
  -11.2561    2.1245   23.9703 C   0  0  0  0  0  0  0  0  0  0  0  0
  -12.3499    1.7906   23.0499 C   0  0  0  0  0  0  0  0  0  0  0  0
  -12.3553    0.6409   22.2533 C   0  0  0  0  0  0  0  0  0  0  0  0
  -11.1899   -0.1906   22.2463 C   0  0  0  0  0  0  0  0  0  0  0  0
  -10.0920    0.0810   23.0125 C   0  0  0  0  0  0  0  0  0  0  0  0
   -8.9217   -0.6808   23.0084 C   0  0  0  0  0  0  0  0  0  0  0  0
  -10.0670    1.1559   23.8074 C   0  0  0  0  0  0  0  0  0  0  0  0
   -8.7872   -1.8554   23.2093 N   0  0  0  0  0  0  0  0  0  0  0  0
   -9.4934   -2.5629   23.8302 C   0  0  0  0  0  0  0  0  0  0  0  0
   -9.2169   -3.9630   24.0573 C   0  0  0  0  0  0  0  0  0  0  0  0
   -7.6443   -2.5738   22.6002 C   0  0  0  0  0  0  0  0  0  0  0  0
   -7.3509   -3.8490   22.7065 C   0  0  0  0  0  0  0  0  0  0  0  0
   -8.1743   -4.5799   23.5271 C   0  0  0  0  0  0  0  0  0  0  0  0
   -7.7454    0.0576   22.8049 O   0  0  0  0  0  0  0  0  0  0  0  0
  4  5  1  0
  5  8  2  0
  5  9  1  0
  2 10  1  0
 12 16  1  0
  6 17  1  0
 22 23  1  0
 23 25  1  0
 25 26  1  0
 25 28  1  0
 27 30  1  0
 29 30  1  0
 23 31  2  0
 17 18  1  0
 26 27  1  0
 29 28  1  0
  1  2  2  0
  2  3  1  0
  3  6  2  0
  6  7  1  0
  7  4  2  0
  4  1  1  0
 18 19  2  0
 19 20  1  0
 20 21  2  0
 21 22  1  0
 22 24  2  0
 24 18  1  0
 10 11  2  0
 11 12  1  0
 12 13  2  0
 13 15  1  0
 15 14  2  0
 14 10  1  0
M  END
$$$$
