No_1848-complexes_sdf/6BKW-FPZ/2024-09-17-14-21-01/
     RDKit          3D

 15 16  0  0  0  0  0  0  0  0999 V2000
   -7.7129    4.2099   27.0854 C   0  0  0  0  0  0  0  0  0  0  0  0
   -8.2112    3.0637   26.9225 C   0  0  0  0  0  0  0  0  0  0  0  0
   -8.5108    5.3904   26.9436 C   0  0  0  0  0  0  0  0  0  0  0  0
   -9.7256    5.1955   26.3518 C   0  0  0  0  0  0  0  0  0  0  0  0
   -7.4704    1.8386   27.3272 C   0  0  0  0  0  0  0  0  0  0  0  0
   -9.4948    2.8714   26.4765 C   0  0  0  0  0  0  0  0  0  0  0  0
  -10.2383    3.9753   26.1836 C   0  0  0  0  0  0  0  0  0  0  0  0
   -7.8664    0.5502   27.1726 C   0  0  0  0  0  0  0  0  0  0  0  0
   -6.9845   -0.4632   27.3181 C   0  0  0  0  0  0  0  0  0  0  0  0
   -5.6784   -0.2198   27.7470 C   0  0  0  0  0  0  0  0  0  0  0  0
   -5.2275    1.0917   27.9290 C   0  0  0  0  0  0  0  0  0  0  0  0
   -6.0170    2.1080   27.6549 C   0  0  0  0  0  0  0  0  0  0  0  0
   -7.9380    6.7481   27.1592 C   0  0  0  0  0  0  0  0  0  0  0  0
   -8.6233    7.7967   26.8589 O   0  0  0  0  0  0  0  0  0  0  0  0
   -6.9839    6.9029   28.0836 O   0  0  0  0  0  0  0  0  0  0  0  0
  2  5  1  0
  3 13  1  0
 13 14  2  0
 13 15  1  0
  5  8  2  0
  8  9  1  0
  9 10  2  0
 10 11  1  0
 11 12  2  0
 12  5  1  0
  1  2  2  0
  2  6  1  0
  6  7  2  0
  7  4  1  0
  4  3  2  0
  3  1  1  0
M  END
$$$$
