No_1216-complexes_sdf/6BKW-FPZ/2024-09-17-14-21-01/
     RDKit          3D

 20 21  0  0  0  0  0  0  0  0999 V2000
   -7.2496    3.8871   27.4508 C   0  0  0  0  0  0  0  0  0  0  0  0
   -7.9379    4.9063   27.8518 C   0  0  1  0  0  0  0  0  0  0  0  0
   -7.5112    6.1898   27.6280 C   0  0  0  0  0  0  0  0  0  0  0  0
   -9.3085    4.6933   28.2930 C   0  0  0  0  0  0  0  0  0  0  0  0
   -6.9426    2.7754   27.7936 C   0  0  0  0  0  0  0  0  0  0  0  0
   -6.0488    1.8088   27.3015 C   0  0  0  0  0  0  0  0  0  0  0  0
   -6.2859    0.5468   27.4426 C   0  0  0  0  0  0  0  0  0  0  0  0
   -5.2446   -0.3044   27.9145 C   0  0  0  0  0  0  0  0  0  0  0  0
   -5.4717   -1.6421   28.2237 C   0  0  0  0  0  0  0  0  0  0  0  0
   -6.7580   -2.1323   27.8799 C   0  0  0  0  0  0  0  0  0  0  0  0
   -7.7352   -1.3817   27.3577 C   0  0  0  0  0  0  0  0  0  0  0  0
   -7.5222   -0.0130   27.2298 C   0  0  0  0  0  0  0  0  0  0  0  0
   -8.4364    7.1845   27.1818 N   0  0  0  0  0  0  0  0  0  0  0  0
  -10.2680    4.4206   27.4277 C   0  0  0  0  0  0  0  0  0  0  0  0
  -10.5327    3.4359   26.6729 C   0  0  0  0  0  0  0  0  0  0  0  0
  -10.3700    2.2821   26.9766 C   0  0  0  0  0  0  0  0  0  0  0  0
  -10.6422    1.0853   26.2165 C   0  0  0  0  0  0  0  0  0  0  0  0
  -10.9871    1.3309   24.9323 C   0  0  0  0  0  0  0  0  0  0  0  0
  -11.1473    2.6559   24.4395 C   0  0  0  0  0  0  0  0  0  0  0  0
  -10.9741    3.7307   25.2722 C   0  0  0  0  0  0  0  0  0  0  0  0
  1  2  1  0
  2  3  1  6
  2  4  1  0
  1  5  2  3
  5  6  1  0
  3 13  1  0
  4 14  2  3
 14 15  1  0
  6  7  1  0
 15 16  2  0
 16 17  1  0
 17 18  2  0
 18 19  1  0
 19 20  2  0
 20 15  1  0
  7  8  2  0
  8  9  1  0
  9 10  2  0
 10 11  1  0
 11 12  2  0
 12  7  1  0
M  END
$$$$
