No_196-complexes_sdf/6BKW-FPZ/2024-09-17-14-21-01/
     RDKit          3D

  6  6  0  0  0  0  0  0  0  0999 V2000
   -7.9040    3.9820   27.1177 C   0  0  0  0  0  0  0  0  0  0  0  0
   -8.2057    2.8231   26.8733 C   0  0  0  0  0  0  0  0  0  0  0  0
   -9.3234    2.2125   27.0599 C   0  0  0  0  0  0  0  0  0  0  0  0
   -9.0146    4.9428   27.2420 C   0  0  0  0  0  0  0  0  0  0  0  0
  -10.2851    4.4096   27.2820 C   0  0  0  0  0  0  0  0  0  0  0  0
  -10.4907    3.0453   27.2378 C   0  0  0  0  0  0  0  0  0  0  0  0
  1  2  2  0
  2  3  1  0
  3  6  2  0
  6  5  1  0
  5  4  2  0
  4  1  1  0
M  END
$$$$
