No_1296-complexes_sdf/6BKW-FPZ/2024-09-17-14-21-01/
     RDKit          3D

 19 20  0  0  0  0  0  0  0  0999 V2000
   -7.2496    3.8871   27.4508 C   0  0  0  0  0  0  0  0  0  0  0  0
   -8.5096    4.0291   27.2770 C   0  0  0  0  0  0  0  0  0  0  0  0
   -9.3451    2.8786   26.9046 C   0  0  0  0  0  0  0  0  0  0  0  0
   -6.6065    2.5680   27.5073 C   0  0  0  0  0  0  0  0  0  0  0  0
   -7.3970    1.4834   27.2271 C   0  0  0  0  0  0  0  0  0  0  0  0
   -8.7029    1.6398   26.9934 C   0  0  0  0  0  0  0  0  0  0  0  0
   -9.1085    5.3654   27.2135 C   0  0  0  0  0  0  0  0  0  0  0  0
   -8.5196    6.2304   26.6508 F   0  0  0  0  0  0  0  0  0  0  0  0
   -9.4014    5.8180   28.5693 F   0  0  0  0  0  0  0  0  0  0  0  0
  -10.4204    5.2702   26.6702 F   0  0  0  0  0  0  0  0  0  0  0  0
   -5.3503    2.5198   27.7968 F   0  0  0  0  0  0  0  0  0  0  0  0
   -6.5617    0.2234   27.2257 C   0  0  0  0  0  0  0  0  0  0  0  0
   -6.8504   -0.6708   27.8388 N   0  0  0  0  0  0  0  0  0  0  0  0
   -7.8986   -1.2827   28.1064 C   0  0  0  0  0  0  0  0  0  0  0  0
   -8.0630   -2.3328   28.3775 C   0  0  0  0  0  0  0  0  0  0  0  0
   -5.7812   -1.5225   28.4265 C   0  0  0  0  0  0  0  0  0  0  0  0
   -5.8809   -2.6719   28.9866 C   0  0  0  0  0  0  0  0  0  0  0  0
   -7.1642   -3.1564   29.0924 C   0  0  0  0  0  0  0  0  0  0  0  0
   -5.7372    0.1710   26.2347 O   0  0  0  0  0  0  0  0  0  0  0  0
  2  7  1  0
  7  8  1  0
  7  9  1  0
  7 10  1  0
  4 11  1  0
  5 12  1  0
 12 13  1  0
 13 14  1  0
 13 16  1  0
 15 18  1  0
 17 18  1  0
 12 19  2  0
 14 15  1  0
 17 16  1  0
  1  2  2  0
  2  3  1  0
  3  6  2  0
  6  5  1  0
  5  4  2  0
  4  1  1  0
M  END
$$$$
