No_1858-complexes_sdf/6BKW-FPZ/2024-09-17-14-21-01/
     RDKit          3D

 19 22  0  0  0  0  0  0  0  0999 V2000
   -7.9040    3.9820   27.1177 C   0  0  0  0  0  0  0  0  0  0  0  0
   -9.0711    4.3164   27.0630 C   0  0  2  0  0  0  0  0  0  0  0  0
   -9.8698    3.9665   25.9494 C   0  0  1  0  0  0  0  0  0  0  0  0
   -6.9515    4.6878   28.0207 C   0  0  0  0  0  0  0  0  0  0  0  0
   -9.6406    4.4469   24.7375 C   0  0  2  0  0  0  0  0  0  0  0  0
  -10.0587    2.4422   25.7535 C   0  0  0  0  0  0  0  0  0  0  0  0
  -10.4496    1.9409   24.7527 C   0  0  0  0  0  0  0  0  0  0  0  0
   -9.8231    5.8996   24.7258 C   0  0  0  0  0  0  0  0  0  0  0  0
   -7.5048    5.6667   28.8288 C   0  0  0  0  0  0  0  0  0  0  0  0
  -10.3215    3.7658   23.6851 C   0  0  0  0  0  0  0  0  0  0  0  0
  -10.5778    2.6098   23.5701 C   0  0  0  0  0  0  0  0  0  0  0  0
   -9.4417    5.5044   27.8262 C   0  0  1  0  0  0  0  0  0  0  0  0
   -8.6862    6.1915   28.6021 C   0  0  0  0  0  0  0  0  0  0  0  0
  -11.4102    4.2337   26.4176 C   0  0  0  0  0  0  0  0  0  0  0  0
   -9.3852    3.6865   27.7988 F   0  0  0  0  0  0  0  0  0  0  0  0
   -7.3638    3.0178   26.5248 O   0  0  0  0  0  0  0  0  0  0  0  0
  -10.5303    6.1450   27.3244 O   0  0  0  0  0  0  0  0  0  0  0  0
  -11.3692    5.6397   26.5302 C   0  0  1  0  0  0  0  0  0  0  0  0
  -11.3649    6.1926   25.3933 O   0  0  0  0  0  0  0  0  0  0  0  0
  1  2  1  0
  2  3  1  0
  1  4  1  0
  3  5  1  0
  3  6  1  6
  5  8  1  1
  5 10  1  0
  7 11  1  0
  2 12  1  0
  9 13  1  0
  3 14  1  0
  2 15  1  1
  1 16  2  0
 12 17  1  0
 14 18  1  0
 18 17  1  6
  8 19  1  0
 18 19  1  0
 10 11  1  0
  7  6  1  0
 12 13  1  6
  9  4  1  0
M  END
$$$$
