No_1522-complexes_sdf/6BKW-FPZ/2024-09-17-14-21-01/
     RDKit          3D

 13 14  0  0  0  0  0  0  0  0999 V2000
   -7.7129    4.2099   27.0854 C   0  0  0  0  0  0  0  0  0  0  0  0
   -7.7814    5.1722   27.8972 C   0  0  0  0  0  0  0  0  0  0  0  0
   -8.8776    3.8408   26.3416 C   0  0  0  0  0  0  0  0  0  0  0  0
   -9.9844    4.6492   26.4743 C   0  0  0  0  0  0  0  0  0  0  0  0
   -8.7830    6.1594   27.8870 C   0  0  0  0  0  0  0  0  0  0  0  0
   -9.9269    5.8191   27.1183 C   0  0  0  0  0  0  0  0  0  0  0  0
   -8.8623    2.7419   25.6236 F   0  0  0  0  0  0  0  0  0  0  0  0
  -11.1259    4.3248   25.6274 C   0  0  0  0  0  0  0  0  0  0  0  0
  -10.9237    4.1480   24.1826 C   0  0  0  0  0  0  0  0  0  0  0  0
  -11.9361    4.0562   23.3315 C   0  0  0  0  0  0  0  0  0  0  0  0
  -13.2392    4.0986   23.8235 C   0  0  0  0  0  0  0  0  0  0  0  0
  -12.4137    4.3628   26.0130 C   0  0  0  0  0  0  0  0  0  0  0  0
  -13.4723    4.2808   25.2384 C   0  0  0  0  0  0  0  0  0  0  0  0
  3  7  1  0
  4  8  1  0
  1  2  2  0
  2  5  1  0
  5  6  2  0
  6  4  1  0
  4  3  2  0
  3  1  1  0
  8  9  2  0
  9 10  1  0
 10 11  2  0
 11 13  1  0
 13 12  2  0
 12  8  1  0
M  END
$$$$
