No_1340-complexes_sdf/6BKW-FPZ/2024-09-17-14-21-01/
     RDKit          3D

 31 34  0  0  0  0  0  0  0  0999 V2000
   -7.7129    4.2099   27.0854 C   0  0  0  0  0  0  0  0  0  0  0  0
   -7.7814    5.1722   27.8972 C   0  0  0  0  0  0  0  0  0  0  0  0
   -8.8776    3.8408   26.3416 C   0  0  0  0  0  0  0  0  0  0  0  0
   -9.9844    4.6492   26.4743 C   0  0  0  0  0  0  0  0  0  0  0  0
   -8.8033    6.1375   27.8728 C   0  0  0  0  0  0  0  0  0  0  0  0
   -9.9554    5.8280   27.1737 C   0  0  0  0  0  0  0  0  0  0  0  0
   -8.8740    2.6184   25.5584 C   0  0  0  0  0  0  0  0  0  0  0  0
   -8.2606    1.4639   26.1340 C   0  0  0  0  0  0  0  0  0  0  0  0
   -8.2580    0.2568   25.4753 C   0  0  0  0  0  0  0  0  0  0  0  0
   -8.8603    0.2396   24.2084 C   0  0  0  0  0  0  0  0  0  0  0  0
   -9.4494    1.3597   23.6313 C   0  0  0  0  0  0  0  0  0  0  0  0
   -9.4387    2.5320   24.3273 C   0  0  0  0  0  0  0  0  0  0  0  0
  -10.0516    1.2994   22.3089 C   0  0  0  0  0  0  0  0  0  0  0  0
  -10.3907    2.4492   21.7460 C   0  0  0  0  0  0  0  0  0  0  0  0
  -10.9904    2.4842   20.4587 C   0  0  0  0  0  0  0  0  0  0  0  0
  -11.2153    1.2877   19.7803 C   0  0  0  0  0  0  0  0  0  0  0  0
  -10.1806    0.1135   21.6036 C   0  0  0  0  0  0  0  0  0  0  0  0
  -10.7847    0.1240   20.3683 C   0  0  0  0  0  0  0  0  0  0  0  0
  -10.9567   -1.1391   19.6229 C   0  0  0  0  0  0  0  0  0  0  0  0
  -11.6111   -1.3539   18.8042 O   0  0  0  0  0  0  0  0  0  0  0  0
   -9.9229   -2.1063   19.8994 O   0  0  0  0  0  0  0  0  0  0  0  0
   -9.7040   -2.7067   20.7527 C   0  0  0  0  0  0  0  0  0  0  0  0
  -10.5170   -3.6701   21.1403 C   0  0  0  0  0  0  0  0  0  0  0  0
  -11.2122   -4.3085   20.4934 C   0  0  0  0  0  0  0  0  0  0  0  0
  -12.1205   -5.3898   20.9486 C   0  0  0  0  0  0  0  0  0  0  0  0
  -12.1267   -5.5882   22.3538 C   0  0  0  0  0  0  0  0  0  0  0  0
  -11.3463   -4.8382   23.1713 C   0  0  0  0  0  0  0  0  0  0  0  0
  -10.5278   -3.8674   22.6943 C   0  0  0  0  0  0  0  0  0  0  0  0
  -12.9420   -6.1658   20.0946 C   0  0  0  0  0  0  0  0  0  0  0  0
  -13.7196   -6.9622   20.3545 O   0  0  0  0  0  0  0  0  0  0  0  0
  -12.9922   -5.6354   18.7894 F   0  0  0  0  0  0  0  0  0  0  0  0
  3  7  1  0
 11 13  1  0
 18 19  1  0
 19 20  2  0
 19 21  1  0
 21 22  1  0
 22 23  1  0
 25 29  1  0
 29 30  2  0
 29 31  1  0
 23 24  2  0
 24 25  1  0
 25 26  2  0
 26 27  1  0
 27 28  2  0
 28 23  1  0
 13 14  2  0
 14 15  1  0
 15 16  2  0
 16 18  1  0
 18 17  2  0
 17 13  1  0
  1  2  2  0
  2  5  1  0
  5  6  2  0
  6  4  1  0
  4  3  2  0
  3  1  1  0
  7  8  2  0
  8  9  1  0
  9 10  2  0
 10 11  1  0
 11 12  2  0
 12  7  1  0
M  END
$$$$
