No_1169-complexes_sdf/6BKW-FPZ/2024-09-17-14-21-01/
     RDKit          3D

 24 26  0  0  0  0  0  0  0  0999 V2000
   -7.7129    4.2099   27.0854 C   0  0  0  0  0  0  0  0  0  0  0  0
   -8.2112    3.0637   26.9225 C   0  0  0  0  0  0  0  0  0  0  0  0
   -7.0021    4.5281   28.2396 C   0  0  0  0  0  0  0  0  0  0  0  0
   -7.5497    1.9016   27.4549 C   0  0  0  0  0  0  0  0  0  0  0  0
   -8.0700    0.6173   27.2932 C   0  0  0  0  0  0  0  0  0  0  0  0
   -9.3589    0.5577   26.6828 C   0  0  0  0  0  0  0  0  0  0  0  0
  -10.0040    1.6252   26.1809 C   0  0  0  0  0  0  0  0  0  0  0  0
   -9.4269    2.8857   26.2743 C   0  0  0  0  0  0  0  0  0  0  0  0
   -8.4271    5.3530   26.4842 C   0  0  0  0  0  0  0  0  0  0  0  0
   -8.1382    6.7251   26.9088 C   0  0  0  0  0  0  0  0  0  0  0  0
   -6.8583    5.9179   28.7517 C   0  0  0  0  0  0  0  0  0  0  0  0
   -7.3780    6.9333   28.0310 C   0  0  0  0  0  0  0  0  0  0  0  0
  -11.5048    1.3827   25.3719 Cl  0  0  0  0  0  0  0  0  0  0  0  0
   -8.7318    7.7133   26.2414 O   0  0  0  0  0  0  0  0  0  0  0  0
   -7.4097   -0.5260   27.8806 C   0  0  2  0  0  0  0  0  0  0  0  0
   -6.0223   -0.4970   28.0440 C   0  0  0  0  0  0  0  0  0  0  0  0
   -5.3814   -1.3009   28.9451 C   0  0  0  0  0  0  0  0  0  0  0  0
   -4.0166   -1.0819   29.3223 C   0  0  0  0  0  0  0  0  0  0  0  0
   -3.3078   -0.0473   28.6576 C   0  0  0  0  0  0  0  0  0  0  0  0
   -3.9727    0.8140   27.7865 C   0  0  0  0  0  0  0  0  0  0  0  0
   -5.2764    0.6629   27.5778 C   0  0  0  0  0  0  0  0  0  0  0  0
   -8.1177   -1.7122   28.1441 C   0  0  0  0  0  0  0  0  0  0  0  0
   -9.1462   -2.0460   28.1459 N   0  0  0  0  0  0  0  0  0  0  0  0
   -9.7401   -3.1994   28.5713 C   0  0  0  0  0  0  0  0  0  0  0  0
  1  2  1  0
  7 13  1  0
 10 14  1  0
 15  5  1  6
 15 16  1  0
 15 22  1  0
 22 23  2  3
 23 24  1  0
  1  3  2  0
  3 11  1  0
 11 12  2  0
 12 10  1  0
 10  9  2  0
  9  1  1  0
 16 17  2  0
 17 18  1  0
 18 19  2  0
 19 20  1  0
 20 21  2  0
 21 16  1  0
  2  4  2  0
  4  5  1  0
  5  6  2  0
  6  7  1  0
  7  8  2  0
  8  2  1  0
M  END
$$$$
