No_1625-complexes_sdf/6BKW-FPZ/2024-09-17-14-21-01/
     RDKit          3D

 15 16  0  0  0  0  0  0  0  0999 V2000
   -7.7129    4.2099   27.0854 C   0  0  0  0  0  0  0  0  0  0  0  0
   -8.2112    3.0637   26.9225 C   0  0  0  0  0  0  0  0  0  0  0  0
   -8.4224    5.2106   27.8516 C   0  0  0  0  0  0  0  0  0  0  0  0
   -9.5628    2.7160   27.4089 C   0  0  0  0  0  0  0  0  0  0  0  0
  -10.2639    3.7034   28.1156 C   0  0  0  0  0  0  0  0  0  0  0  0
   -9.7059    4.9514   28.3169 C   0  0  0  0  0  0  0  0  0  0  0  0
  -10.1363    1.3870   27.2388 C   0  0  0  0  0  0  0  0  0  0  0  0
  -10.8454    1.0464   26.2227 C   0  0  2  0  0  0  0  0  0  0  0  0
  -11.1180    1.5678   25.2373 C   0  0  0  0  0  0  0  0  0  0  0  0
  -11.8145    1.0600   24.0380 C   0  0  0  0  0  0  0  0  0  0  0  0
  -12.0265    1.8063   22.8475 C   0  0  0  0  0  0  0  0  0  0  0  0
  -11.4470    3.1108   22.7599 C   0  0  0  0  0  0  0  0  0  0  0  0
  -10.7479    3.6630   23.7938 C   0  0  0  0  0  0  0  0  0  0  0  0
  -10.5577    3.0044   24.9046 C   0  0  0  0  0  0  0  0  0  0  0  0
  -11.5311   -0.3474   26.4685 C   0  0  0  0  0  0  0  0  0  0  0  0
  4  7  1  0
  7  8  1  0
  8 15  1  1
  8  9  1  0
  1  2  2  0
  2  4  1  0
  4  5  2  0
  5  6  1  0
  6  3  2  0
  3  1  1  0
  9 10  2  0
 10 11  1  0
 11 12  2  0
 12 13  1  0
 13 14  2  0
 14  9  1  0
M  END
$$$$
