No_199-complexes_sdf/6BKW-FPZ/2024-09-17-14-21-01/
     RDKit          3D

 17 18  0  0  0  0  0  0  0  0999 V2000
   -7.9040    3.9820   27.1177 C   0  0  0  0  0  0  0  0  0  0  0  0
   -8.2057    2.8231   26.8733 C   0  0  0  0  0  0  0  0  0  0  0  0
   -9.2962    2.4021   26.1155 C   0  0  0  0  0  0  0  0  0  0  0  0
   -8.7358    5.0662   26.5917 C   0  0  0  0  0  0  0  0  0  0  0  0
   -9.7618    4.7023   25.7546 C   0  0  0  0  0  0  0  0  0  0  0  0
  -10.0066    3.4105   25.4922 C   0  0  0  0  0  0  0  0  0  0  0  0
   -8.3936    6.4769   26.8843 C   0  0  0  0  0  0  0  0  0  0  0  0
   -8.6020    7.4177   26.1293 N   0  0  0  0  0  0  0  0  0  0  0  0
   -7.7289    6.5654   28.0080 O   0  0  0  0  0  0  0  0  0  0  0  0
   -7.3492    1.6560   27.4681 C   0  0  0  0  0  0  0  0  0  0  0  0
   -6.8032    0.7474   26.7108 Cl  0  0  0  0  0  0  0  0  0  0  0  0
  -11.0502    3.2624   24.4858 C   0  0  0  0  0  0  0  0  0  0  0  0
  -12.2480    2.8479   24.8678 C   0  0  0  0  0  0  0  0  0  0  0  0
  -10.8713    3.7226   23.1719 C   0  0  0  0  0  0  0  0  0  0  0  0
  -11.7883    3.6451   22.1724 C   0  0  0  0  0  0  0  0  0  0  0  0
  -13.2716    2.6964   23.8672 C   0  0  0  0  0  0  0  0  0  0  0  0
  -13.0280    3.1485   22.5371 C   0  0  0  0  0  0  0  0  0  0  0  0
  4  7  1  0
  7  8  1  0
  7  9  2  0
  2 10  1  0
 10 11  1  0
  6 12  1  0
  1  2  2  0
  2  3  1  0
  3  6  2  0
  6  5  1  0
  5  4  2  0
  4  1  1  0
 12 13  2  0
 13 16  1  0
 16 17  2  0
 17 15  1  0
 15 14  2  0
 14 12  1  0
M  END
$$$$
