No_1413-complexes_sdf/6BKW-FPZ/2024-09-17-14-21-01/
     RDKit          3D

 18 20  0  0  0  0  0  0  0  0999 V2000
   -7.9040    3.9820   27.1177 C   0  0  0  0  0  0  0  0  0  0  0  0
   -7.8663    4.8694   27.9238 C   0  0  0  0  0  0  0  0  0  0  0  0
   -9.0501    3.8017   26.2617 C   0  0  0  0  0  0  0  0  0  0  0  0
  -10.0189    4.7608   26.3707 C   0  0  0  0  0  0  0  0  0  0  0  0
   -8.6770    5.9780   27.9222 C   0  0  0  0  0  0  0  0  0  0  0  0
   -9.8040    5.8752   27.0958 C   0  0  0  0  0  0  0  0  0  0  0  0
   -9.1317    2.6414   25.4147 C   0  0  0  0  0  0  0  0  0  0  0  0
   -8.6458    1.4431   25.8429 C   0  0  0  0  0  0  0  0  0  0  0  0
   -9.8152    2.7444   24.1900 C   0  0  0  0  0  0  0  0  0  0  0  0
   -8.7189    0.3583   25.0028 C   0  0  0  0  0  0  0  0  0  0  0  0
   -9.8603    1.6493   23.3627 C   0  0  0  0  0  0  0  0  0  0  0  0
   -9.3205    0.4548   23.7523 C   0  0  0  0  0  0  0  0  0  0  0  0
  -10.4904    1.7895   22.0304 C   0  0  0  0  0  0  0  0  0  0  0  0
  -10.4885    3.0247   21.4967 C   0  0  0  0  0  0  0  0  0  0  0  0
  -11.1743    3.2109   20.2080 C   0  0  0  0  0  0  0  0  0  0  0  0
  -11.5960    2.1168   19.4866 C   0  0  0  0  0  0  0  0  0  0  0  0
  -10.8414    0.7021   21.2628 C   0  0  0  0  0  0  0  0  0  0  0  0
  -11.4269    0.8742   20.0208 C   0  0  0  0  0  0  0  0  0  0  0  0
  3  7  1  0
 11 13  1  0
 13 14  2  0
 14 15  1  0
 15 16  2  0
 16 18  1  0
 18 17  2  0
 17 13  1  0
  1  2  2  0
  2  5  1  0
  5  6  2  0
  6  4  1  0
  4  3  2  0
  3  1  1  0
  7  8  2  0
  8 10  1  0
 10 12  2  0
 12 11  1  0
 11  9  2  0
  9  7  1  0
M  END
$$$$
