No_1905-complexes_sdf/6BKW-FPZ/2024-09-17-14-21-01/
     RDKit          3D

 21 23  0  0  0  0  0  0  0  0999 V2000
   -7.7129    4.2099   27.0854 C   0  0  0  0  0  0  0  0  0  0  0  0
   -8.9133    4.4736   27.0998 C   0  0  0  0  0  0  0  0  0  0  0  0
   -9.4643    5.5426   27.7628 C   0  0  0  0  0  0  0  0  0  0  0  0
   -7.2009    2.9448   26.6134 C   0  0  0  0  0  0  0  0  0  0  0  0
   -8.1365    1.9533   26.2981 C   0  0  1  0  0  0  0  0  0  0  0  0
   -9.4501    2.2651   26.2497 C   0  0  0  0  0  0  0  0  0  0  0  0
   -9.8615    3.4703   26.6763 C   0  0  2  0  0  0  0  0  0  0  0  0
   -7.5839    0.6450   25.9087 C   0  0  0  0  0  0  0  0  0  0  0  0
   -7.9760    0.0709   24.7607 C   0  0  0  0  0  0  0  0  0  0  0  0
   -7.4163   -1.1663   24.3513 C   0  0  0  0  0  0  0  0  0  0  0  0
   -6.5050   -1.8314   25.2131 C   0  0  0  0  0  0  0  0  0  0  0  0
   -6.5712   -0.0338   26.5656 C   0  0  0  0  0  0  0  0  0  0  0  0
   -6.0731   -1.1887   26.3377 C   0  0  0  0  0  0  0  0  0  0  0  0
  -11.3019    3.7476   26.5966 C   0  0  0  0  0  0  0  0  0  0  0  0
  -11.9933    3.7547   25.5682 C   0  0  0  0  0  0  0  0  0  0  0  0
  -11.9363    4.0726   27.9060 C   0  0  0  0  0  0  0  0  0  0  0  0
  -11.4319    3.9127   24.3181 C   0  0  0  0  0  0  0  0  0  0  0  0
  -12.1065    3.9716   23.1086 C   0  0  0  0  0  0  0  0  0  0  0  0
  -13.3440    3.4276   25.4685 C   0  0  0  0  0  0  0  0  0  0  0  0
  -14.1081    3.4890   24.3328 C   0  0  0  0  0  0  0  0  0  0  0  0
  -13.4666    3.7936   23.1374 C   0  0  0  0  0  0  0  0  0  0  0  0
  1  2  1  0
  2  3  2  0
  1  4  1  0
  4  5  1  0
  5  6  1  0
  2  7  1  0
  6  7  1  0
  5  8  1  6
  7 14  1  6
 14 15  1  0
 14 16  1  0
 15 17  2  0
 17 18  1  0
 18 21  2  0
 21 20  1  0
 20 19  2  0
 19 15  1  0
  8  9  2  0
  9 10  1  0
 10 11  2  0
 11 13  1  0
 13 12  2  0
 12  8  1  0
M  END
$$$$
