No_114-complexes_sdf/6BKW-FPZ/2024-09-17-14-21-01/
     RDKit          3D

 25 27  0  0  0  0  0  0  0  0999 V2000
   -7.9040    3.9820   27.1177 C   0  0  0  0  0  0  0  0  0  0  0  0
   -9.0711    4.3164   27.0630 C   0  0  0  0  0  0  0  0  0  0  0  0
   -9.5182    5.5541   27.5777 C   0  0  0  0  0  0  0  0  0  0  0  0
   -7.4468    2.6843   26.6499 C   0  0  0  0  0  0  0  0  0  0  0  0
   -8.3856    1.7878   26.2216 C   0  0  0  0  0  0  0  0  0  0  0  0
   -9.6812    2.2328   26.0889 C   0  0  0  0  0  0  0  0  0  0  0  0
  -10.0147    3.4312   26.5259 C   0  0  0  0  0  0  0  0  0  0  0  0
   -7.7187    0.5126   25.8011 C   0  0  0  0  0  0  0  0  0  0  0  0
   -7.9089   -0.0245   24.8824 O   0  0  0  0  0  0  0  0  0  0  0  0
   -7.0128   -0.1144   26.8033 O   0  0  0  0  0  0  0  0  0  0  0  0
   -8.6239    6.7177   27.2650 C   0  0  0  0  0  0  0  0  0  0  0  0
   -7.2829    6.4304   26.9832 C   0  0  0  0  0  0  0  0  0  0  0  0
   -6.8530    5.0404   27.0915 C   0  0  0  0  0  0  0  0  0  0  0  0
   -6.5711   -1.1698   26.8442 C   0  0  1  0  0  0  0  0  0  0  0  0
   -6.0309   -1.7875   28.1545 C   0  0  1  0  0  0  0  0  0  0  0  0
   -5.3820   -0.8404   28.8803 C   0  0  0  0  0  0  0  0  0  0  0  0
   -4.8495    0.3252   28.3798 C   0  0  0  0  0  0  0  0  0  0  0  0
   -4.3334    0.5352   27.2407 C   0  0  0  0  0  0  0  0  0  0  0  0
   -4.0343    1.7847   27.0325 F   0  0  0  0  0  0  0  0  0  0  0  0
   -5.0630    0.2061   26.1869 F   0  0  0  0  0  0  0  0  0  0  0  0
   -3.1524   -0.1226   27.1102 F   0  0  0  0  0  0  0  0  0  0  0  0
   -7.8505   -2.1007   26.5401 C   0  0  0  0  0  0  0  0  0  0  0  0
   -7.6834   -3.3522   27.1439 C   0  0  0  0  0  0  0  0  0  0  0  0
   -6.5051   -3.0108   28.3824 C   0  0  2  0  0  0  0  0  0  0  0  0
   -7.0456   -3.0910   29.7497 C   0  0  0  0  0  0  0  0  0  0  0  0
  5  8  1  0
  8  9  2  0
  8 10  1  0
 14 10  1  1
 14 15  1  0
 15 16  1  1
 16 17  1  0
 17 18  1  0
 18 19  1  0
 18 20  1  0
 18 21  1  0
 14 22  1  0
 22 23  2  0
 15 24  1  0
 23 24  1  0
 24 25  1  1
  2  3  2  0
  3 11  1  0
 11 12  2  0
 12 13  1  0
 13  1  2  0
  1  2  1  0
  2  7  1  0
  7  6  2  0
  6  5  1  0
  5  4  2  0
  4  1  1  0
M  END
$$$$
