No_1928-complexes_sdf/6BKW-FPZ/2024-09-17-14-21-01/
     RDKit          3D

 31 34  0  0  0  0  0  0  0  0999 V2000
   -7.7129    4.2099   27.0854 C   0  0  0  0  0  0  0  0  0  0  0  0
   -7.7814    5.1722   27.8972 C   0  0  0  0  0  0  0  0  0  0  0  0
   -8.8776    3.8408   26.3416 C   0  0  0  0  0  0  0  0  0  0  0  0
   -9.9844    4.6492   26.4743 C   0  0  0  0  0  0  0  0  0  0  0  0
   -8.7830    6.1594   27.8870 C   0  0  0  0  0  0  0  0  0  0  0  0
   -9.9269    5.8191   27.1183 C   0  0  0  0  0  0  0  0  0  0  0  0
   -8.8747    2.6048   25.5686 C   0  0  0  0  0  0  0  0  0  0  0  0
   -8.2716    1.5343   26.1254 N   0  0  0  0  0  0  0  0  0  0  0  0
   -7.7395    1.5360   27.3205 C   0  0  0  0  0  0  0  0  0  0  0  0
   -8.3335    0.3287   25.3210 C   0  0  0  0  0  0  0  0  0  0  0  0
   -9.5858    2.5488   24.5643 O   0  0  0  0  0  0  0  0  0  0  0  0
   -7.0064    0.1848   27.6722 C   0  0  0  0  0  0  0  0  0  0  0  0
   -5.7694    0.1709   28.1996 C   0  0  0  0  0  0  0  0  0  0  0  0
   -5.1831   -1.0581   28.5328 C   0  0  0  0  0  0  0  0  0  0  0  0
   -5.9082   -2.1807   28.2490 C   0  0  0  0  0  0  0  0  0  0  0  0
   -7.3457   -1.2537   27.6096 C   0  0  0  0  0  0  0  0  0  0  0  0
   -3.8022   -1.1768   29.1558 C   0  0  0  0  0  0  0  0  0  0  0  0
   -3.2609   -0.1786   29.6815 C   0  0  0  0  0  0  0  0  0  0  0  0
   -2.8848   -2.0095   28.4571 C   0  0  0  0  0  0  0  0  0  0  0  0
   -3.9612    0.7621   30.3935 N   0  0  0  0  0  0  0  0  0  0  0  0
   -3.1192   -2.6860   27.5595 C   0  0  0  0  0  0  0  0  0  0  0  0
   -2.4064   -3.2428   26.7688 C   0  0  0  0  0  0  0  0  0  0  0  0
   -1.4115   -2.9520   26.6318 C   0  0  0  0  0  0  0  0  0  0  0  0
   -0.6684   -2.2277   27.6690 C   0  0  0  0  0  0  0  0  0  0  0  0
   -1.4517   -1.5914   28.5807 C   0  0  0  0  0  0  0  0  0  0  0  0
   -9.5253   -0.3102   25.2552 C   0  0  0  0  0  0  0  0  0  0  0  0
   -9.4914   -1.4972   24.5526 C   0  0  0  0  0  0  0  0  0  0  0  0
   -8.3261   -2.0406   24.0942 C   0  0  0  0  0  0  0  0  0  0  0  0
   -7.0997   -1.3486   24.1920 C   0  0  0  0  0  0  0  0  0  0  0  0
   -7.1011   -0.1315   24.8952 C   0  0  0  0  0  0  0  0  0  0  0  0
   -8.3058   -1.9089   27.2476 O   0  0  0  0  0  0  0  0  0  0  0  0
  3  7  1  0
  7  8  1  0
  8  9  1  0
  8 10  1  0
  7 11  2  0
  9 12  2  3
 12 13  1  0
 13 14  2  0
 14 15  1  0
 12 16  1  0
 15 16  1  0
 14 17  1  0
 17 18  2  3
 17 19  1  0
 18 20  1  0
 16 31  2  0
 10 26  2  0
 26 27  1  0
 27 28  2  0
 28 29  1  0
 29 30  2  0
 30 10  1  0
 19 21  2  0
 21 22  1  0
 22 23  2  0
 23 24  1  0
 24 25  2  0
 25 19  1  0
  1  2  2  0
  2  5  1  0
  5  6  2  0
  6  4  1  0
  4  3  2  0
  3  1  1  0
M  END
$$$$
