No_1700-complexes_sdf/6BKW-FPZ/2024-09-17-14-21-01/
     RDKit          3D

 16 16  0  0  0  0  0  0  0  0999 V2000
   -7.2496    3.8871   27.4508 C   0  0  0  0  0  0  0  0  0  0  0  0
   -7.9379    4.9063   27.8518 C   0  0  0  0  0  0  0  0  0  0  0  0
   -9.3376    4.8647   27.7795 C   0  0  0  0  0  0  0  0  0  0  0  0
   -7.8544    2.6294   27.0414 C   0  0  0  0  0  0  0  0  0  0  0  0
   -9.2852    2.6570   27.0666 C   0  0  0  0  0  0  0  0  0  0  0  0
  -10.0126    3.7528   27.4890 C   0  0  0  0  0  0  0  0  0  0  0  0
  -11.3466    3.6737   27.5135 F   0  0  0  0  0  0  0  0  0  0  0  0
   -7.1663    1.6251   26.7152 F   0  0  0  0  0  0  0  0  0  0  0  0
   -7.3305    6.0802   28.1635 O   0  0  0  0  0  0  0  0  0  0  0  0
   -9.9132    1.5166   26.7669 F   0  0  0  0  0  0  0  0  0  0  0  0
   -7.3788    7.1032   27.2188 C   0  0  0  0  0  0  0  0  0  0  0  0
   -8.7151    7.7271   27.0757 C   0  0  0  0  0  0  0  0  0  0  0  0
   -6.5179    8.2476   27.7776 C   0  0  0  0  0  0  0  0  0  0  0  0
   -5.9312    3.8689   27.5704 O   0  0  0  0  0  0  0  0  0  0  0  0
   -5.3076    2.7417   28.3549 C   0  0  0  0  0  0  0  0  0  0  0  0
   -5.2834    1.4765   27.7330 C   0  0  0  0  0  0  0  0  0  0  0  0
  6  7  1  0
  4  8  1  0
  2  9  1  0
  5 10  1  0
  9 11  1  0
 11 12  1  0
 11 13  1  0
  1 14  1  0
 14 15  1  0
 15 16  1  0
  1  2  2  0
  2  3  1  0
  3  6  2  0
  6  5  1  0
  5  4  2  0
  4  1  1  0
M  END
$$$$
