No_1291-complexes_sdf/6BKW-FPZ/2024-09-17-14-21-01/
     RDKit          3D

 31 34  0  0  0  0  0  0  0  0999 V2000
   -7.2496    3.8871   27.4508 C   0  0  0  0  0  0  0  0  0  0  0  0
   -7.6161    2.7143   27.1523 C   0  0  0  0  0  0  0  0  0  0  0  0
   -8.8302    2.4659   26.5056 C   0  0  0  0  0  0  0  0  0  0  0  0
   -8.1584    5.0090   27.3234 C   0  0  0  0  0  0  0  0  0  0  0  0
   -9.3788    4.7965   26.7695 C   0  0  0  0  0  0  0  0  0  0  0  0
   -9.7028    3.5649   26.3276 C   0  0  0  0  0  0  0  0  0  0  0  0
   -6.7190    1.5585   27.3667 C   0  0  0  0  0  0  0  0  0  0  0  0
   -5.5646    1.7458   28.0273 N   0  0  0  0  0  0  0  0  0  0  0  0
   -4.6670    0.6260   28.1961 C   0  0  0  0  0  0  0  0  0  0  0  0
   -5.1152   -0.5808   27.8809 C   0  0  0  0  0  0  0  0  0  0  0  0
   -7.1564    0.2593   26.9946 C   0  0  0  0  0  0  0  0  0  0  0  0
   -6.3407   -0.7969   27.2935 C   0  0  0  0  0  0  0  0  0  0  0  0
   -7.6927    6.3590   27.7898 C   0  0  0  0  0  0  0  0  0  0  0  0
   -3.5003    0.9594   28.8366 N   0  0  0  0  0  0  0  0  0  0  0  0
   -7.3516    7.0118   26.8923 F   0  0  0  0  0  0  0  0  0  0  0  0
   -6.5117    6.1753   28.6003 F   0  0  0  0  0  0  0  0  0  0  0  0
   -8.7109    6.8318   28.4496 F   0  0  0  0  0  0  0  0  0  0  0  0
  -10.9953    3.3982   25.6581 C   0  0  2  0  0  0  0  0  0  0  0  0
  -12.1233    2.9864   26.3468 C   0  0  0  0  0  0  0  0  0  0  0  0
  -12.0080    2.7879   27.7323 C   0  0  0  0  0  0  0  0  0  0  0  0
  -13.2100    2.3782   28.5255 C   0  0  0  0  0  0  0  0  0  0  0  0
  -14.3839    2.3113   27.8112 C   0  0  0  0  0  0  0  0  0  0  0  0
  -14.4746    2.5680   26.4781 C   0  0  0  0  0  0  0  0  0  0  0  0
  -13.3628    2.9745   25.7480 C   0  0  0  0  0  0  0  0  0  0  0  0
  -11.0427    3.6087   24.2492 C   0  0  0  0  0  0  0  0  0  0  0  0
  -11.4070    2.8675   23.2967 C   0  0  0  0  0  0  0  0  0  0  0  0
  -11.3132    3.1849   21.9567 C   0  0  0  0  0  0  0  0  0  0  0  0
  -10.6640    4.3904   21.6304 C   0  0  0  0  0  0  0  0  0  0  0  0
  -10.2609    5.2767   22.6393 C   0  0  0  0  0  0  0  0  0  0  0  0
  -10.3914    4.9545   23.9372 C   0  0  0  0  0  0  0  0  0  0  0  0
  -13.0840    2.1234   29.8254 F   0  0  0  0  0  0  0  0  0  0  0  0
  2  7  1  0
  4 13  1  0
  9 14  1  0
 13 15  1  0
 13 16  1  0
 13 17  1  0
 18  6  1  6
 18 25  1  0
 21 31  1  0
 18 19  1  0
  7  8  2  0
  8  9  1  0
  9 10  2  0
 10 12  1  0
 12 11  2  0
 11  7  1  0
 25 26  2  0
 26 27  1  0
 27 28  2  0
 28 29  1  0
 29 30  2  0
 30 25  1  0
  1  2  2  0
  2  3  1  0
  3  6  2  0
  6  5  1  0
  5  4  2  0
  4  1  1  0
 19 20  2  0
 20 21  1  0
 21 22  2  0
 22 23  1  0
 23 24  2  0
 24 19  1  0
M  END
$$$$
