No_1355-complexes_sdf/6BKW-FPZ/2024-09-17-14-21-01/
     RDKit          3D

 30 34  0  0  0  0  0  0  0  0999 V2000
   -7.9040    3.9820   27.1177 C   0  0  0  0  0  0  0  0  0  0  0  0
   -8.2057    2.8231   26.8733 C   0  0  0  0  0  0  0  0  0  0  0  0
   -8.7463    4.9537   27.6708 C   0  0  0  0  0  0  0  0  0  0  0  0
   -8.3921    6.3606   27.8466 C   0  0  0  0  0  0  0  0  0  0  0  0
   -9.5482    2.3521   27.1946 C   0  0  0  0  0  0  0  0  0  0  0  0
  -10.4264    3.2507   27.7616 C   0  0  0  0  0  0  0  0  0  0  0  0
  -10.0702    4.5620   28.0189 C   0  0  0  0  0  0  0  0  0  0  0  0
   -9.0942    7.2301   26.8217 C   0  0  0  0  0  0  0  0  0  0  0  0
   -9.8592    0.9025   27.0516 C   0  0  0  0  0  0  0  0  0  0  0  0
   -8.9026    0.0495   26.9295 C   0  0  0  0  0  0  0  0  0  0  0  0
   -7.6873    0.4497   26.7805 C   0  0  0  0  0  0  0  0  0  0  0  0
   -7.2558    1.8351   26.7498 C   0  0  0  0  0  0  0  0  0  0  0  0
  -11.6414    2.8959   28.1677 F   0  0  0  0  0  0  0  0  0  0  0  0
   -6.5486   -0.5585   26.4417 C   0  0  0  0  0  0  0  0  0  0  0  0
   -6.5175   -1.5382   27.1157 C   0  0  0  0  0  0  0  0  0  0  0  0
   -7.6707   -2.3460   27.2103 C   0  0  0  0  0  0  0  0  0  0  0  0
   -8.9888   -1.3988   27.3513 C   0  0  0  0  0  0  0  0  0  0  0  0
  -10.2377   -1.9687   27.7775 C   0  0  2  0  0  0  0  0  0  0  0  0
  -11.2611   -1.7076   27.2380 N   0  0  0  0  0  0  0  0  0  0  0  0
  -12.4222   -1.6253   27.7821 C   0  0  0  0  0  0  0  0  0  0  0  0
  -10.2170   -2.7289   29.0086 C   0  0  0  0  0  0  0  0  0  0  0  0
  -11.4795   -2.8463   29.6634 C   0  0  0  0  0  0  0  0  0  0  0  0
  -12.5989   -2.3697   28.9445 C   0  0  0  0  0  0  0  0  0  0  0  0
  -11.3120   -1.2138   25.9089 C   0  0  0  0  0  0  0  0  0  0  0  0
  -10.8439   -1.9458   24.9487 C   0  0  0  0  0  0  0  0  0  0  0  0
  -12.0822   -0.0506   25.5102 C   0  0  0  0  0  0  0  0  0  0  0  0
  -10.8234   -1.6069   23.6115 C   0  0  0  0  0  0  0  0  0  0  0  0
  -12.1906    0.3000   24.1632 C   0  0  0  0  0  0  0  0  0  0  0  0
  -11.5483   -0.4813   23.2416 C   0  0  0  0  0  0  0  0  0  0  0  0
   -6.9882    6.5511   27.5195 C   0  0  0  0  0  0  0  0  0  0  0  0
  3  4  1  0
  4  8  1  0
  6 13  1  0
 18 17  1  1
 18 19  1  0
 19 20  1  0
 18 21  1  0
 22 23  1  0
 19 24  1  0
  4 30  1  0
 21 22  1  0
 23 20  1  0
  1  2  2  0
  5  6  2  0
  6  7  1  0
  7  3  2  0
  3  1  1  0
 24 25  2  0
 25 27  1  0
 27 29  2  0
 29 28  1  0
 28 26  2  0
 26 24  1  0
  2  5  1  0
  5  9  1  0
  9 10  2  0
 11 12  2  0
 12  2  1  0
 10 11  1  0
 11 14  1  0
 14 15  2  0
 15 16  1  0
 16 17  2  0
 17 10  1  0
M  END
$$$$
