No_1491-complexes_sdf/6BKW-FPZ/2024-09-17-14-21-01/
     RDKit          3D

 23 24  0  0  0  0  0  0  0  0999 V2000
   -7.9040    3.9820   27.1177 C   0  0  0  0  0  0  0  0  0  0  0  0
   -8.2057    2.8231   26.8733 C   0  0  0  0  0  0  0  0  0  0  0  0
   -7.0130    4.3706   28.1140 C   0  0  0  0  0  0  0  0  0  0  0  0
   -7.4093    1.7370   27.3857 C   0  0  0  0  0  0  0  0  0  0  0  0
   -6.1712    2.1248   28.0064 C   0  0  0  0  0  0  0  0  0  0  0  0
   -5.9514    3.4407   28.3034 C   0  0  0  0  0  0  0  0  0  0  0  0
   -8.9046    5.0986   26.7261 C   0  0  0  0  0  0  0  0  0  0  0  0
   -9.5498    4.9834   25.4675 C   0  0  0  0  0  0  0  0  0  0  0  0
   -5.2351    1.0624   28.3872 C   0  0  0  0  0  0  0  0  0  0  0  0
   -3.9259    1.3449   28.7072 C   0  0  0  0  0  0  0  0  0  0  0  0
   -5.7404   -0.2927   28.4581 C   0  0  0  0  0  0  0  0  0  0  0  0
   -4.8645   -1.2873   28.9448 C   0  0  0  0  0  0  0  0  0  0  0  0
   -3.0611    0.3109   29.1488 C   0  0  0  0  0  0  0  0  0  0  0  0
   -3.5680   -1.0183   29.2321 C   0  0  0  0  0  0  0  0  0  0  0  0
   -8.9318    6.3704   27.3550 C   0  0  0  0  0  0  0  0  0  0  0  0
   -2.6966   -2.0817   29.7508 C   0  0  0  0  0  0  0  0  0  0  0  0
   -2.6653   -2.2384   31.0262 C   0  0  0  0  0  0  0  0  0  0  0  0
   -3.5439   -1.6097   31.8390 C   0  0  0  0  0  0  0  0  0  0  0  0
   -3.4607   -1.7352   33.3201 C   0  0  0  0  0  0  0  0  0  0  0  0
   -4.4175   -1.1578   34.1642 C   0  0  0  0  0  0  0  0  0  0  0  0
   -4.3683   -1.3587   35.5527 C   0  0  0  0  0  0  0  0  0  0  0  0
   -3.2461   -1.9365   36.1436 C   0  0  0  0  0  0  0  0  0  0  0  0
   -2.2591   -2.3736   35.3199 C   0  0  0  0  0  0  0  0  0  0  0  0
  1  7  1  0
  7  8  2  0
  5  9  1  0
  7 15  1  0
 14 16  1  0
 16 17  1  0
 17 18  2  3
 18 19  1  0
 19 20  2  3
 20 21  1  0
 21 22  2  3
 22 23  1  0
  1  2  2  0
  2  4  1  0
  4  5  2  0
  5  6  1  0
  6  3  2  0
  3  1  1  0
  9 10  2  0
 10 13  1  0
 13 14  2  0
 14 12  1  0
 12 11  2  0
 11  9  1  0
M  END
$$$$
