No_148-complexes_sdf/6BKW-FPZ/2024-09-17-14-21-01/
     RDKit          3D

 37 41  0  0  0  0  0  0  0  0999 V2000
   -7.7129    4.2099   27.0854 C   0  0  2  0  0  0  0  0  0  0  0  0
   -8.9133    4.4736   27.0998 C   0  0  2  0  0  0  0  0  0  0  0  0
   -9.4643    5.5426   27.7628 C   0  0  0  0  0  0  0  0  0  0  0  0
   -7.2009    2.9448   26.6134 C   0  0  0  0  0  0  0  0  0  0  0  0
   -8.1365    1.9533   26.2981 C   0  0  1  0  0  0  0  0  0  0  0  0
   -9.4514    2.2934   26.2667 C   0  0  2  0  0  0  0  0  0  0  0  0
   -9.8600    3.4834   26.7068 C   0  0  2  0  0  0  0  0  0  0  0  0
   -7.5142    0.4449   25.8297 Cl  0  0  0  0  0  0  0  0  0  0  0  0
  -10.1737    1.1119   25.8412 C   0  0  0  0  0  0  0  0  0  0  0  0
  -10.9012    1.1076   24.8111 C   0  0  0  0  0  0  0  0  0  0  0  0
  -11.3840    2.2509   24.2886 C   0  0  0  0  0  0  0  0  0  0  0  0
  -11.3582    3.3840   24.9100 C   0  0  0  0  0  0  0  0  0  0  0  0
  -10.9349    4.1186   25.9182 C   0  0  0  0  0  0  0  0  0  0  0  0
   -6.7831    5.0032   27.8063 N   0  0  0  0  0  0  0  0  0  0  0  0
   -9.0820    6.8831   27.1816 C   0  0  0  0  0  0  0  0  0  0  0  0
   -7.6385    7.2511   27.5200 C   0  0  0  0  0  0  0  0  0  0  0  0
   -6.6492    6.2884   27.3760 C   0  0  0  0  0  0  0  0  0  0  0  0
  -10.7212    3.1091   27.9166 C   0  0  0  0  0  0  0  0  0  0  0  0
  -10.2691    2.5513   29.0216 C   0  0  0  0  0  0  0  0  0  0  0  0
  -12.1653    3.4434   27.8346 C   0  0  0  0  0  0  0  0  0  0  0  0
  -12.8397    3.0886   29.1229 C   0  0  0  0  0  0  0  0  0  0  0  0
  -14.1139    2.6843   29.0733 C   0  0  0  0  0  0  0  0  0  0  0  0
  -14.6643    2.1826   30.1616 C   0  0  0  0  0  0  0  0  0  0  0  0
  -15.4155    1.1067   30.2444 C   0  0  0  0  0  0  0  0  0  0  0  0
  -15.8104    0.4792   31.4460 C   0  0  0  0  0  0  0  0  0  0  0  0
  -15.4563    1.0811   32.6618 C   0  0  0  0  0  0  0  0  0  0  0  0
  -14.6701    2.2162   32.6953 C   0  0  0  0  0  0  0  0  0  0  0  0
  -14.2060    2.7650   31.4900 C   0  0  0  0  0  0  0  0  0  0  0  0
  -14.9435    3.8580   28.5311 C   0  0  0  0  0  0  0  0  0  0  0  0
  -14.7160    5.0345   28.8903 C   0  0  0  0  0  0  0  0  0  0  0  0
  -15.4494    6.1926   28.3456 C   0  0  0  0  0  0  0  0  0  0  0  0
  -16.3005    5.9553   27.3144 C   0  0  0  0  0  0  0  0  0  0  0  0
  -15.9317    3.6299   27.5432 C   0  0  0  0  0  0  0  0  0  0  0  0
  -16.5638    4.6628   26.9408 C   0  0  0  0  0  0  0  0  0  0  0  0
  -14.2250    1.4997   27.9910 C   0  0  0  0  0  0  0  0  0  0  0  0
  -13.1155    0.8804   27.5886 C   0  0  0  0  0  0  0  0  0  0  0  0
  -15.3190    1.2495   27.2021 C   0  0  0  0  0  0  0  0  0  0  0  0
  1  2  1  0
  1  4  1  1
  5  6  1  0
  2  7  1  0
  6  7  1  0
  5  8  1  6
  6  9  1  1
  9 10  1  0
 10 11  2  0
 11 12  1  0
  7 13  1  0
 12 13  2  0
  1 14  1  0
  3 15  1  0
 15 16  2  0
 14 17  2  0
 16 17  1  0
  7 18  1  1
 18 19  1  0
 18 20  1  0
 20 21  1  0
 21 22  1  0
 22 23  1  0
 22 29  1  0
 22 35  1  0
 35 36  2  0
 35 37  1  0
  2  3  1  1
  4  5  1  0
 29 30  2  0
 30 31  1  0
 31 32  2  0
 32 34  1  0
 34 33  2  0
 33 29  1  0
 23 24  2  0
 24 25  1  0
 25 26  2  0
 26 27  1  0
 27 28  2  0
 28 23  1  0
M  END
$$$$
