No_1196-complexes_sdf/6BKW-FPZ/2024-09-17-14-21-01/
     RDKit          3D

 15 16  0  0  0  0  0  0  0  0999 V2000
   -7.2496    3.8871   27.4508 C   0  0  0  0  0  0  0  0  0  0  0  0
   -8.5096    4.0291   27.2770 C   0  0  0  0  0  0  0  0  0  0  0  0
   -9.3451    2.8786   26.9046 C   0  0  0  0  0  0  0  0  0  0  0  0
   -6.6065    2.5680   27.5073 C   0  0  0  0  0  0  0  0  0  0  0  0
   -7.3970    1.4834   27.2271 C   0  0  0  0  0  0  0  0  0  0  0  0
   -8.7029    1.6398   26.9934 C   0  0  0  0  0  0  0  0  0  0  0  0
   -9.1106    5.3702   27.2076 C   0  0  0  0  0  0  0  0  0  0  0  0
   -8.2923    6.5067   27.0515 C   0  0  0  0  0  0  0  0  0  0  0  0
   -8.8311    7.8094   26.9329 C   0  0  0  0  0  0  0  0  0  0  0  0
   -6.7548    0.1867   27.2953 C   0  0  0  0  0  0  0  0  0  0  0  0
   -7.3643   -0.9081   27.3263 C   0  0  0  0  0  0  0  0  0  0  0  0
   -5.2815    0.1736   27.2819 C   0  0  0  0  0  0  0  0  0  0  0  0
   -4.6368   -0.7273   26.6402 C   0  0  0  0  0  0  0  0  0  0  0  0
   -6.7187   -2.0950   26.8576 C   0  0  0  0  0  0  0  0  0  0  0  0
   -5.2993   -2.0217   26.6122 C   0  0  0  0  0  0  0  0  0  0  0  0
  2  7  1  0
  7  8  2  3
  8  9  1  0
  5 10  1  0
  1  2  2  0
  2  3  1  0
  3  6  2  0
  6  5  1  0
  5  4  2  0
  4  1  1  0
 10 11  2  0
 11 14  1  0
 14 15  2  0
 15 13  1  0
 13 12  2  0
 12 10  1  0
M  END
$$$$
