No_1317-complexes_sdf/6BKW-FPZ/2024-09-17-14-21-01/
     RDKit          3D

 17 18  0  0  0  0  0  0  0  0999 V2000
   -7.7129    4.2099   27.0854 C   0  0  0  0  0  0  0  0  0  0  0  0
   -8.2112    3.0637   26.9225 C   0  0  0  0  0  0  0  0  0  0  0  0
   -7.5138    1.9223   27.4249 C   0  0  0  0  0  0  0  0  0  0  0  0
   -8.5309    5.4147   26.8151 C   0  0  0  0  0  0  0  0  0  0  0  0
   -9.6817    5.2393   26.1100 C   0  0  0  0  0  0  0  0  0  0  0  0
  -10.1032    3.9957   25.8534 C   0  0  0  0  0  0  0  0  0  0  0  0
   -9.4034    2.8430   26.2573 C   0  0  0  0  0  0  0  0  0  0  0  0
   -7.9625    0.5664   27.2655 C   0  0  0  0  0  0  0  0  0  0  0  0
   -9.2649    0.5125   26.5943 C   0  0  0  0  0  0  0  0  0  0  0  0
   -9.9476    1.5566   26.0984 C   0  0  0  0  0  0  0  0  0  0  0  0
   -7.9740    6.7775   27.0800 C   0  0  0  0  0  0  0  0  0  0  0  0
   -8.6184    7.8330   26.7697 O   0  0  0  0  0  0  0  0  0  0  0  0
   -6.7021    6.8459   27.5894 O   0  0  0  0  0  0  0  0  0  0  0  0
   -7.3831   -0.4108   27.7902 F   0  0  0  0  0  0  0  0  0  0  0  0
  -11.3645    3.8943   25.0754 C   0  0  0  0  0  0  0  0  0  0  0  0
  -12.5233    3.6218   25.8340 C   0  0  0  0  0  0  0  0  0  0  0  0
  -13.7373    3.5222   25.1411 C   0  0  0  0  0  0  0  0  0  0  0  0
  4 11  1  0
 11 12  2  0
 11 13  1  0
  8 14  1  0
  6 15  1  0
 15 16  2  3
 16 17  1  0
  1  2  2  0
  7  6  2  0
  6  5  1  0
  5  4  2  0
  4  1  1  0
  2  3  1  0
  3  8  2  0
  8  9  1  0
  9 10  2  0
 10  7  1  0
  7  2  1  0
M  END
$$$$
