No_1826-complexes_sdf/6BKW-FPZ/2024-09-17-14-21-01/
     RDKit          3D

 24 26  0  0  0  0  0  0  0  0999 V2000
   -7.2496    3.8871   27.4508 C   0  0  0  0  0  0  0  0  0  0  0  0
   -8.5096    4.0291   27.2770 C   0  0  0  0  0  0  0  0  0  0  0  0
   -9.2677    5.1714   27.5773 C   0  0  0  0  0  0  0  0  0  0  0  0
   -6.5711    2.6400   27.2842 C   0  0  0  0  0  0  0  0  0  0  0  0
   -7.2939    1.5094   27.0532 C   0  0  0  0  0  0  0  0  0  0  0  0
   -8.6122    1.6580   26.7575 C   0  0  0  0  0  0  0  0  0  0  0  0
   -9.2984    2.8495   26.9904 C   0  0  0  0  0  0  0  0  0  0  0  0
   -9.3935    6.0658   27.0766 N   0  0  0  0  0  0  0  0  0  0  0  0
   -6.6034    0.2860   26.8596 C   0  0  0  0  0  0  0  0  0  0  0  0
   -7.0652   -0.6658   26.4490 N   0  0  0  0  0  0  0  0  0  0  0  0
   -8.2637   -0.8505   26.1392 C   0  0  0  0  0  0  0  0  0  0  0  0
   -9.1515    0.3786   26.2195 C   0  0  0  0  0  0  0  0  0  0  0  0
   -8.4823    6.3364   26.0359 C   0  0  0  0  0  0  0  0  0  0  0  0
   -6.2429   -1.9589   26.3489 C   0  0  0  0  0  0  0  0  0  0  0  0
   -5.4141   -1.8961   25.3073 C   0  0  2  0  0  0  0  0  0  0  0  0
   -4.8839   -0.8392   24.9365 C   0  0  0  0  0  0  0  0  0  0  0  0
   -5.2882   -3.1102   24.4997 C   0  0  0  0  0  0  0  0  0  0  0  0
   -5.5586   -3.0803   23.2305 N   0  0  0  0  0  0  0  0  0  0  0  0
   -5.2238   -3.9359   22.3343 C   0  0  0  0  0  0  0  0  0  0  0  0
   -5.5422   -3.6433   20.9370 C   0  0  0  0  0  0  0  0  0  0  0  0
   -6.7940   -3.6727   20.6339 N   0  0  0  0  0  0  0  0  0  0  0  0
   -7.6343   -2.9585   21.2505 C   0  0  0  0  0  0  0  0  0  0  0  0
   -6.6596   -2.0461   22.7722 C   0  0  0  0  0  0  0  0  0  0  0  0
   -7.7851   -2.2234   22.2677 C   0  0  0  0  0  0  0  0  0  0  0  0
  3  8  2  3
  5  9  1  0
  9 10  1  0
 10 11  1  0
  6 12  1  0
  8 13  1  0
 10 14  1  0
 14 15  1  0
 15 16  1  6
 15 17  1  0
 17 18  1  0
 18 19  1  0
 19 20  2  0
 20 21  1  0
 21 22  1  0
 18 23  1  0
 22 24  1  0
 23 24  1  0
  3  2  1  0
 12 11  1  0
  1  2  2  0
  2  7  1  0
  7  6  2  0
  6  5  1  0
  5  4  2  0
  4  1  1  0
M  END
$$$$
