No_1140-complexes_sdf/6BKW-FPZ/2024-09-17-14-21-01/
     RDKit          3D

 15 16  0  0  0  0  0  0  0  0999 V2000
   -7.9040    3.9820   27.1177 C   0  0  0  0  0  0  0  0  0  0  0  0
   -7.8663    4.8694   27.9238 C   0  0  0  0  0  0  0  0  0  0  0  0
   -9.0491    3.8523   26.2542 C   0  0  0  0  0  0  0  0  0  0  0  0
   -8.7661    5.9491   27.9690 C   0  0  0  0  0  0  0  0  0  0  0  0
   -9.9295    4.8502   26.2323 C   0  0  0  0  0  0  0  0  0  0  0  0
   -9.8077    5.9288   27.0933 C   0  0  0  0  0  0  0  0  0  0  0  0
   -9.0726    2.7074   25.3087 C   0  0  0  0  0  0  0  0  0  0  0  0
   -8.6026    1.4628   25.7488 C   0  0  0  0  0  0  0  0  0  0  0  0
   -9.8167    2.8097   24.1154 C   0  0  0  0  0  0  0  0  0  0  0  0
   -8.0518    1.2857   26.9330 C   0  0  0  0  0  0  0  0  0  0  0  0
   -7.3876    2.6053   27.5790 C   0  0  0  0  0  0  0  0  0  0  0  0
  -10.8638    2.4856   23.8666 C   0  0  0  0  0  0  0  0  0  0  0  0
  -11.5414    2.7082   22.5993 C   0  0  0  0  0  0  0  0  0  0  0  0
  -10.8302    3.4902   21.6649 C   0  0  0  0  0  0  0  0  0  0  0  0
   -9.7963    4.1852   22.0091 C   0  0  0  0  0  0  0  0  0  0  0  0
  7  9  1  0
  9 12  2  3
 12 13  1  0
 13 14  2  3
 14 15  1  0
  3  7  1  0
  7  8  2  0
  8 10  1  0
 10 11  2  0
 11  1  1  0
  1  2  2  0
  2  4  1  0
  4  6  2  0
  6  5  1  0
  5  3  2  0
  3  1  1  0
M  END
$$$$
