No_1040-complexes_sdf/6BKW-FPZ/2024-09-17-14-21-01/
     RDKit          3D

 20 22  0  0  0  0  0  0  0  0999 V2000
   -7.9040    3.9820   27.1177 C   0  0  0  0  0  0  0  0  0  0  0  0
   -7.8663    4.8694   27.9238 C   0  0  0  0  0  0  0  0  0  0  0  0
   -7.4698    2.6989   27.4277 C   0  0  0  0  0  0  0  0  0  0  0  0
   -6.1691    2.6024   27.7920 C   0  0  0  0  0  0  0  0  0  0  0  0
   -8.5263    6.1540   27.6333 C   0  0  0  0  0  0  0  0  0  0  0  0
   -5.6071    1.3999   28.1085 N   0  0  0  0  0  0  0  0  0  0  0  0
   -8.8672    4.1522   26.0487 C   0  0  0  0  0  0  0  0  0  0  0  0
   -9.4841    5.3608   25.7364 C   0  0  0  0  0  0  0  0  0  0  0  0
   -9.2665    6.4285   26.6056 C   0  0  0  0  0  0  0  0  0  0  0  0
   -6.3278    0.2963   27.8916 C   0  0  0  0  0  0  0  0  0  0  0  0
   -8.2086    1.4769   27.3183 C   0  0  0  0  0  0  0  0  0  0  0  0
   -7.6183    0.3080   27.5349 C   0  0  0  0  0  0  0  0  0  0  0  0
   -5.6162   -0.9940   28.2401 C   0  0  0  0  0  0  0  0  0  0  0  0
   -6.1012   -2.0169   28.3247 O   0  0  0  0  0  0  0  0  0  0  0  0
   -4.2252   -0.8541   28.4991 N   0  0  0  0  0  0  0  0  0  0  0  0
   -3.4326   -2.0079   28.8684 C   0  0  0  0  0  0  0  0  0  0  0  0
   -2.1439   -1.7898   28.3270 C   0  0  0  0  0  0  0  0  0  0  0  0
   -1.6303   -0.5639   27.9082 C   0  0  0  0  0  0  0  0  0  0  0  0
   -2.5180    0.5132   27.7101 C   0  0  0  0  0  0  0  0  0  0  0  0
   -3.7238    0.3035   27.9150 C   0  0  0  0  0  0  0  0  0  0  0  0
  1  3  1  0
 10 13  1  0
 13 14  2  0
 13 15  1  0
 15 16  1  0
 17 18  1  0
 15 20  1  0
 19 20  1  0
 16 17  1  0
 18 19  1  0
  3  4  2  0
  4  6  1  0
  6 10  2  0
 10 12  1  0
 12 11  2  0
 11  3  1  0
  1  2  2  0
  2  5  1  0
  5  9  2  0
  9  8  1  0
  8  7  2  0
  7  1  1  0
M  END
$$$$
