No_1120-complexes_sdf/6BKW-FPZ/2024-09-17-14-21-01/
     RDKit          3D

 23 26  0  0  0  0  0  0  0  0999 V2000
   -7.2496    3.8871   27.4508 C   0  0  0  0  0  0  0  0  0  0  0  0
   -7.9379    4.9063   27.8518 C   0  0  0  0  0  0  0  0  0  0  0  0
   -9.3460    4.8223   27.8695 C   0  0  0  0  0  0  0  0  0  0  0  0
   -7.8628    2.6163   27.1065 C   0  0  0  0  0  0  0  0  0  0  0  0
   -9.2787    2.5744   27.1970 C   0  0  0  0  0  0  0  0  0  0  0  0
  -10.0108    3.6770   27.6340 C   0  0  0  0  0  0  0  0  0  0  0  0
  -11.4487    3.3729   27.7139 C   0  0  0  0  0  0  0  0  0  0  0  0
  -11.9343    2.4096   28.2605 C   0  0  0  0  0  0  0  0  0  0  0  0
  -11.0138    1.5489   28.9103 C   0  0  0  0  0  0  0  0  0  0  0  0
   -9.7612    1.3115   28.0633 C   0  0  0  0  0  0  0  0  0  0  0  0
   -7.3497    6.0873   27.9643 F   0  0  0  0  0  0  0  0  0  0  0  0
  -13.3345    2.2475   28.7080 C   0  0  0  0  0  0  0  0  0  0  0  0
  -14.5787    2.9624   28.1590 Cl  0  0  0  0  0  0  0  0  0  0  0  0
  -13.6511    1.2774   29.8249 C   0  0  1  0  0  0  0  0  0  0  0  0
  -14.8472    1.1805   30.1780 N   0  0  0  0  0  0  0  0  0  0  0  0
  -15.3369    0.0759   30.6721 C   0  0  0  0  0  0  0  0  0  0  0  0
  -14.4676   -0.8228   30.9704 C   0  0  0  0  0  0  0  0  0  0  0  0
  -14.7673   -1.9376   31.7592 C   0  0  0  0  0  0  0  0  0  0  0  0
  -13.7002   -2.7305   32.2673 C   0  0  0  0  0  0  0  0  0  0  0  0
  -12.3832   -2.5749   31.7792 C   0  0  0  0  0  0  0  0  0  0  0  0
  -12.1142   -1.5980   30.8510 C   0  0  0  0  0  0  0  0  0  0  0  0
  -13.0574   -0.7293   30.5699 C   0  0  0  0  0  0  0  0  0  0  0  0
  -12.8020    0.3010   29.9067 O   0  0  0  0  0  0  0  0  0  0  0  0
  1  2  2  0
  2  3  1  0
  1  4  1  0
  4  5  2  0
  3  6  2  0
  5  6  1  0
  6  7  1  0
  7  8  2  0
  8  9  1  0
  5 10  1  0
  9 10  1  0
  2 11  1  0
  8 12  1  0
 12 13  1  0
 14 12  1  6
 14 15  1  0
 15 16  1  0
 16 17  2  0
 17 18  1  0
 18 19  2  0
 19 20  1  0
 20 21  2  0
 17 22  1  0
 21 22  1  0
 14 23  1  0
 22 23  1  0
M  END
$$$$
