No_1553-complexes_sdf/6BKW-FPZ/2024-09-17-14-21-01/
     RDKit          3D

 33 36  0  0  0  0  0  0  0  0999 V2000
   -7.7129    4.2099   27.0854 C   0  0  0  0  0  0  0  0  0  0  0  0
   -7.7814    5.1722   27.8972 C   0  0  0  0  0  0  0  0  0  0  0  0
   -8.8776    3.8408   26.3416 C   0  0  0  0  0  0  0  0  0  0  0  0
   -9.9844    4.6492   26.4743 C   0  0  0  0  0  0  0  0  0  0  0  0
   -8.8033    6.1375   27.8728 C   0  0  0  0  0  0  0  0  0  0  0  0
   -9.9554    5.8280   27.1736 C   0  0  0  0  0  0  0  0  0  0  0  0
   -8.8750    2.4229   25.4217 Cl  0  0  0  0  0  0  0  0  0  0  0  0
  -11.1502    4.3338   25.6474 C   0  0  2  0  0  0  0  0  0  0  0  0
  -11.0261    4.1439   24.1936 C   0  0  0  0  0  0  0  0  0  0  0  0
  -12.0897    4.0216   23.4112 C   0  0  0  0  0  0  0  0  0  0  0  0
  -11.9096    3.7928   22.0023 C   0  0  0  0  0  0  0  0  0  0  0  0
  -10.5644    3.6941   21.5003 C   0  0  0  0  0  0  0  0  0  0  0  0
   -9.5216    3.7875   22.3827 C   0  0  0  0  0  0  0  0  0  0  0  0
   -9.6407    3.9957   23.6924 C   0  0  0  0  0  0  0  0  0  0  0  0
   -6.6985    5.5782   28.6200 F   0  0  0  0  0  0  0  0  0  0  0  0
  -13.2465    3.8578   20.9464 Cl  0  0  0  0  0  0  0  0  0  0  0  0
  -12.0114    4.7513   26.1962 C   0  0  0  0  0  0  0  0  0  0  0  0
  -13.0655    3.8144   26.8830 C   0  0  0  0  0  0  0  0  0  0  0  0
  -14.2234    4.3073   27.5234 C   0  0  0  0  0  0  0  0  0  0  0  0
  -14.7660    3.7325   28.5847 C   0  0  0  0  0  0  0  0  0  0  0  0
  -14.3206    2.4108   28.9140 C   0  0  0  0  0  0  0  0  0  0  0  0
  -13.2035    1.8595   28.2850 C   0  0  0  0  0  0  0  0  0  0  0  0
  -12.4771    2.6019   27.4147 C   0  0  0  0  0  0  0  0  0  0  0  0
  -15.0775    1.6105   29.9545 C   0  0  0  0  0  0  0  0  0  0  0  0
  -15.0005    1.9802   31.0923 N   0  0  0  0  0  0  0  0  0  0  0  0
  -14.2356    2.9789   31.4505 C   0  0  0  0  0  0  0  0  0  0  0  0
  -14.6111    3.8868   32.4660 C   0  0  0  0  0  0  0  0  0  0  0  0
  -13.6171    4.7197   33.1132 C   0  0  0  0  0  0  0  0  0  0  0  0
  -14.0272    5.6567   34.0540 C   0  0  0  0  0  0  0  0  0  0  0  0
  -15.3525    5.6968   34.4530 C   0  0  0  0  0  0  0  0  0  0  0  0
  -16.2893    4.8901   33.8433 C   0  0  0  0  0  0  0  0  0  0  0  0
  -15.9303    4.0374   32.8863 C   0  0  0  0  0  0  0  0  0  0  0  0
  -15.7444    0.8358   29.4177 O   0  0  0  0  0  0  0  0  0  0  0  0
  3  7  1  0
  4  8  1  0
  8  9  1  0
  2 15  1  0
 11 16  1  0
  8 17  1  6
 21 24  1  0
 24 25  1  0
 25 26  1  0
 24 33  2  0
 17 18  1  0
 26 27  1  0
  9 10  2  0
 10 11  1  0
 11 12  2  0
 12 13  1  0
 13 14  2  0
 14  9  1  0
 18 19  2  0
 19 20  1  0
 20 21  2  0
 21 22  1  0
 22 23  2  0
 23 18  1  0
  1  2  2  0
  2  5  1  0
  5  6  2  0
  6  4  1  0
  4  3  2  0
  3  1  1  0
 27 28  2  0
 28 29  1  0
 29 30  2  0
 30 31  1  0
 31 32  2  0
 32 27  1  0
M  END
$$$$
