No_1481-complexes_sdf/6BKW-FPZ/2024-09-17-14-21-01/
     RDKit          3D

 29 31  0  0  0  0  0  0  0  0999 V2000
   -7.7129    4.2099   27.0854 C   0  0  0  0  0  0  0  0  0  0  0  0
   -8.2112    3.0637   26.9225 C   0  0  0  0  0  0  0  0  0  0  0  0
   -8.5108    5.3904   26.9436 C   0  0  0  0  0  0  0  0  0  0  0  0
   -7.9752    6.6981   27.2112 C   0  0  0  0  0  0  0  0  0  0  0  0
   -9.5213    2.8209   26.4688 C   0  0  0  0  0  0  0  0  0  0  0  0
  -10.2979    3.9327   26.2378 C   0  0  0  0  0  0  0  0  0  0  0  0
   -9.7894    5.2123   26.4395 C   0  0  0  0  0  0  0  0  0  0  0  0
   -7.3451    1.8185   27.1796 C   0  0  0  0  0  0  0  0  0  0  0  0
   -7.7334    0.5959   26.9376 N   0  0  0  0  0  0  0  0  0  0  0  0
   -6.1037    1.9888   27.6907 N   0  0  0  0  0  0  0  0  0  0  0  0
   -6.6548   -0.1356   27.3557 C   0  0  0  0  0  0  0  0  0  0  0  0
   -5.6710    0.6824   27.8166 C   0  0  0  0  0  0  0  0  0  0  0  0
   -4.3245    0.3671   28.3768 C   0  0  0  0  0  0  0  0  0  0  0  0
   -3.3205    1.0603   28.1368 F   0  0  0  0  0  0  0  0  0  0  0  0
   -4.0277   -0.9748   28.0664 F   0  0  0  0  0  0  0  0  0  0  0  0
   -4.5014    0.2949   29.8315 F   0  0  0  0  0  0  0  0  0  0  0  0
   -8.6244    7.8093   26.7996 N   0  0  0  0  0  0  0  0  0  0  0  0
   -6.8403    6.7946   27.7771 O   0  0  0  0  0  0  0  0  0  0  0  0
  -11.6372    3.7902   25.6531 C   0  0  0  0  0  0  0  0  0  0  0  0
  -12.6941    3.4181   26.4692 C   0  0  0  0  0  0  0  0  0  0  0  0
  -12.6008    3.1435   27.6954 C   0  0  0  0  0  0  0  0  0  0  0  0
  -13.7489    2.8548   28.5657 C   0  0  0  0  0  0  0  0  0  0  0  0
  -14.9704    2.8462   27.9482 C   0  0  0  0  0  0  0  0  0  0  0  0
  -14.0259    3.5529   25.8223 C   0  0  0  0  0  0  0  0  0  0  0  0
  -15.1479    3.1994   26.6494 C   0  0  0  0  0  0  0  0  0  0  0  0
  -11.7570    4.0019   24.2325 C   0  0  0  0  0  0  0  0  0  0  0  0
  -10.6038    4.3298   23.4671 C   0  0  0  0  0  0  0  0  0  0  0  0
  -10.8717    4.2131   22.1175 C   0  0  0  0  0  0  0  0  0  0  0  0
  -12.0796    4.0217   21.5953 C   0  0  0  0  0  0  0  0  0  0  0  0
  3  4  1  0
  2  8  1  0
  8  9  2  0
  8 10  1  0
  9 11  1  0
 10 12  2  0
 11 12  1  0
 12 13  1  0
 13 14  1  0
 13 15  1  0
 13 16  1  0
  4 17  1  0
  4 18  2  0
  6 19  1  0
 19 20  1  0
 19 26  1  0
 26 27  1  0
 27 28  2  3
 28 29  1  0
 20 21  2  0
 21 22  1  0
 22 23  2  0
 23 25  1  0
 25 24  2  0
 24 20  1  0
  1  2  2  0
  2  5  1  0
  5  6  2  0
  6  7  1  0
  7  3  2  0
  3  1  1  0
M  END
$$$$
