No_1600-complexes_sdf/6BKW-FPZ/2024-09-17-14-21-01/
     RDKit          3D

 23 24  0  0  0  0  0  0  0  0999 V2000
   -7.2496    3.8871   27.4508 C   0  0  0  0  0  0  0  0  0  0  0  0
   -7.9379    4.9063   27.8518 C   0  0  0  0  0  0  0  0  0  0  0  0
   -7.4895    6.2027   27.7481 C   0  0  0  0  0  0  0  0  0  0  0  0
   -7.8057    2.6324   27.3137 C   0  0  0  0  0  0  0  0  0  0  0  0
   -9.1872    2.4678   27.5434 C   0  0  0  0  0  0  0  0  0  0  0  0
   -9.9237    3.5447   27.9999 C   0  0  0  0  0  0  0  0  0  0  0  0
   -9.3832    4.8080   28.1012 C   0  0  0  0  0  0  0  0  0  0  0  0
  -11.3761    3.3018   28.3126 C   0  0  0  0  0  0  0  0  0  0  0  0
  -12.2124    4.2820   28.4930 C   0  0  0  0  0  0  0  0  0  0  0  0
  -13.5919    4.1306   28.8210 C   0  0  0  0  0  0  0  0  0  0  0  0
  -14.0002    2.8334   29.1368 C   0  0  0  0  0  0  0  0  0  0  0  0
  -13.1296    1.7693   29.0426 C   0  0  0  0  0  0  0  0  0  0  0  0
  -11.9056    1.9139   28.7441 C   0  0  0  0  0  0  0  0  0  0  0  0
   -7.0266    1.4335   26.9300 C   0  0  0  0  0  0  0  0  0  0  0  0
   -7.3681    0.8974   25.9030 F   0  0  0  0  0  0  0  0  0  0  0  0
   -5.9130    1.9904   26.9371 F   0  0  0  0  0  0  0  0  0  0  0  0
   -7.1217    0.5020   27.9500 F   0  0  0  0  0  0  0  0  0  0  0  0
  -13.5727    0.3812   29.4082 C   0  0  0  0  0  0  0  0  0  0  0  0
  -14.3870   -0.1835   28.6099 O   0  0  0  0  0  0  0  0  0  0  0  0
  -13.0718   -0.2703   30.3979 O   0  0  0  0  0  0  0  0  0  0  0  0
   -8.1919    7.2665   27.1959 N   0  0  0  0  0  0  0  0  0  0  0  0
   -8.8134    7.1525   26.0872 C   0  0  0  0  0  0  0  0  0  0  0  0
  -14.3646    5.1827   28.9170 F   0  0  0  0  0  0  0  0  0  0  0  0
  2  3  1  0
  6  8  1  0
  4 14  1  0
 14 15  1  0
 14 16  1  0
 14 17  1  0
 12 18  1  0
 18 19  2  0
 18 20  1  0
  3 21  1  0
 21 22  1  0
 10 23  1  0
  1  2  2  0
  2  7  1  0
  7  6  2  0
  6  5  1  0
  5  4  2  0
  4  1  1  0
  8  9  2  0
  9 10  1  0
 10 11  2  0
 11 12  1  0
 12 13  2  0
 13  8  1  0
M  END
$$$$
