No_1468-complexes_sdf/6BKW-FPZ/2024-09-17-14-21-01/
     RDKit          3D

 12 12  0  0  0  0  0  0  0  0999 V2000
   -7.9040    3.9820   27.1177 C   0  0  0  0  0  0  0  0  0  0  0  0
   -7.8663    4.8694   27.9238 C   0  0  0  0  0  0  0  0  0  0  0  0
   -9.0491    3.8523   26.2542 C   0  0  0  0  0  0  0  0  0  0  0  0
   -8.7661    5.9491   27.9690 C   0  0  0  0  0  0  0  0  0  0  0  0
   -9.9295    4.8502   26.2323 C   0  0  0  0  0  0  0  0  0  0  0  0
   -9.8077    5.9288   27.0933 C   0  0  0  0  0  0  0  0  0  0  0  0
   -9.0726    2.7074   25.3087 C   0  0  0  0  0  0  0  0  0  0  0  0
   -8.5824    1.5503   25.7138 N   0  0  0  0  0  0  0  0  0  0  0  0
   -8.0005    1.3657   26.8322 C   0  0  0  0  0  0  0  0  0  0  0  0
   -7.4670    0.0698   27.1573 C   0  0  0  0  0  0  0  0  0  0  0  0
   -8.7069    0.3655   24.8927 C   0  0  0  0  0  0  0  0  0  0  0  0
   -6.6890   -0.1265   28.3527 C   0  0  0  0  0  0  0  0  0  0  0  0
  3  7  1  0
  7  8  1  0
  8  9  1  0
  9 10  2  3
  8 11  1  0
 10 12  1  0
  1  2  2  0
  2  4  1  0
  4  6  2  0
  6  5  1  0
  5  3  2  0
  3  1  1  0
M  END
$$$$
