No_1210-complexes_sdf/6BKW-FPZ/2024-09-17-14-21-01/
     RDKit          3D

 24 25  0  0  0  0  0  0  0  0999 V2000
   -7.2496    3.8871   27.4508 C   0  0  0  0  0  0  0  0  0  0  0  0
   -8.5096    4.0291   27.2770 C   0  0  0  0  0  0  0  0  0  0  0  0
   -9.3451    2.8786   26.9046 C   0  0  0  0  0  0  0  0  0  0  0  0
   -6.6065    2.5680   27.5073 C   0  0  0  0  0  0  0  0  0  0  0  0
   -7.3970    1.4834   27.2271 C   0  0  0  0  0  0  0  0  0  0  0  0
   -8.7029    1.6398   26.9934 C   0  0  0  0  0  0  0  0  0  0  0  0
   -9.1085    5.3654   27.2135 C   0  0  0  0  0  0  0  0  0  0  0  0
   -8.5196    6.2304   26.6508 F   0  0  0  0  0  0  0  0  0  0  0  0
  -10.4036    5.2774   26.6509 F   0  0  0  0  0  0  0  0  0  0  0  0
   -4.9612    2.4557   27.8830 Cl  0  0  0  0  0  0  0  0  0  0  0  0
   -9.3502    5.7648   28.5637 F   0  0  0  0  0  0  0  0  0  0  0  0
   -6.7635    0.1549   27.2256 C   0  0  0  0  0  0  0  0  0  0  0  0
   -7.3198   -0.8919   26.8344 C   0  0  0  0  0  0  0  0  0  0  0  0
   -8.7394   -0.8075   26.4245 C   0  0  0  0  0  0  0  0  0  0  0  0
   -9.4692    0.4854   26.5315 C   0  0  0  0  0  0  0  0  0  0  0  0
   -9.4752   -1.8850   26.0701 O   0  0  0  0  0  0  0  0  0  0  0  0
   -9.9276   -2.7573   26.8736 C   0  0  0  0  0  0  0  0  0  0  0  0
  -10.7320   -3.4324   26.6911 C   0  0  0  0  0  0  0  0  0  0  0  0
  -11.4078   -3.4435   25.4068 C   0  0  0  0  0  0  0  0  0  0  0  0
  -10.9880   -2.7586   24.5105 C   0  0  0  0  0  0  0  0  0  0  0  0
  -11.5034   -2.5972   23.1030 C   0  0  0  0  0  0  0  0  0  0  0  0
  -10.8730   -1.7647   22.2184 C   0  0  0  0  0  0  0  0  0  0  0  0
   -9.7301   -0.9816   22.5869 C   0  0  0  0  0  0  0  0  0  0  0  0
   -9.1831   -1.1344   23.8033 C   0  0  0  0  0  0  0  0  0  0  0  0
  2  7  1  0
  7  8  1  0
  7  9  1  0
  4 10  1  0
  7 11  1  0
 14 16  1  0
 16 17  1  0
 17 18  2  3
 18 19  1  0
 19 20  1  0
 20 21  1  0
 21 22  2  3
 22 23  1  0
 23 24  2  0
  6 15  1  0
 15 14  2  0
 14 13  1  0
 13 12  2  0
 12  5  1  0
  1  2  2  0
  2  3  1  0
  3  6  2  0
  6  5  1  0
  5  4  2  0
  4  1  1  0
M  END
$$$$
