No_1578-complexes_sdf/6BKW-FPZ/2024-09-17-14-21-01/
     RDKit          3D

  6  5  0  0  0  0  0  0  0  0999 V2000
   -7.9040    3.9820   27.1177 C   0  0  0  0  0  0  0  0  0  0  0  0
   -7.8663    4.8694   27.9238 C   0  0  0  0  0  0  0  0  0  0  0  0
   -9.0953    3.1697   27.0532 C   0  0  0  0  0  0  0  0  0  0  0  0
  -10.0353    3.4789   27.6218 C   0  0  0  0  0  0  0  0  0  0  0  0
   -8.9759    5.4561   28.5230 C   0  0  0  0  0  0  0  0  0  0  0  0
  -11.3421    2.7234   27.6015 C   0  0  0  0  0  0  0  0  0  0  0  0
  1  2  2  3
  1  3  1  0
  3  4  3  0
  2  5  1  0
  4  6  1  0
M  END
$$$$
