No_1847-complexes_sdf/6BKW-FPZ/2024-09-17-14-21-01/
     RDKit          3D

 17 19  0  0  0  0  0  0  0  0999 V2000
   -7.7129    4.2099   27.0854 C   0  0  0  0  0  0  0  0  0  0  0  0
   -8.9133    4.4736   27.0998 C   0  0  2  0  0  0  0  0  0  0  0  0
   -9.7135    3.9633   26.0300 C   0  0  0  0  0  0  0  0  0  0  0  0
   -6.8655    4.8824   28.1822 C   0  0  0  0  0  0  0  0  0  0  0  0
  -10.8856    4.5824   25.6430 C   0  0  0  0  0  0  0  0  0  0  0  0
   -7.6664    5.7849   28.7962 N   0  0  0  0  0  0  0  0  0  0  0  0
   -8.8934    5.5511   27.9459 C   0  0  0  0  0  0  0  0  0  0  0  0
  -11.7171    3.9099   24.8297 C   0  0  0  0  0  0  0  0  0  0  0  0
  -11.3731    2.7410   24.1990 C   0  0  0  0  0  0  0  0  0  0  0  0
  -10.2066    2.1361   24.5747 C   0  0  0  0  0  0  0  0  0  0  0  0
   -9.3637    2.6914   25.5592 C   0  0  0  0  0  0  0  0  0  0  0  0
   -9.8446    0.7939   24.0038 C   0  0  0  0  0  0  0  0  0  0  0  0
   -9.4253    0.7925   22.7505 C   0  0  0  0  0  0  0  0  0  0  0  0
   -8.9394   -0.4380   22.1272 C   0  0  0  0  0  0  0  0  0  0  0  0
   -8.7949   -1.5736   22.9188 C   0  0  0  0  0  0  0  0  0  0  0  0
   -9.5948   -0.3040   24.8435 C   0  0  0  0  0  0  0  0  0  0  0  0
   -9.1409   -1.5064   24.2759 C   0  0  0  0  0  0  0  0  0  0  0  0
  1  2  1  0
  1  4  1  0
  4  6  2  0
  2  7  1  0
  6  7  1  0
 10 12  1  0
  2  3  1  6
 12 13  2  0
 13 14  1  0
 14 15  2  0
 15 17  1  0
 17 16  2  0
 16 12  1  0
  3  5  2  0
  5  8  1  0
  8  9  2  0
  9 10  1  0
 10 11  2  0
 11  3  1  0
M  END
$$$$
