No_1290-complexes_sdf/6BKW-FPZ/2024-09-17-14-21-01/
     RDKit          3D

 19 21  0  0  0  0  0  0  0  0999 V2000
   -7.7129    4.2099   27.0854 C   0  0  0  0  0  0  0  0  0  0  0  0
   -8.9133    4.4736   27.0998 C   0  0  0  0  0  0  0  0  0  0  0  0
   -9.7135    3.9633   26.0300 C   0  0  0  0  0  0  0  0  0  0  0  0
   -6.8655    4.8824   28.1822 C   0  0  0  0  0  0  0  0  0  0  0  0
   -9.2221    2.8459   25.3619 C   0  0  0  0  0  0  0  0  0  0  0  0
   -8.0164    2.2957   25.7889 C   0  0  0  0  0  0  0  0  0  0  0  0
   -7.3052    2.9474   26.8072 C   0  0  0  0  0  0  0  0  0  0  0  0
   -9.9249    2.0506   24.4349 C   0  0  0  0  0  0  0  0  0  0  0  0
  -10.6384    2.7424   23.4344 C   0  0  0  0  0  0  0  0  0  0  0  0
  -10.7294    4.1925   23.4652 C   0  0  0  0  0  0  0  0  0  0  0  0
  -11.2382    2.0680   22.2972 C   0  0  0  0  0  0  0  0  0  0  0  0
  -11.2239    0.9372   22.0967 C   0  0  0  0  0  0  0  0  0  0  0  0
  -11.8400    0.2331   21.0511 C   0  0  0  0  0  0  0  0  0  0  0  0
  -12.4454    1.0596   20.0776 C   0  0  0  0  0  0  0  0  0  0  0  0
  -12.4047    2.4243   20.1797 C   0  0  0  0  0  0  0  0  0  0  0  0
  -11.8194    3.0203   21.2577 C   0  0  0  0  0  0  0  0  0  0  0  0
   -9.4755    5.8272   27.5958 C   0  0  0  0  0  0  0  0  0  0  0  0
  -11.3897    4.8269   24.5101 C   0  0  0  0  0  0  0  0  0  0  0  0
  -10.9435    4.4453   25.8122 C   0  0  0  0  0  0  0  0  0  0  0  0
  1  4  1  0
  5  8  1  0
  8  9  2  0
  9 10  1  0
  9 11  1  0
  2 17  1  0
 10 18  1  0
  3 19  1  0
 18 19  2  0
 11 12  2  0
 12 13  1  0
 13 14  2  0
 14 15  1  0
 15 16  2  0
 16 11  1  0
  1  2  2  0
  2  3  1  0
  3  5  2  0
  5  6  1  0
  6  7  2  0
  7  1  1  0
M  END
$$$$
