No_1462-complexes_sdf/6BKW-FPZ/2024-09-17-14-21-01/
     RDKit          3D

 14 14  0  0  0  0  0  0  0  0999 V2000
   -7.7129    4.2099   27.0854 C   0  0  0  0  0  0  0  0  0  0  0  0
   -7.7814    5.1722   27.8972 C   0  0  0  0  0  0  0  0  0  0  0  0
   -8.8998    3.8713   26.3707 C   0  0  0  0  0  0  0  0  0  0  0  0
   -9.7416    3.2213   26.9591 C   0  0  0  0  0  0  0  0  0  0  0  0
  -10.1082    3.3017   28.0352 C   0  0  0  0  0  0  0  0  0  0  0  0
   -8.8391    5.2426   28.9792 C   0  0  0  0  0  0  0  0  0  0  0  0
   -9.9642    4.4471   28.9321 C   0  0  0  0  0  0  0  0  0  0  0  0
  -10.4778    2.1202   26.1134 C   0  0  1  0  0  0  0  0  0  0  0  0
  -11.7025    2.3739   25.1524 Cl  0  0  0  0  0  0  0  0  0  0  0  0
   -9.9056    0.7768   26.1223 C   0  0  0  0  0  0  0  0  0  0  0  0
  -10.0591    0.0413   25.2828 C   0  0  0  0  0  0  0  0  0  0  0  0
   -9.4542   -1.3322   25.3105 C   0  0  0  0  0  0  0  0  0  0  0  0
   -8.6542   -1.6376   26.4123 C   0  0  0  0  0  0  0  0  0  0  0  0
   -8.4414   -0.7171   27.4137 C   0  0  0  0  0  0  0  0  0  0  0  0
  1  2  1  0
  1  3  1  0
  3  4  2  0
  4  5  1  0
  2  6  2  0
  5  7  2  0
  6  7  1  0
  4  8  1  0
  8  9  1  6
  8 10  1  0
 10 11  2  3
 11 12  1  0
 12 13  2  3
 13 14  1  0
M  END
$$$$
