No_1367-complexes_sdf/6BKW-FPZ/2024-09-17-14-21-01/
     RDKit          3D

 20 21  0  0  0  0  0  0  0  0999 V2000
   -7.2496    3.8871   27.4508 C   0  0  0  0  0  0  0  0  0  0  0  0
   -7.6161    2.7143   27.1523 C   0  0  0  0  0  0  0  0  0  0  0  0
   -7.1618    1.8631   27.5232 C   0  0  0  0  0  0  0  0  0  0  0  0
   -8.0036    5.1085   27.2100 C   0  0  2  0  0  0  0  0  0  0  0  0
   -9.0765    5.1561   26.4023 C   0  0  0  0  0  0  0  0  0  0  0  0
   -9.5423    3.9740   25.8512 C   0  0  0  0  0  0  0  0  0  0  0  0
   -8.8464    2.7352   26.2620 C   0  0  0  0  0  0  0  0  0  0  0  0
   -5.7299    1.8019   28.0144 C   0  0  1  0  0  0  0  0  0  0  0  0
   -5.2576    2.9475   28.2875 F   0  0  0  0  0  0  0  0  0  0  0  0
   -4.9656    0.6162   28.2644 C   0  0  0  0  0  0  0  0  0  0  0  0
   -5.4879   -0.5021   28.4971 N   0  0  0  0  0  0  0  0  0  0  0  0
   -5.1570   -1.3440   29.4046 C   0  0  0  0  0  0  0  0  0  0  0  0
   -4.7971   -1.0755   30.3498 C   0  0  0  0  0  0  0  0  0  0  0  0
   -4.3905   -1.9297   31.5014 C   0  0  0  0  0  0  0  0  0  0  0  0
   -4.7052   -3.2419   31.3248 C   0  0  0  0  0  0  0  0  0  0  0  0
   -5.5666   -2.7422   29.2740 C   0  0  0  0  0  0  0  0  0  0  0  0
   -5.3148   -3.6506   30.2093 C   0  0  0  0  0  0  0  0  0  0  0  0
   -7.5102    6.2778   27.7410 F   0  0  0  0  0  0  0  0  0  0  0  0
  -10.6385    3.9332   24.9215 C   0  0  0  0  0  0  0  0  0  0  0  0
  -11.8753    3.7067   25.3850 C   0  0  0  0  0  0  0  0  0  0  0  0
  1  2  1  0
  2  3  2  3
  1  4  1  0
  4  5  1  0
  5  6  1  0
  2  7  1  0
  6  7  1  0
  3  8  1  0
  8  9  1  1
  8 10  1  0
 10 11  1  0
 11 12  1  0
  4 18  1  6
  6 19  1  0
 19 20  2  0
 12 13  2  0
 13 14  1  0
 14 15  2  0
 15 17  1  0
 17 16  2  0
 16 12  1  0
M  END
$$$$
