No_1024-complexes_sdf/6BKW-FPZ/2024-09-17-14-21-01/
     RDKit          3D

 16 17  0  0  0  0  0  0  0  0999 V2000
   -7.9040    3.9820   27.1177 C   0  0  0  0  0  0  0  0  0  0  0  0
   -7.8663    4.8694   27.9238 C   0  0  0  0  0  0  0  0  0  0  0  0
   -9.0501    3.8017   26.2617 C   0  0  0  0  0  0  0  0  0  0  0  0
  -10.0189    4.7608   26.3707 C   0  0  0  0  0  0  0  0  0  0  0  0
   -8.6770    5.9780   27.9222 C   0  0  0  0  0  0  0  0  0  0  0  0
   -9.8040    5.8752   27.0958 C   0  0  0  0  0  0  0  0  0  0  0  0
   -9.1434    2.6226   25.4210 C   0  0  0  0  0  0  0  0  0  0  0  0
   -8.6319    1.4995   25.8056 N   0  0  0  0  0  0  0  0  0  0  0  0
   -8.4705    0.4391   25.0061 C   0  0  0  0  0  0  0  0  0  0  0  0
   -9.7058    2.7663   24.3024 O   0  0  0  0  0  0  0  0  0  0  0  0
   -9.0959    0.1683   24.0811 C   0  0  0  0  0  0  0  0  0  0  0  0
   -8.8177   -0.9148   23.1456 C   0  0  0  0  0  0  0  0  0  0  0  0
   -7.6840   -1.7329   23.4493 C   0  0  0  0  0  0  0  0  0  0  0  0
   -7.2752   -0.4186   25.3589 C   0  0  0  0  0  0  0  0  0  0  0  0
   -6.9268   -1.4679   24.5516 C   0  0  0  0  0  0  0  0  0  0  0  0
   -7.4918   -2.7836   22.6143 F   0  0  0  0  0  0  0  0  0  0  0  0
  3  7  1  0
  7  8  1  0
  8  9  1  0
  7 10  2  0
 13 16  1  0
  9 11  2  0
 11 12  1  0
 12 13  2  0
 13 15  1  0
 15 14  2  0
 14  9  1  0
  1  2  2  0
  2  5  1  0
  5  6  2  0
  6  4  1  0
  4  3  2  0
  3  1  1  0
M  END
$$$$
