No_1803-complexes_sdf/6BKW-FPZ/2024-09-17-14-21-01/
     RDKit          3D

 28 30  0  0  0  0  0  0  0  0999 V2000
   -7.9040    3.9820   27.1177 C   0  0  0  0  0  0  0  0  0  0  0  0
   -7.8663    4.8694   27.9238 C   0  0  0  0  0  0  0  0  0  0  0  0
   -9.0501    3.8017   26.2617 C   0  0  0  0  0  0  0  0  0  0  0  0
   -9.1826    2.7026   25.3575 C   0  0  0  0  0  0  0  0  0  0  0  0
   -8.6940    6.0131   27.8614 C   0  0  0  0  0  0  0  0  0  0  0  0
   -9.9755    4.8547   26.2361 C   0  0  0  0  0  0  0  0  0  0  0  0
   -9.7463    5.9398   27.0364 C   0  0  0  0  0  0  0  0  0  0  0  0
   -8.6982    1.5568   25.7278 N   0  0  0  0  0  0  0  0  0  0  0  0
   -8.5665    0.5033   24.9091 C   0  0  0  0  0  0  0  0  0  0  0  0
   -9.7261    2.8539   24.2600 O   0  0  0  0  0  0  0  0  0  0  0  0
   -7.5880   -0.4138   25.2092 C   0  0  0  0  0  0  0  0  0  0  0  0
   -6.9349   -0.3249   26.4357 C   0  0  0  0  0  0  0  0  0  0  0  0
   -5.8836   -1.0985   26.8761 C   0  0  0  0  0  0  0  0  0  0  0  0
   -5.4010   -1.9917   25.8834 C   0  0  0  0  0  0  0  0  0  0  0  0
   -5.9149   -2.1021   24.6306 C   0  0  0  0  0  0  0  0  0  0  0  0
   -6.9755   -1.2324   24.2823 C   0  0  0  0  0  0  0  0  0  0  0  0
   -7.4857   -1.2848   22.9143 C   0  0  0  0  0  0  0  0  0  0  0  0
   -8.4928   -2.2012   22.6939 C   0  0  0  0  0  0  0  0  0  0  0  0
   -9.1346   -2.1014   21.4717 C   0  0  0  0  0  0  0  0  0  0  0  0
   -8.6525   -1.1575   20.4664 C   0  0  0  0  0  0  0  0  0  0  0  0
   -7.7746   -0.2364   20.9171 C   0  0  0  0  0  0  0  0  0  0  0  0
   -7.1067   -0.2103   22.0957 C   0  0  0  0  0  0  0  0  0  0  0  0
   -4.1928   -2.8387   26.2867 C   0  0  0  0  0  0  0  0  0  0  0  0
   -3.1192   -2.1861   26.6326 C   0  0  0  0  0  0  0  0  0  0  0  0
   -3.1002   -0.6541   26.5659 Cl  0  0  0  0  0  0  0  0  0  0  0  0
   -1.8743   -2.9066   27.0452 C   0  0  0  0  0  0  0  0  0  0  0  0
   -1.0262   -2.1545   27.8225 C   0  0  0  0  0  0  0  0  0  0  0  0
   -1.5231   -0.9952   28.3860 C   0  0  0  0  0  0  0  0  0  0  0  0
  3  4  1  0
  4  8  1  0
  8  9  1  0
  4 10  2  0
  9 11  1  0
 16 17  1  0
 14 23  1  0
 23 24  1  0
 24 25  1  0
 24 26  1  0
 26 27  1  0
 27 28  1  0
 17 18  2  0
 18 19  1  0
 19 20  2  0
 20 21  1  0
 21 22  2  0
 22 17  1  0
 11 12  2  0
 12 13  1  0
 13 14  2  0
 14 15  1  0
 15 16  2  0
 16 11  1  0
  1  2  2  0
  2  5  1  0
  5  7  2  0
  7  6  1  0
  6  3  2  0
  3  1  1  0
M  END
$$$$
