No_147-complexes_sdf/6BKW-FPZ/2024-09-17-14-21-01/
     RDKit          3D

 20 21  0  0  0  0  0  0  0  0999 V2000
   -7.2496    3.8871   27.4508 C   0  0  0  0  0  0  0  0  0  0  0  0
   -7.9379    4.9063   27.8518 C   0  0  0  0  0  0  0  0  0  0  0  0
   -8.7729    5.5444   27.0168 C   0  0  0  0  0  0  0  0  0  0  0  0
   -7.7891    2.8508   26.9558 C   0  0  0  0  0  0  0  0  0  0  0  0
   -9.4866    4.5916   26.1218 C   0  0  0  0  0  0  0  0  0  0  0  0
   -8.9123    3.3261   26.0079 C   0  0  0  0  0  0  0  0  0  0  0  0
   -7.3292    1.5541   26.7046 C   0  0  0  0  0  0  0  0  0  0  0  0
   -7.8652    0.7210   27.3240 O   0  0  0  0  0  0  0  0  0  0  0  0
   -7.3222   -0.5338   27.4620 C   0  0  2  0  0  0  0  0  0  0  0  0
   -8.0497   -1.5390   27.8287 C   0  0  0  0  0  0  0  0  0  0  0  0
   -9.4012   -1.4457   27.8926 C   0  0  0  0  0  0  0  0  0  0  0  0
  -10.2845   -2.4573   28.4513 C   0  0  0  0  0  0  0  0  0  0  0  0
   -9.6286   -3.5631   28.9602 C   0  0  0  0  0  0  0  0  0  0  0  0
   -8.3110   -3.7008   28.9656 C   0  0  0  0  0  0  0  0  0  0  0  0
   -7.4768   -2.6875   28.5027 C   0  0  0  0  0  0  0  0  0  0  0  0
   -5.9115   -0.6384   27.2464 C   0  0  0  0  0  0  0  0  0  0  0  0
   -5.5388   -1.2251   26.1386 C   0  0  0  0  0  0  0  0  0  0  0  0
   -4.1230   -1.3499   25.8919 C   0  0  0  0  0  0  0  0  0  0  0  0
   -3.1899   -0.6995   26.7162 C   0  0  0  0  0  0  0  0  0  0  0  0
   -3.7043   -0.1063   27.9183 C   0  0  0  0  0  0  0  0  0  0  0  0
  4  7  1  0
  7  8  1  0
  9  8  1  1
  9 10  1  0
  9 16  1  0
 16 17  2  3
 17 18  1  0
 18 19  2  3
 19 20  1  0
  1  2  2  0
  2  3  1  0
  3  5  2  0
  5  6  1  0
  6  4  2  0
  4  1  1  0
 10 11  2  0
 11 12  1  0
 12 13  2  0
 13 14  1  0
 14 15  2  0
 15 10  1  0
M  END
$$$$
