No_177-complexes_sdf/6BKW-FPZ/2024-09-17-14-21-01/
     RDKit          3D

 38 42  0  0  0  0  0  0  0  0999 V2000
   -7.9040    3.9820   27.1177 C   0  0  0  0  0  0  0  0  0  0  0  0
   -9.0711    4.3164   27.0630 C   0  0  0  0  0  0  0  0  0  0  0  0
  -10.0395    3.8218   27.1938 C   0  0  0  0  0  0  0  0  0  0  0  0
   -7.6424    2.5858   27.3610 C   0  0  0  0  0  0  0  0  0  0  0  0
   -8.7741    1.7889   27.4566 C   0  0  0  0  0  0  0  0  0  0  0  0
  -10.0155    2.3581   27.4300 C   0  0  0  0  0  0  0  0  0  0  0  0
   -9.3581    5.9044   26.9446 C   0  0  0  0  0  0  0  0  0  0  0  0
   -9.1743    6.4227   25.7806 F   0  0  0  0  0  0  0  0  0  0  0  0
   -8.3507    6.6301   27.7446 F   0  0  0  0  0  0  0  0  0  0  0  0
  -10.4935    6.2700   27.5023 F   0  0  0  0  0  0  0  0  0  0  0  0
   -6.0909    1.9150   27.3465 Cl  0  0  0  0  0  0  0  0  0  0  0  0
  -11.2220    1.5545   27.6323 C   0  0  0  0  0  0  0  0  0  0  0  0
  -11.1005    0.2669   27.7335 C   0  0  0  0  0  0  0  0  0  0  0  0
  -12.2521   -0.5653   28.0559 C   0  0  0  0  0  0  0  0  0  0  0  0
  -13.4634    0.1125   28.2008 C   0  0  0  0  0  0  0  0  0  0  0  0
  -13.5555    1.4594   28.1175 C   0  0  0  0  0  0  0  0  0  0  0  0
  -12.4491    2.2423   27.9033 C   0  0  0  0  0  0  0  0  0  0  0  0
  -14.5513   -0.6906   28.4525 F   0  0  0  0  0  0  0  0  0  0  0  0
  -12.1577   -1.8871   28.1641 O   0  0  0  0  0  0  0  0  0  0  0  0
  -11.0544   -2.4870   27.9437 C   0  0  0  0  0  0  0  0  0  0  0  0
  -10.7216   -2.9058   26.7826 C   0  0  0  0  0  0  0  0  0  0  0  0
   -9.4846   -3.5620   26.5284 C   0  0  0  0  0  0  0  0  0  0  0  0
   -8.6289   -3.8212   27.6068 C   0  0  0  0  0  0  0  0  0  0  0  0
  -10.1550   -2.6919   29.1154 C   0  0  0  0  0  0  0  0  0  0  0  0
   -8.9435   -3.3227   28.9238 C   0  0  0  0  0  0  0  0  0  0  0  0
   -8.0151   -3.5521   30.0452 C   0  0  0  0  0  0  0  0  0  0  0  0
   -8.4171   -3.7787   31.2448 C   0  0  0  0  0  0  0  0  0  0  0  0
   -7.5385   -3.8460   32.3988 C   0  0  0  0  0  0  0  0  0  0  0  0
   -6.1895   -3.6746   32.1674 C   0  0  0  0  0  0  0  0  0  0  0  0
   -6.6084   -3.2272   29.8795 C   0  0  0  0  0  0  0  0  0  0  0  0
   -5.7287   -3.3233   30.9157 C   0  0  0  0  0  0  0  0  0  0  0  0
   -9.1109   -4.0296   25.2447 C   0  0  0  0  0  0  0  0  0  0  0  0
   -9.2601   -3.4074   24.2587 C   0  0  0  0  0  0  0  0  0  0  0  0
   -8.9052   -3.8823   22.9056 C   0  0  0  0  0  0  0  0  0  0  0  0
   -9.0928   -3.0775   21.7428 C   0  0  0  0  0  0  0  0  0  0  0  0
   -9.5803   -1.7190   21.8970 C   0  0  0  0  0  0  0  0  0  0  0  0
   -9.8591   -1.2423   23.1490 C   0  0  0  0  0  0  0  0  0  0  0  0
   -9.7227   -1.9524   24.2315 C   0  0  0  0  0  0  0  0  0  0  0  0
  2  7  1  0
  7  8  1  0
  7  9  1  0
  7 10  1  0
  4 11  1  0
  6 12  1  0
 15 18  1  0
 14 19  1  0
 19 20  1  0
 25 26  1  0
 22 32  1  0
 32 33  1  0
 12 13  2  0
 13 14  1  0
 14 15  2  0
 15 16  1  0
 16 17  2  0
 17 12  1  0
  1  2  2  0
  2  3  1  0
  3  6  2  0
  6  5  1  0
  5  4  2  0
  4  1  1  0
 33 34  2  0
 34 35  1  0
 35 36  2  0
 36 37  1  0
 37 38  2  0
 38 33  1  0
 20 21  2  0
 21 22  1  0
 22 23  2  0
 23 25  1  0
 25 24  2  0
 24 20  1  0
 26 27  2  0
 27 28  1  0
 28 29  2  0
 29 31  1  0
 31 30  2  0
 30 26  1  0
M  END
$$$$
