No_179-complexes_sdf/6BKW-FPZ/2024-09-17-14-21-01/
     RDKit          3D

 13 14  0  0  0  0  0  0  0  0999 V2000
   -7.9040    3.9820   27.1177 C   0  0  0  0  0  0  0  0  0  0  0  0
   -7.8663    4.8694   27.9238 C   0  0  0  0  0  0  0  0  0  0  0  0
   -9.0491    3.8523   26.2542 C   0  0  0  0  0  0  0  0  0  0  0  0
   -8.7661    5.9491   27.9690 C   0  0  0  0  0  0  0  0  0  0  0  0
   -9.1715    2.7136   25.4037 C   0  0  0  0  0  0  0  0  0  0  0  0
   -9.8832    5.8611   27.1405 C   0  0  0  0  0  0  0  0  0  0  0  0
  -10.0015    4.7998   26.3324 C   0  0  0  0  0  0  0  0  0  0  0  0
  -10.0469    2.7614   24.3077 C   0  0  0  0  0  0  0  0  0  0  0  0
  -10.9035    3.9223   24.2366 C   0  0  0  0  0  0  0  0  0  0  0  0
  -10.9349    4.8031   25.2088 C   0  0  0  0  0  0  0  0  0  0  0  0
  -11.9216    3.8653   23.1646 C   0  0  0  0  0  0  0  0  0  0  0  0
  -13.0657    3.8751   23.1482 C   0  0  0  0  0  0  0  0  0  0  0  0
  -13.9356    3.9575   22.0141 C   0  0  0  0  0  0  0  0  0  0  0  0
  9 11  1  0
 11 12  2  3
 12 13  1  0
  3  5  2  0
  5  8  1  0
  8  9  2  0
  9 10  1  0
 10  7  2  0
  1  2  2  0
  2  4  1  0
  4  6  2  0
  6  7  1  0
  7  3  1  0
  3  1  1  0
M  END
$$$$
