No_1912-complexes_sdf/6BKW-FPZ/2024-09-17-14-21-01/
     RDKit          3D

 16 17  0  0  0  0  0  0  0  0999 V2000
   -7.9040    3.9820   27.1177 C   0  0  0  0  0  0  0  0  0  0  0  0
   -8.2057    2.8231   26.8733 C   0  0  0  0  0  0  0  0  0  0  0  0
   -7.4766    1.7477   27.4593 C   0  0  0  0  0  0  0  0  0  0  0  0
   -8.7468    5.1251   26.6967 C   0  0  0  0  0  0  0  0  0  0  0  0
   -9.7234    4.8589   25.8202 C   0  0  0  0  0  0  0  0  0  0  0  0
   -9.9711    3.5858   25.4266 C   0  0  0  0  0  0  0  0  0  0  0  0
   -9.2266    2.4957   25.9600 C   0  0  0  0  0  0  0  0  0  0  0  0
   -6.6635    0.9000   26.7532 C   0  0  0  0  0  0  0  0  0  0  0  0
   -5.7321    0.1432   27.5393 C   0  0  0  0  0  0  0  0  0  0  0  0
   -6.1472   -1.0899   27.9417 C   0  0  0  0  0  0  0  0  0  0  0  0
   -8.4551    6.4271   27.0743 N   0  0  0  0  0  0  0  0  0  0  0  0
   -5.5847   -1.6009   29.0633 C   0  0  0  0  0  0  0  0  0  0  0  0
   -4.3633   -1.0371   29.6196 C   0  0  0  0  0  0  0  0  0  0  0  0
   -3.9254    0.1913   29.0769 C   0  0  0  0  0  0  0  0  0  0  0  0
   -4.6449    0.8204   28.1634 C   0  0  0  0  0  0  0  0  0  0  0  0
   -8.0649    7.4826   26.3516 C   0  0  0  0  0  0  0  0  0  0  0  0
  2  3  1  0
  3  8  1  0
  8  9  1  0
  4 11  1  0
 11 16  1  0
  9 10  2  0
 10 12  1  0
 12 13  2  0
 13 14  1  0
 14 15  2  0
 15  9  1  0
  1  2  2  0
  2  7  1  0
  7  6  2  0
  6  5  1  0
  5  4  2  0
  4  1  1  0
M  END
$$$$
