No_1918-complexes_sdf/6BKW-FPZ/2024-09-17-14-21-01/
     RDKit          3D

 15 16  0  0  0  0  0  0  0  0999 V2000
   -7.2496    3.8871   27.4508 C   0  0  0  0  0  0  0  0  0  0  0  0
   -7.6161    2.7143   27.1523 C   0  0  0  0  0  0  0  0  0  0  0  0
   -6.9719    1.5838   27.5324 C   0  0  0  0  0  0  0  0  0  0  0  0
   -7.4590    0.2827   27.2615 C   0  0  0  0  0  0  0  0  0  0  0  0
   -8.7521    2.5117   26.3068 C   0  0  0  0  0  0  0  0  0  0  0  0
   -9.2100    1.2391   25.9794 C   0  0  0  0  0  0  0  0  0  0  0  0
   -8.5134    0.1313   26.5112 C   0  0  0  0  0  0  0  0  0  0  0  0
   -8.0343    5.0565   27.1688 C   0  0  0  0  0  0  0  0  0  0  0  0
   -9.1387    5.0244   26.3111 C   0  0  0  0  0  0  0  0  0  0  0  0
   -9.5547    3.6826   25.9029 C   0  0  0  0  0  0  0  0  0  0  0  0
   -7.5880    6.4104   27.6699 C   0  0  0  0  0  0  0  0  0  0  0  0
   -8.3606    7.8123   27.0917 Cl  0  0  0  0  0  0  0  0  0  0  0  0
  -10.6680    3.6099   25.0011 C   0  0  0  0  0  0  0  0  0  0  0  0
  -10.6129    3.9563   23.7181 C   0  0  0  0  0  0  0  0  0  0  0  0
  -11.6985    3.9400   22.8256 C   0  0  0  0  0  0  0  0  0  0  0  0
  8 11  1  0
 11 12  1  0
 10 13  1  0
 13 14  2  3
 14 15  1  0
  1  2  2  0
  5 10  2  0
 10  9  1  0
  9  8  2  0
  8  1  1  0
  2  3  1  0
  3  4  2  0
  4  7  1  0
  7  6  2  0
  6  5  1  0
  5  2  1  0
M  END
$$$$
