No_1066-complexes_sdf/6BKW-FPZ/2024-09-17-14-21-01/
     RDKit          3D

 15 16  0  0  0  0  0  0  0  0999 V2000
   -7.2496    3.8871   27.4508 C   0  0  0  0  0  0  0  0  0  0  0  0
   -8.5096    4.0291   27.2770 C   0  0  0  0  0  0  0  0  0  0  0  0
   -9.2669    5.1645   27.5845 C   0  0  0  0  0  0  0  0  0  0  0  0
   -8.6549    6.1494   27.2495 C   0  0  0  0  0  0  0  0  0  0  0  0
   -7.3258    6.4654   27.5655 C   0  0  0  0  0  0  0  0  0  0  0  0
   -6.6063    5.2474   27.6124 C   0  0  0  0  0  0  0  0  0  0  0  0
   -9.2571    2.6463   27.2696 C   0  0  0  0  0  0  0  0  0  0  0  0
   -8.5477    1.5500   26.9403 C   0  0  0  0  0  0  0  0  0  0  0  0
   -9.0629    0.2784   27.2597 C   0  0  0  0  0  0  0  0  0  0  0  0
  -10.4190    0.2058   27.7320 C   0  0  0  0  0  0  0  0  0  0  0  0
  -10.4903    2.4601   27.9398 C   0  0  0  0  0  0  0  0  0  0  0  0
  -11.0524    1.3196   28.1724 C   0  0  0  0  0  0  0  0  0  0  0  0
  -11.0089   -1.1395   28.0277 C   0  0  0  0  0  0  0  0  0  0  0  0
  -12.0781   -1.3913   28.2119 O   0  0  0  0  0  0  0  0  0  0  0  0
  -10.1540   -2.2197   28.1376 F   0  0  0  0  0  0  0  0  0  0  0  0
  2  7  1  0
 10 13  1  0
 13 14  2  0
 13 15  1  0
  7  8  2  0
  8  9  1  0
  9 10  2  0
 10 12  1  0
 12 11  2  0
 11  7  1  0
  1  2  2  0
  2  3  1  0
  3  4  2  0
  4  5  1  0
  5  6  2  0
  6  1  1  0
M  END
$$$$
