No_1767-complexes_sdf/6BKW-FPZ/2024-09-17-14-21-01/
     RDKit          3D

 23 25  0  0  0  0  0  0  0  0999 V2000
   -7.9040    3.9820   27.1177 C   0  0  0  0  0  0  0  0  0  0  0  0
   -8.2057    2.8231   26.8733 C   0  0  0  0  0  0  0  0  0  0  0  0
   -7.0130    4.3706   28.1140 C   0  0  0  0  0  0  0  0  0  0  0  0
   -7.4093    1.7370   27.3857 C   0  0  0  0  0  0  0  0  0  0  0  0
   -6.1943    2.1490   28.0403 C   0  0  0  0  0  0  0  0  0  0  0  0
   -5.2077    1.1775   28.4320 C   0  0  0  0  0  0  0  0  0  0  0  0
   -5.9705    3.5268   28.3803 C   0  0  0  0  0  0  0  0  0  0  0  0
   -5.5039   -0.1875   28.5196 C   0  0  0  0  0  0  0  0  0  0  0  0
   -4.5799   -1.0807   28.9723 C   0  0  0  0  0  0  0  0  0  0  0  0
   -4.9257   -2.4490   29.1353 C   0  0  0  0  0  0  0  0  0  0  0  0
   -6.2123   -2.8188   28.7438 C   0  0  0  0  0  0  0  0  0  0  0  0
   -7.1284   -1.9336   28.2597 C   0  0  0  0  0  0  0  0  0  0  0  0
   -6.7996   -0.5859   28.1712 C   0  0  0  0  0  0  0  0  0  0  0  0
   -7.6995    0.3707   27.3886 C   0  0  0  0  0  0  0  0  0  0  0  0
   -8.9310    5.0809   26.6170 C   0  0  1  0  0  0  0  0  0  0  0  0
   -9.0814    6.3025   27.2999 C   0  0  0  0  0  0  0  0  0  0  0  0
   -9.5120    4.8483   25.3491 C   0  0  0  0  0  0  0  0  0  0  0  0
   -8.7896   -0.0518   26.9471 O   0  0  0  0  0  0  0  0  0  0  0  0
  -10.5348    3.9454   25.1968 C   0  0  0  0  0  0  0  0  0  0  0  0
  -11.1247    3.7523   23.9371 C   0  0  0  0  0  0  0  0  0  0  0  0
  -10.5177    4.3227   22.8369 C   0  0  0  0  0  0  0  0  0  0  0  0
  -11.0041    3.9988   21.5902 C   0  0  0  0  0  0  0  0  0  0  0  0
  -12.1166    3.2530   21.4290 C   0  0  0  0  0  0  0  0  0  0  0  0
  5  6  1  0
  4 14  1  0
 13 14  1  0
  1 15  1  0
 15 16  1  6
 15 17  1  0
 14 18  2  0
 17 19  1  0
 19 20  2  3
 20 21  1  0
 21 22  2  3
 22 23  1  0
  6  8  1  0
  1  2  2  0
  2  4  1  0
  4  5  2  0
  5  7  1  0
  7  3  2  0
  3  1  1  0
  8  9  2  0
  9 10  1  0
 10 11  2  0
 11 12  1  0
 12 13  2  0
 13  8  1  0
M  END
$$$$
