No_194-complexes_sdf/6BKW-FPZ/2024-09-17-14-21-01/
     RDKit          3D

 28 31  0  0  0  0  0  0  0  0999 V2000
   -7.7129    4.2099   27.0854 C   0  0  0  0  0  0  0  0  0  0  0  0
   -7.7814    5.1722   27.8972 C   0  0  0  0  0  0  0  0  0  0  0  0
   -7.3155    2.9699   27.6145 C   0  0  0  0  0  0  0  0  0  0  0  0
   -7.9010    1.7962   27.2023 C   0  0  0  0  0  0  0  0  0  0  0  0
   -7.4626    0.5915   27.6802 C   0  0  0  0  0  0  0  0  0  0  0  0
   -8.5683    6.3779   27.5800 C   0  0  0  0  0  0  0  0  0  0  0  0
   -9.1203    1.8144   26.4481 C   0  0  0  0  0  0  0  0  0  0  0  0
   -9.9626    2.5961   26.5171 C   0  0  0  0  0  0  0  0  0  0  0  0
   -9.2704    4.0446   26.7207 C   0  0  0  0  0  0  0  0  0  0  0  0
   -6.0608    0.4495   28.0739 C   0  0  0  0  0  0  0  0  0  0  0  0
   -5.5363   -0.7566   28.5926 C   0  0  0  0  0  0  0  0  0  0  0  0
   -6.4225   -1.8035   28.7715 C   0  0  0  0  0  0  0  0  0  0  0  0
   -8.1190   -0.5906   27.8930 C   0  0  0  0  0  0  0  0  0  0  0  0
   -7.7054   -1.7201   28.4275 C   0  0  0  0  0  0  0  0  0  0  0  0
   -9.9559    5.2760   26.5750 C   0  0  0  0  0  0  0  0  0  0  0  0
   -9.8712    6.2789   27.3307 C   0  0  0  0  0  0  0  0  0  0  0  0
   -4.1025   -0.7633   29.0105 C   0  0  0  0  0  0  0  0  0  0  0  0
   -3.8278   -0.4675   30.1325 O   0  0  0  0  0  0  0  0  0  0  0  0
   -3.2523   -1.0193   28.0193 O   0  0  0  0  0  0  0  0  0  0  0  0
   -3.3157   -0.5328   26.8630 C   0  0  0  0  0  0  0  0  0  0  0  0
   -4.1508   -0.3185   26.1319 C   0  0  0  0  0  0  0  0  0  0  0  0
   -4.3744   -1.0167   24.7631 C   0  0  0  0  0  0  0  0  0  0  0  0
   -5.7651   -1.0649   24.3842 C   0  0  0  0  0  0  0  0  0  0  0  0
   -6.1707   -2.1757   23.6686 C   0  0  0  0  0  0  0  0  0  0  0  0
   -6.9462   -1.9818   22.5779 C   0  0  0  0  0  0  0  0  0  0  0  0
   -7.6242   -0.6814   22.3414 C   0  0  0  0  0  0  0  0  0  0  0  0
   -7.2225    0.3632   23.2291 C   0  0  0  0  0  0  0  0  0  0  0  0
   -6.3187    0.1884   24.0747 C   0  0  0  0  0  0  0  0  0  0  0  0
  4  5  1  0
 11 17  1  0
 17 18  2  0
 17 19  1  0
 19 20  1  0
 20 21  1  0
 21 22  2  3
 22 23  1  0
  1  2  2  0
  2  6  1  0
  6 16  2  0
 16 15  1  0
 15  9  2  0
  5 10  2  0
 10 11  1  0
 11 12  2  0
 12 14  1  0
 14 13  2  0
 13  5  1  0
  1  3  1  0
  3  4  2  0
  4  7  1  0
  7  8  2  0
  8  9  1  0
  9  1  1  0
 23 24  2  0
 24 25  1  0
 25 26  2  0
 26 27  1  0
 27 28  2  0
 28 23  1  0
M  END
$$$$
