No_1662-complexes_sdf/6BKW-FPZ/2024-09-17-14-21-01/
     RDKit          3D

 13 14  0  0  0  0  0  0  0  0999 V2000
   -7.7129    4.2099   27.0854 C   0  0  0  0  0  0  0  0  0  0  0  0
   -8.9133    4.4736   27.0998 C   0  0  0  0  0  0  0  0  0  0  0  0
   -9.7135    3.9633   26.0300 C   0  0  0  0  0  0  0  0  0  0  0  0
   -6.8420    4.9760   28.0851 C   0  0  0  0  0  0  0  0  0  0  0  0
  -10.9164    3.4776   26.1172 C   0  0  0  0  0  0  0  0  0  0  0  0
  -11.5453    3.0000   24.9938 C   0  0  0  0  0  0  0  0  0  0  0  0
  -10.9504    3.1415   23.7195 C   0  0  0  0  0  0  0  0  0  0  0  0
   -9.8085    3.8678   23.5838 C   0  0  0  0  0  0  0  0  0  0  0  0
   -9.1368    4.3227   24.6997 C   0  0  0  0  0  0  0  0  0  0  0  0
   -9.5718    5.1872   28.1421 C   0  0  0  0  0  0  0  0  0  0  0  0
   -8.1285    3.9781   27.5150 Cl  0  0  0  0  0  0  0  0  0  0  0  0
   -7.3215    5.9839   28.8956 C   0  0  0  0  0  0  0  0  0  0  0  0
   -8.6956    6.2510   28.8840 C   0  0  0  0  0  0  0  0  0  0  0  0
  2  3  1  0
  1 11  1  0
  3  5  2  0
  5  6  1  0
  6  7  2  0
  7  8  1  0
  8  9  2  0
  9  3  1  0
  1  2  2  0
  2 10  1  0
 10 13  2  0
 13 12  1  0
 12  4  2  0
  4  1  1  0
M  END
$$$$
