No_1459-complexes_sdf/6BKW-FPZ/2024-09-17-14-21-01/
     RDKit          3D

 26 29  0  0  0  0  0  0  0  0999 V2000
   -7.7129    4.2099   27.0854 C   0  0  0  0  0  0  0  0  0  0  0  0
   -8.9133    4.4736   27.0998 C   0  0  0  0  0  0  0  0  0  0  0  0
   -9.8363    3.8127   27.2418 C   0  0  0  0  0  0  0  0  0  0  0  0
   -7.3328    2.8873   27.3965 C   0  0  0  0  0  0  0  0  0  0  0  0
   -9.6579    2.3869   27.5492 C   0  0  0  0  0  0  0  0  0  0  0  0
   -8.3391    1.9932   27.6172 C   0  0  0  0  0  0  0  0  0  0  0  0
   -9.1700    6.0320   26.8301 C   0  0  0  0  0  0  0  0  0  0  0  0
   -8.6586    6.6487   25.6426 C   0  0  0  0  0  0  0  0  0  0  0  0
  -11.3581    4.1330   27.3852 C   0  0  0  0  0  0  0  0  0  0  0  0
  -12.1967    4.1115   26.4029 C   0  0  0  0  0  0  0  0  0  0  0  0
  -13.5724    4.2147   26.6996 C   0  0  0  0  0  0  0  0  0  0  0  0
  -14.0214    4.5668   28.0108 C   0  0  0  0  0  0  0  0  0  0  0  0
  -13.0928    4.6041   29.0442 C   0  0  0  0  0  0  0  0  0  0  0  0
  -11.7924    4.3108   28.8249 C   0  0  0  0  0  0  0  0  0  0  0  0
  -10.7019    1.3936   27.8888 C   0  0  0  0  0  0  0  0  0  0  0  0
  -10.4280    0.0256   27.5880 C   0  0  0  0  0  0  0  0  0  0  0  0
  -11.4091   -0.9224   28.0355 C   0  0  0  0  0  0  0  0  0  0  0  0
  -12.5486   -0.4373   28.5128 C   0  0  0  0  0  0  0  0  0  0  0  0
  -12.8809    0.9072   28.7238 C   0  0  0  0  0  0  0  0  0  0  0  0
  -11.8778    1.7779   28.4685 C   0  0  0  0  0  0  0  0  0  0  0  0
  -14.1908    1.1960   29.3790 C   0  0  0  0  0  0  0  0  0  0  0  0
  -14.1416    1.8126   30.6283 C   0  0  0  0  0  0  0  0  0  0  0  0
  -15.3456    0.9663   28.6621 C   0  0  0  0  0  0  0  0  0  0  0  0
  -16.5140    1.5149   29.0716 C   0  0  0  0  0  0  0  0  0  0  0  0
  -15.3757    2.3016   31.1843 C   0  0  0  0  0  0  0  0  0  0  0  0
  -16.5708    2.0998   30.3884 C   0  0  0  0  0  0  0  0  0  0  0  0
  2  7  1  0
  7  8  1  0
  3  9  1  0
  5 15  1  0
 19 21  1  0
 15 16  2  0
 16 17  1  0
 17 18  2  0
 18 19  1  0
 19 20  2  0
 20 15  1  0
  1  2  2  0
  2  3  1  0
  3  5  2  0
  5  6  1  0
  6  4  2  0
  4  1  1  0
 21 22  2  0
 22 25  1  0
 25 26  2  0
 26 24  1  0
 24 23  2  0
 23 21  1  0
  9 10  2  0
 10 11  1  0
 11 12  2  0
 12 13  1  0
 13 14  2  0
 14  9  1  0
M  END
$$$$
