No_1423-complexes_sdf/6BKW-FPZ/2024-09-17-14-21-01/
     RDKit          3D

 18 19  0  0  0  0  0  0  0  0999 V2000
   -7.9040    3.9820   27.1177 C   0  0  0  0  0  0  0  0  0  0  0  0
   -9.0711    4.3164   27.0630 C   0  0  0  0  0  0  0  0  0  0  0  0
  -10.0395    3.8218   27.1938 C   0  0  0  0  0  0  0  0  0  0  0  0
   -7.6424    2.5858   27.3610 C   0  0  0  0  0  0  0  0  0  0  0  0
   -6.3762    2.0083   27.5134 C   0  0  0  0  0  0  0  0  0  0  0  0
  -10.0588    2.3651   27.5245 C   0  0  0  0  0  0  0  0  0  0  0  0
   -8.7887    1.8127   27.6276 C   0  0  0  0  0  0  0  0  0  0  0  0
   -5.3146    2.6538   27.9619 N   0  0  0  0  0  0  0  0  0  0  0  0
   -6.1658    0.6189   27.1675 C   0  0  0  0  0  0  0  0  0  0  0  0
   -7.1099   -0.2151   26.7032 C   0  0  0  0  0  0  0  0  0  0  0  0
   -4.8115    0.1408   27.3896 C   0  0  0  0  0  0  0  0  0  0  0  0
   -3.7910    0.8897   27.9135 C   0  0  0  0  0  0  0  0  0  0  0  0
   -4.1985    2.2487   28.2088 N   0  0  0  0  0  0  0  0  0  0  0  0
   -9.1458    6.2068   26.7426 Cl  0  0  0  0  0  0  0  0  0  0  0  0
   -6.7065   -1.3225   25.7962 C   0  0  0  0  0  0  0  0  0  0  0  0
  -11.2664    1.5915   27.7549 C   0  0  0  0  0  0  0  0  0  0  0  0
  -11.3857    0.3489   27.4167 C   0  0  0  0  0  0  0  0  0  0  0  0
  -12.5395   -0.4468   27.7209 C   0  0  0  0  0  0  0  0  0  0  0  0
  4  5  1  0
  9 10  1  0
  2 14  1  0
 10 15  1  0
  6 16  1  0
 16 17  2  3
 17 18  1  0
  1  2  2  0
  2  3  1  0
  3  6  2  0
  6  7  1  0
  7  4  2  0
  4  1  1  0
  5  8  2  0
  8 13  1  0
 13 12  2  0
 12 11  1  0
 11  9  2  0
  9  5  1  0
M  END
$$$$
