No_1078-complexes_sdf/6BKW-FPZ/2024-09-17-14-21-01/
     RDKit          3D

 12 13  0  0  0  0  0  0  0  0999 V2000
   -7.7129    4.2099   27.0854 C   0  0  0  0  0  0  0  0  0  0  0  0
   -8.2112    3.0637   26.9225 C   0  0  0  0  0  0  0  0  0  0  0  0
   -8.4224    5.2106   27.8516 C   0  0  0  0  0  0  0  0  0  0  0  0
   -9.3720    2.7081   27.2300 C   0  0  0  0  0  0  0  0  0  0  0  0
   -9.7994    4.9763   28.0403 C   0  0  0  0  0  0  0  0  0  0  0  0
   -9.9258    1.3806   26.9406 C   0  0  0  0  0  0  0  0  0  0  0  0
  -10.2713    3.6607   27.8207 C   0  0  0  0  0  0  0  0  0  0  0  0
   -9.1219    0.3498   27.3712 C   0  0  0  0  0  0  0  0  0  0  0  0
   -9.6222   -0.9889   27.4247 C   0  0  0  0  0  0  0  0  0  0  0  0
  -10.9468   -1.1759   27.0194 C   0  0  0  0  0  0  0  0  0  0  0  0
  -11.2835    1.0910   26.8836 C   0  0  0  0  0  0  0  0  0  0  0  0
  -11.7801   -0.1553   26.8529 C   0  0  0  0  0  0  0  0  0  0  0  0
  4  6  1  0
  1  2  2  0
  2  4  1  0
  4  7  2  0
  7  5  1  0
  5  3  2  0
  3  1  1  0
  6  8  2  0
  8  9  1  0
  9 10  2  0
 10 12  1  0
 12 11  2  0
 11  6  1  0
M  END
$$$$
