No_1961-complexes_sdf/6BKW-FPZ/2024-09-17-14-21-01/
     RDKit          3D

  7  7  0  0  0  0  0  0  0  0999 V2000
   -7.2496    3.8871   27.4508 C   0  0  0  0  0  0  0  0  0  0  0  0
   -7.6161    2.7143   27.1523 C   0  0  0  0  0  0  0  0  0  0  0  0
   -8.6212    2.2239   26.4073 C   0  0  0  0  0  0  0  0  0  0  0  0
   -8.2742    4.8439   27.4315 C   0  0  0  0  0  0  0  0  0  0  0  0
   -9.4963    4.5622   26.8754 C   0  0  0  0  0  0  0  0  0  0  0  0
   -9.6943    3.2987   26.3748 C   0  0  0  0  0  0  0  0  0  0  0  0
   -7.9550    6.2288   27.9228 C   0  0  0  0  0  0  0  0  0  0  0  0
  4  7  1  0
  1  2  2  0
  2  3  1  0
  3  6  2  0
  6  5  1  0
  5  4  2  0
  4  1  1  0
M  END
$$$$
