No_1339-complexes_sdf/6BKW-FPZ/2024-09-17-14-21-01/
     RDKit          3D

 13 14  0  0  0  0  0  0  0  0999 V2000
   -7.9040    3.9820   27.1177 C   0  0  0  0  0  0  0  0  0  0  0  0
   -8.2057    2.8231   26.8733 C   0  0  0  0  0  0  0  0  0  0  0  0
   -8.7695    5.0740   26.7916 C   0  0  0  0  0  0  0  0  0  0  0  0
   -8.4337    6.4678   27.0913 C   0  0  0  0  0  0  0  0  0  0  0  0
   -9.3742    2.4311   26.2346 C   0  0  0  0  0  0  0  0  0  0  0  0
  -10.2395    3.4267   25.8887 C   0  0  0  0  0  0  0  0  0  0  0  0
   -9.9567    4.7548   26.1374 C   0  0  0  0  0  0  0  0  0  0  0  0
   -8.7467    7.4299   26.4155 N   0  0  0  0  0  0  0  0  0  0  0  0
   -7.5472    6.5525   28.0905 O   0  0  0  0  0  0  0  0  0  0  0  0
   -7.2500    1.6654   27.2687 C   0  0  0  0  0  0  0  0  0  0  0  0
   -7.5311    0.3278   27.1208 C   0  0  0  0  0  0  0  0  0  0  0  0
   -8.8327    0.0965   26.5978 C   0  0  0  0  0  0  0  0  0  0  0  0
   -9.6778    1.0265   26.1164 C   0  0  0  0  0  0  0  0  0  0  0  0
  3  4  1  0
  4  8  1  0
  4  9  2  0
  1  2  2  0
  5  6  2  0
  6  7  1  0
  7  3  2  0
  3  1  1  0
  2  5  1  0
  5 13  1  0
 13 12  2  0
 12 11  1  0
 11 10  2  0
 10  2  1  0
M  END
$$$$
