No_1179-complexes_sdf/6BKW-FPZ/2024-09-17-14-21-01/
     RDKit          3D

 13 14  0  0  0  0  0  0  0  0999 V2000
   -7.9040    3.9820   27.1177 C   0  0  0  0  0  0  0  0  0  0  0  0
   -7.8663    4.8694   27.9238 C   0  0  0  0  0  0  0  0  0  0  0  0
   -9.0501    3.8017   26.2617 C   0  0  0  0  0  0  0  0  0  0  0  0
  -10.0189    4.7608   26.3707 C   0  0  0  0  0  0  0  0  0  0  0  0
   -8.6770    5.9780   27.9222 C   0  0  0  0  0  0  0  0  0  0  0  0
   -9.8040    5.8752   27.0958 C   0  0  0  0  0  0  0  0  0  0  0  0
   -8.9569    2.5720   25.4465 C   0  0  0  0  0  0  0  0  0  0  0  0
   -8.6813    1.3875   26.0894 C   0  0  0  0  0  0  0  0  0  0  0  0
   -8.5868    0.2074   25.3572 C   0  0  0  0  0  0  0  0  0  0  0  0
   -8.0909   -0.9273   25.9592 C   0  0  0  0  0  0  0  0  0  0  0  0
   -7.7964   -0.9393   27.3570 C   0  0  0  0  0  0  0  0  0  0  0  0
   -7.8559    0.2674   28.0464 C   0  0  0  0  0  0  0  0  0  0  0  0
   -8.2128    1.4000   27.5055 C   0  0  0  0  0  0  0  0  0  0  0  0
  3  7  1  0
  7  8  1  0
  8  9  2  0
  9 10  1  0
 10 11  2  0
 11 12  1  0
 12 13  2  0
 13  8  1  0
  1  2  2  0
  2  5  1  0
  5  6  2  0
  6  4  1  0
  4  3  2  0
  3  1  1  0
M  END
$$$$
