No_1771-complexes_sdf/6BKW-FPZ/2024-09-17-14-21-01/
     RDKit          3D

 28 31  0  0  0  0  0  0  0  0999 V2000
   -7.7129    4.2099   27.0854 C   0  0  0  0  0  0  0  0  0  0  0  0
   -8.9133    4.4736   27.0998 C   0  0  0  0  0  0  0  0  0  0  0  0
   -9.4616    5.6470   27.6290 C   0  0  0  0  0  0  0  0  0  0  0  0
   -6.8722    5.1130   27.9248 C   0  0  0  0  0  0  0  0  0  0  0  0
   -7.3801    6.2535   28.4126 C   0  0  0  0  0  0  0  0  0  0  0  0
   -8.6734    6.5530   28.2150 C   0  0  0  0  0  0  0  0  0  0  0  0
   -9.8157    3.4887   26.3527 C   0  0  0  0  0  0  0  0  0  0  0  0
  -10.8123    3.4526   26.2614 C   0  0  0  0  0  0  0  0  0  0  0  0
  -11.6526    2.4945   25.4117 C   0  0  0  0  0  0  0  0  0  0  0  0
  -10.9084    1.5799   24.7249 C   0  0  0  0  0  0  0  0  0  0  0  0
   -9.5379    1.6099   24.7738 C   0  0  0  0  0  0  0  0  0  0  0  0
   -8.8804    2.5322   25.5684 C   0  0  0  0  0  0  0  0  0  0  0  0
   -8.5575    0.7051   24.0997 C   0  0  0  0  0  0  0  0  0  0  0  0
   -7.8463   -0.2933   24.7381 C   0  0  0  0  0  0  0  0  0  0  0  0
   -6.9901   -1.1250   24.0031 C   0  0  0  0  0  0  0  0  0  0  0  0
   -6.9317   -0.9887   22.5842 C   0  0  0  0  0  0  0  0  0  0  0  0
   -8.4483    0.6420   22.6793 C   0  0  0  0  0  0  0  0  0  0  0  0
   -7.6696   -0.1262   21.9770 C   0  0  0  0  0  0  0  0  0  0  0  0
   -9.3185    1.6850   21.9037 C   0  0  0  0  0  0  0  0  0  0  0  0
   -9.1235    2.9103   21.7186 C   0  0  0  0  0  0  0  0  0  0  0  0
  -10.4524    0.9749   21.2499 C   0  0  0  0  0  0  0  0  0  0  0  0
   -9.9562    3.7492   20.9067 C   0  0  0  0  0  0  0  0  0  0  0  0
  -11.3114    1.7636   20.4616 C   0  0  0  0  0  0  0  0  0  0  0  0
  -11.0626    3.1190   20.2973 C   0  0  0  0  0  0  0  0  0  0  0  0
  -13.1122    2.5553   25.3190 C   0  0  0  0  0  0  0  0  0  0  0  0
  -13.5251    3.1994   26.1678 F   0  0  0  0  0  0  0  0  0  0  0  0
  -13.5738    1.3542   25.1642 F   0  0  0  0  0  0  0  0  0  0  0  0
  -13.3253    3.2357   24.0845 F   0  0  0  0  0  0  0  0  0  0  0  0
  2  7  1  0
 11 13  1  0
 17 19  1  0
  9 25  1  0
 25 26  1  0
 25 27  1  0
 25 28  1  0
 19 20  2  0
 20 22  1  0
 22 24  2  0
 24 23  1  0
 23 21  2  0
 21 19  1  0
  1  2  2  0
  2  3  1  0
  3  6  2  0
  6  5  1  0
  5  4  2  0
  4  1  1  0
 13 14  2  0
 14 15  1  0
 15 16  2  0
 16 18  1  0
 18 17  2  0
 17 13  1  0
  7  8  2  0
  8  9  1  0
  9 10  2  0
 10 11  1  0
 11 12  2  0
 12  7  1  0
M  END
$$$$
