No_1550-complexes_sdf/6BKW-FPZ/2024-09-17-14-21-01/
     RDKit          3D

 34 36  0  0  0  0  0  0  0  0999 V2000
   -7.9040    3.9820   27.1177 C   0  0  0  0  0  0  0  0  0  0  0  0
   -8.2057    2.8231   26.8733 C   0  0  0  0  0  0  0  0  0  0  0  0
   -7.0130    4.3706   28.1140 C   0  0  0  0  0  0  0  0  0  0  0  0
   -7.4093    1.7370   27.3857 C   0  0  0  0  0  0  0  0  0  0  0  0
   -6.1943    2.1490   28.0403 C   0  0  0  0  0  0  0  0  0  0  0  0
   -5.9708    3.4680   28.3199 C   0  0  0  0  0  0  0  0  0  0  0  0
   -9.0044    4.9128   26.6537 C   0  0  0  0  0  0  0  0  0  0  0  0
   -9.0852    6.1352   27.2038 N   0  0  0  0  0  0  0  0  0  0  0  0
   -9.5836    4.7630   25.5240 O   0  0  0  0  0  0  0  0  0  0  0  0
   -5.2274    1.0846   28.4137 C   0  0  0  0  0  0  0  0  0  0  0  0
   -4.4855    0.4970   27.6369 C   0  0  0  0  0  0  0  0  0  0  0  0
   -3.6901   -0.3769   27.7900 C   0  0  0  0  0  0  0  0  0  0  0  0
   -3.4260   -0.8658   29.1605 C   0  0  0  0  0  0  0  0  0  0  0  0
   -4.2240   -0.2782   30.1454 C   0  0  0  0  0  0  0  0  0  0  0  0
   -5.0638    0.7382   29.8029 C   0  0  0  0  0  0  0  0  0  0  0  0
   -2.4193   -1.8799   29.4988 C   0  0  0  0  0  0  0  0  0  0  0  0
   -1.4916   -1.9483   28.8368 O   0  0  0  0  0  0  0  0  0  0  0  0
   -2.6219   -2.5477   30.5555 O   0  0  0  0  0  0  0  0  0  0  0  0
   -4.0791   -0.6280   31.7965 Cl  0  0  0  0  0  0  0  0  0  0  0  0
   -8.8024    7.4943   26.8119 C   0  0  0  0  0  0  0  0  0  0  0  0
   -3.4868   -3.5389   30.5034 C   0  0  0  0  0  0  0  0  0  0  0  0
   -4.1112   -3.8064   31.6914 C   0  0  0  0  0  0  0  0  0  0  0  0
   -3.6173   -3.6573   32.8277 C   0  0  0  0  0  0  0  0  0  0  0  0
   -4.3228   -3.8440   34.1404 C   0  0  0  0  0  0  0  0  0  0  0  0
   -3.8239   -3.5685   35.4302 C   0  0  0  0  0  0  0  0  0  0  0  0
   -2.5015   -3.0830   35.4857 C   0  0  0  0  0  0  0  0  0  0  0  0
   -1.7532   -2.8736   34.2922 C   0  0  0  0  0  0  0  0  0  0  0  0
   -2.2947   -3.0981   33.1039 C   0  0  0  0  0  0  0  0  0  0  0  0
   -0.3749   -2.2723   34.4723 C   0  0  0  0  0  0  0  0  0  0  0  0
    0.4133   -2.4015   33.4357 N   0  0  0  0  0  0  0  0  0  0  0  0
    1.1313   -3.3488   33.2327 C   0  0  0  0  0  0  0  0  0  0  0  0
    1.7683   -3.4487   31.9109 C   0  0  0  0  0  0  0  0  0  0  0  0
    1.3600   -2.3919   31.1039 C   0  0  0  0  0  0  0  0  0  0  0  0
    1.9814   -2.1540   29.9158 O   0  0  0  0  0  0  0  0  0  0  0  0
  1  7  1  0
  7  8  1  0
  7  9  2  0
  5 10  1  0
 13 16  1  0
 16 17  2  0
 16 18  1  0
 14 19  1  0
  8 20  1  0
 18 21  1  0
 21 22  1  0
 27 29  1  0
 29 30  1  0
 30 31  1  0
 31 32  2  3
 32 33  1  0
 33 34  2  0
 22 23  1  0
  1  2  2  0
  2  4  1  0
  4  5  2  0
  5  6  1  0
  6  3  2  0
  3  1  1  0
 23 24  2  0
 24 25  1  0
 25 26  2  0
 26 27  1  0
 27 28  2  0
 28 23  1  0
 10 11  2  0
 11 12  1  0
 12 13  2  0
 13 14  1  0
 14 15  2  0
 15 10  1  0
M  END
$$$$
