No_188-complexes_sdf/6BKW-FPZ/2024-09-17-14-21-01/
     RDKit          3D

 23 25  0  0  0  0  0  0  0  0999 V2000
   -7.7129    4.2099   27.0854 C   0  0  0  0  0  0  0  0  0  0  0  0
   -7.7814    5.1722   27.8972 C   0  0  0  0  0  0  0  0  0  0  0  0
   -8.8776    3.8408   26.3416 C   0  0  0  0  0  0  0  0  0  0  0  0
   -9.9844    4.6492   26.4743 C   0  0  0  0  0  0  0  0  0  0  0  0
   -8.8033    6.1375   27.8728 C   0  0  0  0  0  0  0  0  0  0  0  0
   -9.9554    5.8280   27.1737 C   0  0  0  0  0  0  0  0  0  0  0  0
   -8.8750    2.4229   25.4217 Cl  0  0  0  0  0  0  0  0  0  0  0  0
  -11.1502    4.3338   25.6474 C   0  0  1  0  0  0  0  0  0  0  0  0
  -11.0261    4.1439   24.1936 C   0  0  0  0  0  0  0  0  0  0  0  0
  -12.0324    3.9419   23.4572 C   0  0  0  0  0  0  0  0  0  0  0  0
  -11.8307    3.6835   22.0270 C   0  0  0  0  0  0  0  0  0  0  0  0
  -10.4989    3.6812   21.5283 C   0  0  0  0  0  0  0  0  0  0  0  0
   -9.4785    3.8986   22.3997 C   0  0  0  0  0  0  0  0  0  0  0  0
   -9.5999    4.1258   23.7009 C   0  0  0  0  0  0  0  0  0  0  0  0
   -6.6706    5.5814   28.6354 O   0  0  0  0  0  0  0  0  0  0  0  0
  -12.3750    4.1536   26.2792 C   0  0  0  0  0  0  0  0  0  0  0  0
  -12.6183    3.8848   27.4763 N   0  0  0  0  0  0  0  0  0  0  0  0
  -13.7442    4.0558   28.1382 C   0  0  0  0  0  0  0  0  0  0  0  0
  -13.4263    4.3251   25.5625 O   0  0  0  0  0  0  0  0  0  0  0  0
  -13.7664    3.4159   29.4712 C   0  0  0  0  0  0  0  0  0  0  0  0
  -12.5771    2.8575   29.9497 C   0  0  0  0  0  0  0  0  0  0  0  0
  -11.4654    2.8066   29.1745 C   0  0  0  0  0  0  0  0  0  0  0  0
  -11.4316    3.2308   27.9998 C   0  0  0  0  0  0  0  0  0  0  0  0
  3  7  1  0
  4  8  1  0
  2 15  1  0
  8 16  1  1
 16 17  1  0
 17 18  1  0
 16 19  2  0
 20 21  1  0
 17 23  1  0
 22 23  1  0
  8  9  1  0
 18 20  1  0
 21 22  1  0
  9 10  2  0
 10 11  1  0
 11 12  2  0
 12 13  1  0
 13 14  2  0
 14  9  1  0
  1  2  2  0
  2  5  1  0
  5  6  2  0
  6  4  1  0
  4  3  2  0
  3  1  1  0
M  END
$$$$
