No_1745-complexes_sdf/6BKW-FPZ/2024-09-17-14-21-01/
     RDKit          3D

 17 18  0  0  0  0  0  0  0  0999 V2000
   -7.7129    4.2099   27.0854 C   0  0  0  0  0  0  0  0  0  0  0  0
   -7.7814    5.1722   27.8972 C   0  0  0  0  0  0  0  0  0  0  0  0
   -8.8776    3.8408   26.3416 C   0  0  0  0  0  0  0  0  0  0  0  0
   -8.9136    2.6330   25.5655 C   0  0  0  0  0  0  0  0  0  0  0  0
   -8.8361    6.1389   27.9032 C   0  0  0  0  0  0  0  0  0  0  0  0
   -9.8295    4.8219   26.2725 C   0  0  0  0  0  0  0  0  0  0  0  0
   -9.8494    5.9177   27.0428 C   0  0  0  0  0  0  0  0  0  0  0  0
   -8.3266    1.4961   26.2131 C   0  0  0  0  0  0  0  0  0  0  0  0
   -7.8771    1.5828   27.6042 C   0  0  0  0  0  0  0  0  0  0  0  0
   -8.3855    0.2413   25.5139 C   0  0  0  0  0  0  0  0  0  0  0  0
   -9.1764    0.0921   24.6245 N   0  0  0  0  0  0  0  0  0  0  0  0
   -8.8554    0.5233   23.3616 C   0  0  0  0  0  0  0  0  0  0  0  0
   -9.6519    0.7357   22.4784 C   0  0  0  0  0  0  0  0  0  0  0  0
  -10.4262   -0.5544   24.7137 C   0  0  0  0  0  0  0  0  0  0  0  0
  -11.3630   -0.4454   23.6650 C   0  0  0  0  0  0  0  0  0  0  0  0
  -10.9161    0.1057   22.4482 C   0  0  0  0  0  0  0  0  0  0  0  0
   -7.5475   -0.6641   25.8084 O   0  0  0  0  0  0  0  0  0  0  0  0
  3  4  1  0
  4  8  2  3
  8  9  1  0
  8 10  1  0
 10 11  1  0
 11 12  1  0
 11 14  1  0
 13 16  1  0
 15 16  1  0
 10 17  2  0
 12 13  1  0
 15 14  1  0
  1  2  2  0
  2  5  1  0
  5  7  2  0
  7  6  1  0
  6  3  2  0
  3  1  1  0
M  END
$$$$
