No_1229-complexes_sdf/6BKW-FPZ/2024-09-17-14-21-01/
     RDKit          3D

 26 28  0  0  0  0  0  0  0  0999 V2000
   -7.7129    4.2099   27.0854 C   0  0  0  0  0  0  0  0  0  0  0  0
   -8.9133    4.4736   27.0998 C   0  0  0  0  0  0  0  0  0  0  0  0
   -9.4643    5.5426   27.7628 C   0  0  0  0  0  0  0  0  0  0  0  0
   -6.8373    4.9942   27.9785 C   0  0  0  0  0  0  0  0  0  0  0  0
   -7.3717    6.0428   28.6744 C   0  0  0  0  0  0  0  0  0  0  0  0
   -8.6869    6.3937   28.5345 C   0  0  0  0  0  0  0  0  0  0  0  0
   -9.6413    3.5082   26.1378 C   0  0  0  0  0  0  0  0  0  0  0  0
  -10.2037    4.0003   25.1197 N   0  0  0  0  0  0  0  0  0  0  0  0
  -10.6395    3.3801   23.9988 C   0  0  0  0  0  0  0  0  0  0  0  0
  -10.4230    2.0514   23.9779 C   0  0  0  0  0  0  0  0  0  0  0  0
   -9.4055    2.1791   26.0922 C   0  0  0  0  0  0  0  0  0  0  0  0
   -9.7677    1.4242   25.0431 C   0  0  0  0  0  0  0  0  0  0  0  0
  -10.9158    1.3102   22.7738 C   0  0  0  0  0  0  0  0  0  0  0  0
  -11.2233    4.0875   23.0993 F   0  0  0  0  0  0  0  0  0  0  0  0
  -10.3192    0.2372   22.4167 C   0  0  0  0  0  0  0  0  0  0  0  0
  -10.7178   -0.5313   21.2150 C   0  0  0  0  0  0  0  0  0  0  0  0
  -11.7001    0.0455   20.4168 C   0  0  0  0  0  0  0  0  0  0  0  0
  -12.2414    1.2805   20.7776 C   0  0  0  0  0  0  0  0  0  0  0  0
  -11.8433    1.9224   21.8844 C   0  0  0  0  0  0  0  0  0  0  0  0
   -8.5845    1.4872   27.2039 C   0  0  0  0  0  0  0  0  0  0  0  0
   -8.6234    0.1047   27.3448 C   0  0  0  0  0  0  0  0  0  0  0  0
   -9.8204   -0.4409   27.2390 C   0  0  0  0  0  0  0  0  0  0  0  0
  -10.3626   -0.9070   28.0110 C   0  0  0  0  0  0  0  0  0  0  0  0
  -11.7807   -1.2777   28.0723 C   0  0  0  0  0  0  0  0  0  0  0  0
  -12.3929   -1.1950   26.8590 C   0  0  0  0  0  0  0  0  0  0  0  0
  -11.7558   -0.7153   25.7797 C   0  0  0  0  0  0  0  0  0  0  0  0
  2  7  1  0
 10 13  1  0
  9 14  1  0
 11 20  1  0
 20 21  2  3
 21 22  1  0
 22 23  2  3
 23 24  1  0
 24 25  2  3
 25 26  1  0
  7  8  2  0
  8  9  1  0
  9 10  2  0
 10 12  1  0
 12 11  2  0
 11  7  1  0
 13 15  2  0
 15 16  1  0
 16 17  2  0
 17 18  1  0
 18 19  2  0
 19 13  1  0
  1  2  2  0
  2  3  1  0
  3  6  2  0
  6  5  1  0
  5  4  2  0
  4  1  1  0
M  END
$$$$
