No_1166-complexes_sdf/6BKW-FPZ/2024-09-17-14-21-01/
     RDKit          3D

 11 12  0  0  0  0  0  0  0  0999 V2000
   -7.7129    4.2099   27.0854 C   0  0  0  0  0  0  0  0  0  0  0  0
   -8.9133    4.4736   27.0998 C   0  0  2  0  0  0  0  0  0  0  0  0
   -9.7135    3.9633   26.0300 C   0  0  0  0  0  0  0  0  0  0  0  0
   -6.8420    4.9760   28.0851 C   0  0  0  0  0  0  0  0  0  0  0  0
  -10.6298    4.7357   25.4076 C   0  0  0  0  0  0  0  0  0  0  0  0
   -7.6973    5.9178   28.5660 N   0  0  0  0  0  0  0  0  0  0  0  0
   -8.9090    5.6519   27.8205 C   0  0  0  0  0  0  0  0  0  0  0  0
   -9.6026    2.6295   25.6360 C   0  0  0  0  0  0  0  0  0  0  0  0
  -10.3548    2.0813   24.6164 C   0  0  0  0  0  0  0  0  0  0  0  0
  -11.3786    4.2549   24.3536 C   0  0  0  0  0  0  0  0  0  0  0  0
  -11.2500    2.9509   23.9283 C   0  0  0  0  0  0  0  0  0  0  0  0
  1  2  1  0
  2  3  1  6
  1  4  2  0
  4  6  1  0
  2  7  1  0
  6  7  1  0
  3  5  2  0
  5 10  1  0
 10 11  2  0
 11  9  1  0
  9  8  2  0
  8  3  1  0
M  END
$$$$
