No_1016-complexes_sdf/6BKW-FPZ/2024-09-17-14-21-01/
     RDKit          3D

 16 18  0  0  0  0  0  0  0  0999 V2000
   -7.9040    3.9820   27.1177 C   0  0  0  0  0  0  0  0  0  0  0  0
   -9.0711    4.3164   27.0630 C   0  0  0  0  0  0  0  0  0  0  0  0
   -9.9692    3.7224   26.1073 C   0  0  0  0  0  0  0  0  0  0  0  0
   -7.4776    2.6994   26.6283 C   0  0  0  0  0  0  0  0  0  0  0  0
   -8.4406    1.9440   25.9776 C   0  0  0  0  0  0  0  0  0  0  0  0
   -9.6379    2.5001   25.6881 C   0  0  0  0  0  0  0  0  0  0  0  0
   -6.9731    4.6322   27.9653 N   0  0  0  0  0  0  0  0  0  0  0  0
   -7.6072    5.7538   28.3581 N   0  0  0  0  0  0  0  0  0  0  0  0
   -8.9223    5.6418   27.7458 C   0  0  0  0  0  0  0  0  0  0  0  0
   -8.0626    0.6134   25.4806 C   0  0  0  0  0  0  0  0  0  0  0  0
   -7.4576   -0.2648   26.3716 C   0  0  0  0  0  0  0  0  0  0  0  0
   -7.3464    0.1351   27.7851 C   0  0  0  0  0  0  0  0  0  0  0  0
   -6.5171   -0.7899   28.5958 C   0  0  0  0  0  0  0  0  0  0  0  0
   -6.0289   -1.9085   28.0589 C   0  0  0  0  0  0  0  0  0  0  0  0
   -6.1963   -2.2477   26.7596 C   0  0  0  0  0  0  0  0  0  0  0  0
   -6.8455   -1.4042   25.9158 C   0  0  0  0  0  0  0  0  0  0  0  0
  1  7  1  0
  7  8  1  0
  2  9  1  0
  8  9  2  0
  5 10  1  0
 10 11  1  0
 11 12  2  0
 12 13  1  0
 13 14  2  0
 14 15  1  0
 15 16  2  0
 16 11  1  0
  1  2  1  0
  2  3  2  0
  3  6  1  0
  6  5  2  0
  5  4  1  0
  4  1  2  0
M  END
$$$$
