No_1622-complexes_sdf/6BKW-FPZ/2024-09-17-14-21-01/
     RDKit          3D

 14 14  0  0  0  0  0  0  0  0999 V2000
   -7.9040    3.9820   27.1177 C   0  0  0  0  0  0  0  0  0  0  0  0
   -9.0711    4.3164   27.0630 C   0  0  0  0  0  0  0  0  0  0  0  0
   -9.5182    5.5541   27.5777 C   0  0  0  0  0  0  0  0  0  0  0  0
   -7.4468    2.6843   26.6499 C   0  0  0  0  0  0  0  0  0  0  0  0
   -8.3856    1.7878   26.2216 C   0  0  0  0  0  0  0  0  0  0  0  0
   -9.6812    2.2328   26.0889 C   0  0  0  0  0  0  0  0  0  0  0  0
  -10.0147    3.4312   26.5259 C   0  0  0  0  0  0  0  0  0  0  0  0
   -7.9143    0.4677   25.8109 C   0  0  0  0  0  0  0  0  0  0  0  0
   -7.9163    0.1471   24.6808 O   0  0  0  0  0  0  0  0  0  0  0  0
   -7.2032   -0.2140   26.6808 O   0  0  0  0  0  0  0  0  0  0  0  0
   -8.5562    6.6640   27.4931 C   0  0  0  0  0  0  0  0  0  0  0  0
   -7.8504    6.8107   26.2356 C   0  0  0  0  0  0  0  0  0  0  0  0
   -6.7114   -1.4004   26.5703 C   0  0  0  0  0  0  0  0  0  0  0  0
   -6.7580   -2.3912   26.7066 C   0  0  0  0  0  0  0  0  0  0  0  0
  2  3  1  0
  5  8  1  0
  8  9  2  0
  8 10  1  0
  3 11  1  0
 11 12  1  0
 10 13  1  0
 13 14  3  0
  1  2  2  0
  2  7  1  0
  7  6  2  0
  6  5  1  0
  5  4  2  0
  4  1  1  0
M  END
$$$$
