No_1114-complexes_sdf/6BKW-FPZ/2024-09-17-14-21-01/
     RDKit          3D

 13 14  0  0  0  0  0  0  0  0999 V2000
   -7.7129    4.2099   27.0854 C   0  0  0  0  0  0  0  0  0  0  0  0
   -7.7814    5.1722   27.8972 C   0  0  0  0  0  0  0  0  0  0  0  0
   -8.8776    3.8408   26.3416 C   0  0  0  0  0  0  0  0  0  0  0  0
   -9.7970    4.1983   26.5823 C   0  0  0  0  0  0  0  0  0  0  0  0
  -10.0953    5.3290   27.4373 C   0  0  0  0  0  0  0  0  0  0  0  0
   -8.9979    5.8673   28.1042 C   0  0  0  0  0  0  0  0  0  0  0  0
  -10.9720    3.6032   25.7717 C   0  0  0  0  0  0  0  0  0  0  0  0
  -10.8740    3.3230   24.5910 C   0  0  0  0  0  0  0  0  0  0  0  0
  -11.8167    2.9503   23.7271 C   0  0  0  0  0  0  0  0  0  0  0  0
  -13.1210    2.8634   24.2752 C   0  0  0  0  0  0  0  0  0  0  0  0
  -12.3185    3.8462   26.1240 C   0  0  0  0  0  0  0  0  0  0  0  0
  -13.3890    3.4238   25.5082 C   0  0  0  0  0  0  0  0  0  0  0  0
   -8.4974    2.8173   25.4502 F   0  0  0  0  0  0  0  0  0  0  0  0
  4  7  1  0
  3 13  1  0
  7  8  2  0
  8  9  1  0
  9 10  2  0
 10 12  1  0
 12 11  2  0
 11  7  1  0
  1  2  2  0
  2  6  1  0
  6  5  2  0
  5  4  1  0
  4  3  2  0
  3  1  1  0
M  END
$$$$
