No_1320-complexes_sdf/6BKW-FPZ/2024-09-17-14-21-01/
     RDKit          3D

 16 16  0  0  0  0  0  0  0  0999 V2000
   -7.2496    3.8871   27.4508 C   0  0  0  0  0  0  0  0  0  0  0  0
   -7.6161    2.7143   27.1523 C   0  0  0  0  0  0  0  0  0  0  0  0
   -8.8302    2.4659   26.5056 C   0  0  0  0  0  0  0  0  0  0  0  0
   -8.1584    5.0090   27.3234 C   0  0  0  0  0  0  0  0  0  0  0  0
   -9.3788    4.7965   26.7695 C   0  0  0  0  0  0  0  0  0  0  0  0
   -9.7028    3.5649   26.3276 C   0  0  0  0  0  0  0  0  0  0  0  0
   -6.5354    1.3302   27.4217 P   0  0  1  0  0  0  0  0  0  0  0  0
   -7.4588    0.2078   27.7974 O   0  0  0  0  0  0  0  0  0  0  0  0
   -6.0162    0.9714   26.0378 O   0  0  0  0  0  0  0  0  0  0  0  0
   -5.4935    1.6732   28.3342 O   0  0  0  0  0  0  0  0  0  0  0  0
   -7.4994    6.2844   27.7558 C   0  0  0  0  0  0  0  0  0  0  0  0
   -7.6139   -0.8934   27.1526 C   0  0  0  0  0  0  0  0  0  0  0  0
   -8.9095   -1.3954   27.4127 C   0  0  0  0  0  0  0  0  0  0  0  0
   -9.5991   -1.1139   28.6161 C   0  0  0  0  0  0  0  0  0  0  0  0
  -11.0208   -1.4766   28.8524 C   0  0  0  0  0  0  0  0  0  0  0  0
  -11.6548   -1.0330   29.9371 C   0  0  0  0  0  0  0  0  0  0  0  0
  2  7  1  0
  7  8  1  0
  7  9  2  0
  7 10  1  1
  4 11  1  0
  8 12  1  0
 12 13  1  0
 13 14  1  0
 14 15  2  3
 15 16  1  0
  1  2  2  0
  2  3  1  0
  3  6  2  0
  6  5  1  0
  5  4  2  0
  4  1  1  0
M  END
$$$$
