No_1672-complexes_sdf/6BKW-FPZ/2024-09-17-14-21-01/
     RDKit          3D

 27 30  0  0  0  0  0  0  0  0999 V2000
   -7.9040    3.9820   27.1177 C   0  0  0  0  0  0  0  0  0  0  0  0
   -9.0711    4.3164   27.0630 C   0  0  0  0  0  0  0  0  0  0  0  0
   -9.5182    5.5541   27.5777 C   0  0  0  0  0  0  0  0  0  0  0  0
   -7.4468    2.6843   26.6499 C   0  0  0  0  0  0  0  0  0  0  0  0
   -8.3856    1.7878   26.2216 C   0  0  0  0  0  0  0  0  0  0  0  0
   -9.6812    2.2328   26.0889 C   0  0  0  0  0  0  0  0  0  0  0  0
  -10.0147    3.4312   26.5259 C   0  0  0  0  0  0  0  0  0  0  0  0
   -7.7098    0.5124   25.8113 C   0  0  0  0  0  0  0  0  0  0  0  0
   -8.2689   -0.0684   24.7436 C   0  0  0  0  0  0  0  0  0  0  0  0
   -7.6747   -1.3065   24.2645 C   0  0  0  0  0  0  0  0  0  0  0  0
   -6.6625   -1.9091   25.0623 C   0  0  0  0  0  0  0  0  0  0  0  0
   -6.7129   -0.1788   26.5483 C   0  0  0  0  0  0  0  0  0  0  0  0
   -6.2113   -1.3086   26.2341 C   0  0  0  0  0  0  0  0  0  0  0  0
   -8.5797    6.6620   27.4625 C   0  0  0  0  0  0  0  0  0  0  0  0
   -7.2730    6.3400   27.1350 C   0  0  0  0  0  0  0  0  0  0  0  0
   -6.8620    5.0303   27.1278 C   0  0  0  0  0  0  0  0  0  0  0  0
  -11.2564    3.9693   26.1546 C   0  0  0  0  0  0  0  0  0  0  0  0
  -12.2127    3.2419   26.4797 C   0  0  0  0  0  0  0  0  0  0  0  0
  -13.5813    3.6381   26.2279 C   0  0  0  0  0  0  0  0  0  0  0  0
  -13.7814    4.3171   25.1323 C   0  0  0  0  0  0  0  0  0  0  0  0
  -12.6222    4.9061   24.4287 C   0  0  0  0  0  0  0  0  0  0  0  0
  -11.3429    4.7527   24.9536 C   0  0  0  0  0  0  0  0  0  0  0  0
  -15.4515    4.8587   24.4657 Br  0  0  0  0  0  0  0  0  0  0  0  0
   -5.1407   -1.9352   26.9973 C   0  0  0  0  0  0  0  0  0  0  0  0
   -4.1037   -1.8805   26.6287 F   0  0  0  0  0  0  0  0  0  0  0  0
   -5.1580   -1.2466   28.2420 F   0  0  0  0  0  0  0  0  0  0  0  0
   -5.5696   -3.1757   27.3273 F   0  0  0  0  0  0  0  0  0  0  0  0
  5  8  1  0
  7 17  1  0
 20 23  1  0
 13 24  1  0
 24 25  1  0
 24 26  1  0
 24 27  1  0
 17 18  2  0
 18 19  1  0
 19 20  2  0
 20 21  1  0
 21 22  2  0
 22 17  1  0
  2  7  1  0
  7  6  2  0
  6  5  1  0
  5  4  2  0
  4  1  1  0
  1  2  1  0
  2  3  2  0
  3 14  1  0
 14 15  2  0
 15 16  1  0
 16  1  2  0
  8  9  2  0
  9 10  1  0
 10 11  2  0
 11 13  1  0
 13 12  2  0
 12  8  1  0
M  END
$$$$
