No_1180-complexes_sdf/6BKW-FPZ/2024-09-17-14-21-01/
     RDKit          3D

 40 43  0  0  0  0  0  0  0  0999 V2000
   -7.2496    3.8871   27.4508 C   0  0  0  0  0  0  0  0  0  0  0  0
   -7.6161    2.7143   27.1523 C   0  0  0  0  0  0  0  0  0  0  0  0
   -8.6212    2.2239   26.4074 C   0  0  0  0  0  0  0  0  0  0  0  0
   -8.2540    4.9237   27.1711 C   0  0  0  0  0  0  0  0  0  0  0  0
   -9.3729    4.5806   26.4433 C   0  0  0  0  0  0  0  0  0  0  0  0
   -9.5830    3.2969   26.1026 C   0  0  0  0  0  0  0  0  0  0  0  0
   -7.9303    6.3207   27.5389 C   0  0  0  0  0  0  0  0  0  0  0  0
   -8.1591    7.3163   26.8805 N   0  0  0  0  0  0  0  0  0  0  0  0
   -8.8867    0.8855   26.0535 C   0  0  0  0  0  0  0  0  0  0  0  0
   -9.2844   -0.0067   26.9482 C   0  0  0  0  0  0  0  0  0  0  0  0
   -9.5622   -0.9643   27.1582 C   0  0  0  0  0  0  0  0  0  0  0  0
  -10.0460   -1.6598   28.4402 C   0  0  0  0  0  0  0  0  0  0  0  0
  -10.5759   -1.8617   29.4087 C   0  0  0  0  0  0  0  0  0  0  0  0
  -10.0581   -2.0154   26.1432 C   0  0  0  0  0  0  0  0  0  0  0  0
  -10.6138   -3.0343   26.3536 C   0  0  0  0  0  0  0  0  0  0  0  0
  -11.1401   -3.2163   29.0725 C   0  0  0  0  0  0  0  0  0  0  0  0
  -11.2807   -3.7640   27.7089 C   0  0  0  0  0  0  0  0  0  0  0  0
   -8.5821   -1.3522   28.8521 F   0  0  0  0  0  0  0  0  0  0  0  0
   -7.0705    6.3962   28.5202 O   0  0  0  0  0  0  0  0  0  0  0  0
   -8.6823    0.4971   24.6891 C   0  0  0  0  0  0  0  0  0  0  0  0
   -9.4819    0.8610   23.6444 C   0  0  0  0  0  0  0  0  0  0  0  0
   -9.1877    0.3935   22.3502 C   0  0  0  0  0  0  0  0  0  0  0  0
   -8.1647   -0.5467   22.1675 C   0  0  0  0  0  0  0  0  0  0  0  0
   -7.3561   -0.9392   23.2192 C   0  0  0  0  0  0  0  0  0  0  0  0
   -7.5732   -0.4263   24.5037 C   0  0  0  0  0  0  0  0  0  0  0  0
  -10.0047    0.8067   21.1998 C   0  0  0  0  0  0  0  0  0  0  0  0
  -11.2503    0.9010   21.4235 N   0  0  0  0  0  0  0  0  0  0  0  0
  -12.1655    1.2640   20.6205 C   0  0  0  0  0  0  0  0  0  0  0  0
  -11.9154    1.6898   19.5097 C   0  0  0  0  0  0  0  0  0  0  0  0
  -10.5913    1.9917   19.1923 C   0  0  0  0  0  0  0  0  0  0  0  0
   -9.5157    1.5563   20.1165 C   0  0  0  0  0  0  0  0  0  0  0  0
   -6.2528   -1.8588   22.9526 C   0  0  0  0  0  0  0  0  0  0  0  0
   -6.1495   -2.4488   21.8652 N   0  0  0  0  0  0  0  0  0  0  0  0
   -5.6605   -3.7210   21.7159 C   0  0  0  0  0  0  0  0  0  0  0  0
   -5.4123   -2.0639   23.9174 O   0  0  0  0  0  0  0  0  0  0  0  0
   -6.6926   -4.5220   21.3019 C   0  0  0  0  0  0  0  0  0  0  0  0
   -7.5850   -5.0015   22.2148 C   0  0  0  0  0  0  0  0  0  0  0  0
   -7.3065   -5.4532   23.2882 C   0  0  0  0  0  0  0  0  0  0  0  0
   -8.3443   -5.9170   24.3116 C   0  0  0  0  0  0  0  0  0  0  0  0
   -9.6451   -5.9553   23.8209 C   0  0  0  0  0  0  0  0  0  0  0  0
  4  7  1  0
  7  8  1  0
  3  9  1  0
  9 10  2  3
 10 11  1  0
 11 12  2  0
 12 13  1  0
 11 14  1  0
 14 15  2  0
 13 16  1  0
 15 17  1  0
 16 17  2  0
 12 18  1  0
  7 19  2  0
  9 20  1  0
 22 26  1  0
 24 32  1  0
 32 33  1  0
 33 34  1  0
 32 35  2  0
 34 36  1  0
 36 37  1  0
 37 38  2  3
 38 39  1  0
 39 40  2  0
 26 27  2  0
 27 28  1  0
 28 29  2  0
 29 30  1  0
 30 31  2  0
 31 26  1  0
  1  2  2  0
  2  3  1  0
  3  6  2  0
  6  5  1  0
  5  4  2  0
  4  1  1  0
 20 21  2  0
 21 22  1  0
 22 23  2  0
 23 24  1  0
 24 25  2  0
 25 20  1  0
M  END
$$$$
