No_1498-complexes_sdf/6BKW-FPZ/2024-09-17-14-21-01/
     RDKit          3D

 26 28  0  0  0  0  0  0  0  0999 V2000
   -7.7129    4.2099   27.0854 C   0  0  0  0  0  0  0  0  0  0  0  0
   -7.7814    5.1722   27.8972 C   0  0  0  0  0  0  0  0  0  0  0  0
   -8.7889    3.2468   27.2220 C   0  0  0  0  0  0  0  0  0  0  0  0
   -9.8927    3.4443   27.8449 C   0  0  0  0  0  0  0  0  0  0  0  0
  -10.8580    4.0567   27.3000 C   0  0  0  0  0  0  0  0  0  0  0  0
  -12.1202    4.1701   28.0197 C   0  0  0  0  0  0  0  0  0  0  0  0
   -8.6078    1.8956   26.6169 C   0  0  0  0  0  0  0  0  0  0  0  0
   -9.2317    1.5366   25.5049 C   0  0  0  0  0  0  0  0  0  0  0  0
   -8.9501    0.3060   24.8975 C   0  0  0  0  0  0  0  0  0  0  0  0
   -7.6702    0.9898   27.2140 C   0  0  0  0  0  0  0  0  0  0  0  0
   -7.3569   -0.2140   26.6561 C   0  0  0  0  0  0  0  0  0  0  0  0
   -8.0473   -0.5417   25.4887 C   0  0  0  0  0  0  0  0  0  0  0  0
  -12.4030    3.3273   29.0053 C   0  0  0  0  0  0  0  0  0  0  0  0
  -11.4082    2.3139   29.3803 C   0  0  0  0  0  0  0  0  0  0  0  0
  -10.2131    2.3649   28.8530 C   0  0  0  0  0  0  0  0  0  0  0  0
  -13.7388    3.3530   29.6615 C   0  0  0  0  0  0  0  0  0  0  0  0
  -13.8256    3.2281   30.9383 C   0  0  0  0  0  0  0  0  0  0  0  0
  -15.0682    3.3646   31.6664 C   0  0  0  0  0  0  0  0  0  0  0  0
  -16.1746    3.6657   30.8654 C   0  0  0  0  0  0  0  0  0  0  0  0
  -15.0646    3.7964   29.2959 C   0  0  0  0  0  0  0  0  0  0  0  0
   -9.6728   -0.0563   23.6686 C   0  0  0  0  0  0  0  0  0  0  0  0
   -9.0886   -0.4437   22.6612 C   0  0  0  0  0  0  0  0  0  0  0  0
   -7.6176   -0.5212   22.6401 C   0  0  0  0  0  0  0  0  0  0  0  0
   -7.0030   -1.2579   21.7842 C   0  0  0  0  0  0  0  0  0  0  0  0
   -7.6789   -1.8561   20.6809 C   0  0  0  0  0  0  0  0  0  0  0  0
   -9.0553   -1.7071   20.5768 C   0  0  0  0  0  0  0  0  0  0  0  0
  1  2  1  0
  1  3  1  0
  3  4  1  0
  3  7  1  0
 13 16  1  0
 16 17  2  0
 17 18  1  0
 18 19  2  0
 16 20  1  0
 19 20  1  0
  9 21  1  0
 21 22  2  3
 22 23  1  0
 23 24  2  3
 24 25  1  0
 25 26  2  0
  4  5  2  0
  5  6  1  0
  6 13  2  0
 13 14  1  0
 14 15  2  0
 15  4  1  0
  7  8  2  0
  8  9  1  0
  9 12  2  0
 12 11  1  0
 11 10  2  0
 10  7  1  0
M  END
$$$$
