No_1194-complexes_sdf/6BKW-FPZ/2024-09-17-14-21-01/
     RDKit          3D

 38 42  0  0  0  0  0  0  0  0999 V2000
   -7.9040    3.9820   27.1177 C   0  0  0  0  0  0  0  0  0  0  0  0
   -8.2057    2.8231   26.8733 C   0  0  0  0  0  0  0  0  0  0  0  0
   -7.4766    1.7477   27.4593 C   0  0  0  0  0  0  0  0  0  0  0  0
   -8.7468    5.1251   26.6967 C   0  0  0  0  0  0  0  0  0  0  0  0
   -9.7234    4.8589   25.8202 C   0  0  0  0  0  0  0  0  0  0  0  0
   -9.9711    3.5858   25.4266 C   0  0  0  0  0  0  0  0  0  0  0  0
   -9.2266    2.4957   25.9600 C   0  0  0  0  0  0  0  0  0  0  0  0
   -6.2367    1.9389   27.9276 N   0  0  0  0  0  0  0  0  0  0  0  0
   -5.4678    0.8434   28.3484 C   0  0  0  0  0  0  0  0  0  0  0  0
   -5.9633   -0.3860   28.2904 C   0  0  0  0  0  0  0  0  0  0  0  0
   -8.0660    0.5650   27.5081 O   0  0  0  0  0  0  0  0  0  0  0  0
   -5.2042   -1.5055   28.8036 C   0  0  0  0  0  0  0  0  0  0  0  0
   -3.9606   -1.1880   29.4181 C   0  0  0  0  0  0  0  0  0  0  0  0
   -3.4556    0.0857   29.4318 C   0  0  0  0  0  0  0  0  0  0  0  0
   -4.1539    1.1381   28.9450 C   0  0  0  0  0  0  0  0  0  0  0  0
   -8.4170    6.5132   27.1095 C   0  0  0  0  0  0  0  0  0  0  0  0
   -8.5571    6.7217   28.2982 F   0  0  0  0  0  0  0  0  0  0  0  0
   -9.1870    7.4563   26.3940 F   0  0  0  0  0  0  0  0  0  0  0  0
   -7.0778    6.8039   26.8826 F   0  0  0  0  0  0  0  0  0  0  0  0
   -3.1629   -2.3334   29.9842 C   0  0  0  0  0  0  0  0  0  0  0  0
   -2.1335   -2.4842   29.7945 C   0  0  0  0  0  0  0  0  0  0  0  0
   -1.5039   -3.7970   29.7918 C   0  0  0  0  0  0  0  0  0  0  0  0
   -2.2000   -4.8119   30.3821 C   0  0  0  0  0  0  0  0  0  0  0  0
   -3.4821   -4.5561   30.7019 C   0  0  0  0  0  0  0  0  0  0  0  0
   -4.1283   -3.3161   30.4886 C   0  0  0  0  0  0  0  0  0  0  0  0
  -11.0311    3.3790   24.4375 C   0  0  0  0  0  0  0  0  0  0  0  0
  -11.0397    4.0444   23.2931 C   0  0  0  0  0  0  0  0  0  0  0  0
  -11.9921    3.9055   22.2573 C   0  0  0  0  0  0  0  0  0  0  0  0
  -11.8593    4.4878   21.0931 C   0  0  0  0  0  0  0  0  0  0  0  0
  -10.7034    5.2997   20.8129 C   0  0  0  0  0  0  0  0  0  0  0  0
   -9.8326    5.4933   21.8557 C   0  0  0  0  0  0  0  0  0  0  0  0
   -9.8830    4.9232   22.9697 C   0  0  0  0  0  0  0  0  0  0  0  0
  -12.3331    3.4610   25.2163 C   0  0  0  0  0  0  0  0  0  0  0  0
  -13.1136    2.3315   25.2979 C   0  0  0  0  0  0  0  0  0  0  0  0
  -14.3468    2.3422   25.9748 C   0  0  0  0  0  0  0  0  0  0  0  0
  -14.7731    3.5735   26.5643 C   0  0  0  0  0  0  0  0  0  0  0  0
  -13.9913    4.7199   26.4832 C   0  0  0  0  0  0  0  0  0  0  0  0
  -12.7952    4.6729   25.8509 C   0  0  0  0  0  0  0  0  0  0  0  0
  2  3  1  0
  3  8  1  0
  3 11  2  0
  4 16  1  0
 16 17  1  0
 16 18  1  0
 16 19  1  0
 13 20  1  0
  6 26  1  0
 26 33  1  0
  8  9  1  0
 26 27  1  0
 33 34  2  0
 34 35  1  0
 35 36  2  0
 36 37  1  0
 37 38  2  0
 38 33  1  0
  9 10  2  0
 10 12  1  0
 12 13  2  0
 13 14  1  0
 14 15  2  0
 15  9  1  0
  1  2  2  0
  2  7  1  0
  7  6  2  0
  6  5  1  0
  5  4  2  0
  4  1  1  0
 27 28  2  0
 28 29  1  0
 29 30  2  0
 30 31  1  0
 31 32  2  0
 32 27  1  0
 20 21  2  0
 21 22  1  0
 22 23  2  0
 23 24  1  0
 24 25  2  0
 25 20  1  0
M  END
$$$$
