No_1820-complexes_sdf/6BKW-FPZ/2024-09-17-14-21-01/
     RDKit          3D

 19 20  0  0  0  0  0  0  0  0999 V2000
   -7.9040    3.9820   27.1177 C   0  0  0  0  0  0  0  0  0  0  0  0
   -8.2057    2.8231   26.8733 C   0  0  0  0  0  0  0  0  0  0  0  0
   -7.0130    4.3706   28.1140 C   0  0  0  0  0  0  0  0  0  0  0  0
   -7.4093    1.7370   27.3857 C   0  0  0  0  0  0  0  0  0  0  0  0
   -6.1943    2.1490   28.0403 C   0  0  0  0  0  0  0  0  0  0  0  0
   -5.2077    1.1775   28.4320 C   0  0  0  0  0  0  0  0  0  0  0  0
   -5.9737    3.5466   28.3892 C   0  0  0  0  0  0  0  0  0  0  0  0
   -5.5145   -0.1938   28.4054 C   0  0  0  0  0  0  0  0  0  0  0  0
   -4.5534   -1.0871   28.8629 C   0  0  0  0  0  0  0  0  0  0  0  0
   -3.3155   -0.6160   29.2820 C   0  0  0  0  0  0  0  0  0  0  0  0
   -3.0107    0.7076   29.2315 C   0  0  0  0  0  0  0  0  0  0  0  0
   -3.8935    1.5757   28.8565 C   0  0  0  0  0  0  0  0  0  0  0  0
   -8.9630    5.0708   26.6797 C   0  0  0  0  0  0  0  0  0  0  0  0
   -9.4929    4.9588   25.5194 O   0  0  0  0  0  0  0  0  0  0  0  0
   -9.0139    6.2035   27.2695 O   0  0  0  0  0  0  0  0  0  0  0  0
   -2.3295   -1.6800   29.7884 C   0  0  0  0  0  0  0  0  0  0  0  0
   -2.6758   -2.8687   29.6637 O   0  0  0  0  0  0  0  0  0  0  0  0
   -1.2089   -1.3066   30.2291 O   0  0  0  0  0  0  0  0  0  0  0  0
   -9.2417    2.3569   26.1770 F   0  0  0  0  0  0  0  0  0  0  0  0
  1 13  1  0
 13 14  2  0
 13 15  1  0
 10 16  1  0
 16 17  2  0
 16 18  1  0
  2 19  1  0
  6  5  1  0
  1  2  2  0
  2  4  1  0
  4  5  2  0
  5  7  1  0
  7  3  2  0
  3  1  1  0
  6  8  2  0
  8  9  1  0
  9 10  2  0
 10 11  1  0
 11 12  2  0
 12  6  1  0
M  END
$$$$
