No_1898-complexes_sdf/6BKW-FPZ/2024-09-17-14-21-01/
     RDKit          3D

 40 45  0  0  0  0  0  0  0  0999 V2000
   -7.9040    3.9820   27.1177 C   0  0  0  0  0  0  0  0  0  0  0  0
   -7.8663    4.8694   27.9238 C   0  0  0  0  0  0  0  0  0  0  0  0
   -7.4547    2.7080   27.4594 C   0  0  0  0  0  0  0  0  0  0  0  0
   -8.7044    6.0412   27.8492 C   0  0  0  0  0  0  0  0  0  0  0  0
   -7.9501    1.5743   26.8848 C   0  0  0  0  0  0  0  0  0  0  0  0
   -8.8711    1.7575   25.8527 C   0  0  0  0  0  0  0  0  0  0  0  0
   -9.3585    2.9740   25.5109 C   0  0  0  0  0  0  0  0  0  0  0  0
   -8.9270    4.1097   26.1925 C   0  0  0  0  0  0  0  0  0  0  0  0
   -9.5518    5.3341   26.1504 C   0  0  0  0  0  0  0  0  0  0  0  0
   -9.3829    6.3930   26.8775 C   0  0  0  0  0  0  0  0  0  0  0  0
   -7.3559    0.2476   27.1388 C   0  0  0  0  0  0  0  0  0  0  0  0
   -8.1323   -0.8575   27.2728 C   0  0  0  0  0  0  0  0  0  0  0  0
   -9.2974   -0.9025   27.2272 C   0  0  0  0  0  0  0  0  0  0  0  0
  -10.1453   -2.0919   27.5207 C   0  0  0  0  0  0  0  0  0  0  0  0
   -9.4245   -3.1632   27.8140 C   0  0  0  0  0  0  0  0  0  0  0  0
   -7.4984   -2.1371   27.7622 C   0  0  0  0  0  0  0  0  0  0  0  0
   -8.1455   -3.2251   27.9793 C   0  0  0  0  0  0  0  0  0  0  0  0
   -6.0607    0.2576   27.2538 F   0  0  0  0  0  0  0  0  0  0  0  0
  -10.3299    3.0261   24.4216 C   0  0  0  0  0  0  0  0  0  0  0  0
  -10.3322    2.1977   23.4425 C   0  0  0  0  0  0  0  0  0  0  0  0
  -11.1476    2.2928   22.3218 C   0  0  0  0  0  0  0  0  0  0  0  0
  -11.8499    3.4635   22.1238 C   0  0  0  0  0  0  0  0  0  0  0  0
  -11.8002    4.4671   23.0902 C   0  0  0  0  0  0  0  0  0  0  0  0
  -11.0206    4.3160   24.1855 C   0  0  0  0  0  0  0  0  0  0  0  0
  -10.5292    5.3197   24.9984 N   0  0  0  0  0  0  0  0  0  0  0  0
  -11.6137   -2.0024   27.3352 C   0  0  0  0  0  0  0  0  0  0  0  0
  -12.4338   -1.4842   27.7599 O   0  0  0  0  0  0  0  0  0  0  0  0
  -11.8702   -2.6133   26.1362 O   0  0  0  0  0  0  0  0  0  0  0  0
   -7.4351   -4.4305   28.4141 C   0  0  0  0  0  0  0  0  0  0  0  0
   -7.8331   -5.3203   28.8886 O   0  0  0  0  0  0  0  0  0  0  0  0
   -6.0914   -4.3723   28.1780 O   0  0  0  0  0  0  0  0  0  0  0  0
  -12.9904   -2.4422   25.5163 C   0  0  0  0  0  0  0  0  0  0  0  0
  -13.3608   -1.4418   25.2672 C   0  0  0  0  0  0  0  0  0  0  0  0
  -12.8580   -0.5564   24.3108 C   0  0  0  0  0  0  0  0  0  0  0  0
  -13.2598    0.2450   23.8089 C   0  0  0  0  0  0  0  0  0  0  0  0
  -14.5834    0.8189   24.2459 C   0  0  0  0  0  0  0  0  0  0  0  0
  -15.2626    0.0859   25.1515 C   0  0  0  0  0  0  0  0  0  0  0  0
  -14.7383   -1.0506   25.6583 C   0  0  0  0  0  0  0  0  0  0  0  0
  -15.1621    2.0851   23.6389 C   0  0  0  0  0  0  0  0  0  0  0  0
  -15.6339    2.0625   22.3292 C   0  0  0  0  0  0  0  0  0  0  0  0
  5 11  1  0
 11 12  1  0
 11 18  1  0
  7 19  1  0
  9 25  1  0
 24 25  1  0
 14 26  1  0
 26 27  2  0
 26 28  1  0
 17 29  1  0
 29 30  2  0
 29 31  1  0
 28 32  1  0
 36 39  1  0
 39 40  2  0
 32 33  1  0
  1  3  1  0
  3  5  2  0
  5  6  1  0
  6  7  2  0
  7  8  1  0
  1  2  2  0
  2  4  1  0
  4 10  2  0
 10  9  1  0
  9  8  2  0
  8  1  1  0
 33 34  2  0
 34 35  1  0
 35 36  2  0
 36 37  1  0
 37 38  2  0
 38 33  1  0
 19 20  2  0
 20 21  1  0
 21 22  2  0
 22 23  1  0
 23 24  2  0
 24 19  1  0
 12 13  2  0
 13 14  1  0
 14 15  2  0
 15 17  1  0
 17 16  2  0
 16 12  1  0
M  END
$$$$
