No_1398-complexes_sdf/6BKW-FPZ/2024-09-17-14-21-01/
     RDKit          3D

 15 16  0  0  0  0  0  0  0  0999 V2000
   -7.9040    3.9820   27.1177 C   0  0  0  0  0  0  0  0  0  0  0  0
   -7.8663    4.8694   27.9238 C   0  0  0  0  0  0  0  0  0  0  0  0
   -9.0501    3.8017   26.2617 C   0  0  0  0  0  0  0  0  0  0  0  0
  -10.0189    4.7608   26.3707 C   0  0  0  0  0  0  0  0  0  0  0  0
   -8.6973    5.9722   27.8968 C   0  0  0  0  0  0  0  0  0  0  0  0
   -9.8216    5.8946   27.1241 C   0  0  0  0  0  0  0  0  0  0  0  0
   -9.1437    2.6293   25.4175 C   0  0  2  0  0  0  0  0  0  0  0  0
   -8.3611    1.2572   25.7044 Cl  0  0  0  0  0  0  0  0  0  0  0  0
   -9.9425    2.7340   24.2124 C   0  0  0  0  0  0  0  0  0  0  0  0
   -9.9635    1.6620   23.3325 C   0  0  0  0  0  0  0  0  0  0  0  0
  -10.5404    1.8369   22.0713 C   0  0  0  0  0  0  0  0  0  0  0  0
  -11.2058    3.0655   21.8224 C   0  0  0  0  0  0  0  0  0  0  0  0
  -11.1567    4.1076   22.7269 C   0  0  0  0  0  0  0  0  0  0  0  0
  -10.5033    4.0110   23.9112 C   0  0  0  0  0  0  0  0  0  0  0  0
  -10.5316    5.0936   24.9393 C   0  0  0  0  0  0  0  0  0  0  0  0
  3  7  1  0
  7  8  1  6
  7  9  1  0
 14 15  1  0
  9 10  2  0
 10 11  1  0
 11 12  2  0
 12 13  1  0
 13 14  2  0
 14  9  1  0
  1  2  2  0
  2  5  1  0
  5  6  2  0
  6  4  1  0
  4  3  2  0
  3  1  1  0
M  END
$$$$
