No_1586-complexes_sdf/6BKW-FPZ/2024-09-17-14-21-01/
     RDKit          3D

 15 16  0  0  0  0  0  0  0  0999 V2000
   -7.7129    4.2099   27.0854 C   0  0  0  0  0  0  0  0  0  0  0  0
   -7.7814    5.1722   27.8972 C   0  0  0  0  0  0  0  0  0  0  0  0
   -8.8998    3.8713   26.3707 C   0  0  0  0  0  0  0  0  0  0  0  0
   -9.7416    3.2213   26.9591 C   0  0  0  0  0  0  0  0  0  0  0  0
  -10.0326    3.7911   28.3648 C   0  0  0  0  0  0  0  0  0  0  0  0
   -9.0681    5.0614   28.7250 C   0  0  0  0  0  0  0  0  0  0  0  0
  -10.7948    2.3584   26.5504 C   0  0  0  0  0  0  0  0  0  0  0  0
  -10.3603    1.1781   26.2017 C   0  0  0  0  0  0  0  0  0  0  0  0
  -11.1175    0.1858   25.7332 C   0  0  0  0  0  0  0  0  0  0  0  0
  -12.1340    2.6040   26.6600 C   0  0  0  0  0  0  0  0  0  0  0  0
  -13.0502    1.6182   26.2471 C   0  0  0  0  0  0  0  0  0  0  0  0
  -12.5294    0.4486   25.8102 C   0  0  0  0  0  0  0  0  0  0  0  0
  -13.4977   -0.6048   25.3370 C   0  0  0  0  0  0  0  0  0  0  0  0
  -13.6157   -0.9916   24.2786 C   0  0  0  0  0  0  0  0  0  0  0  0
  -14.5684   -2.0383   23.8841 C   0  0  0  0  0  0  0  0  0  0  0  0
  4  7  1  0
 12 13  1  0
 13 14  2  3
 14 15  1  0
  1  2  2  0
  2  6  1  0
  6  5  2  0
  5  4  1  0
  4  3  2  0
  3  1  1  0
  7  8  2  0
  8  9  1  0
  9 12  2  0
 12 11  1  0
 11 10  2  0
 10  7  1  0
M  END
$$$$
