No_1408-complexes_sdf/6BKW-FPZ/2024-09-17-14-21-01/
     RDKit          3D

 19 20  0  0  0  0  0  0  0  0999 V2000
   -7.2496    3.8871   27.4508 C   0  0  0  0  0  0  0  0  0  0  0  0
   -7.6161    2.7143   27.1523 C   0  0  0  0  0  0  0  0  0  0  0  0
   -8.8302    2.4659   26.5056 C   0  0  0  0  0  0  0  0  0  0  0  0
   -8.1584    5.0089   27.3234 C   0  0  0  0  0  0  0  0  0  0  0  0
   -9.3788    4.7965   26.7695 C   0  0  0  0  0  0  0  0  0  0  0  0
   -9.7028    3.5649   26.3276 C   0  0  0  0  0  0  0  0  0  0  0  0
   -6.5601    1.6614   27.4277 C   0  0  0  0  0  0  0  0  0  0  0  0
   -7.0071    0.2698   27.3670 C   0  0  0  0  0  0  0  0  0  0  0  0
   -5.2933    1.9223   27.8187 C   0  0  0  0  0  0  0  0  0  0  0  0
   -4.3667    0.9173   28.1369 C   0  0  0  0  0  0  0  0  0  0  0  0
   -6.0585   -0.6965   27.6781 C   0  0  0  0  0  0  0  0  0  0  0  0
   -4.7552   -0.3781   28.1270 C   0  0  0  0  0  0  0  0  0  0  0  0
   -7.6177    6.5802   27.8669 Cl  0  0  0  0  0  0  0  0  0  0  0  0
  -10.9808    3.3420   25.6360 C   0  0  0  0  0  0  0  0  0  0  0  0
  -11.0641    3.7225   24.3490 C   0  0  0  0  0  0  0  0  0  0  0  0
  -11.7625    3.6397   23.5292 C   0  0  0  0  0  0  0  0  0  0  0  0
  -11.6530    4.2003   22.1092 C   0  0  0  0  0  0  0  0  0  0  0  0
  -10.4750    4.9230   21.9670 C   0  0  0  0  0  0  0  0  0  0  0  0
   -9.7056    5.2435   23.0033 C   0  0  0  0  0  0  0  0  0  0  0  0
  2  7  1  0
  4 13  1  0
  6 14  1  0
 14 15  2  3
 15 16  1  0
 16 17  2  3
 17 18  1  0
 18 19  2  0
  7  8  2  0
  8 11  1  0
 11 12  2  0
 12 10  1  0
 10  9  2  0
  9  7  1  0
  1  2  2  0
  2  3  1  0
  3  6  2  0
  6  5  1  0
  5  4  2  0
  4  1  1  0
M  END
$$$$
