No_1685-complexes_sdf/6BKW-FPZ/2024-09-17-14-21-01/
     RDKit          3D

 15 16  0  0  0  0  0  0  0  0999 V2000
   -7.7129    4.2099   27.0854 C   0  0  0  0  0  0  0  0  0  0  0  0
   -8.9133    4.4736   27.0998 C   0  0  0  0  0  0  0  0  0  0  0  0
   -9.7135    3.9633   26.0300 C   0  0  0  0  0  0  0  0  0  0  0  0
   -6.8655    4.8824   28.1822 C   0  0  0  0  0  0  0  0  0  0  0  0
   -9.2221    2.8459   25.3619 C   0  0  0  0  0  0  0  0  0  0  0  0
   -8.0164    2.2957   25.7889 C   0  0  0  0  0  0  0  0  0  0  0  0
   -7.3052    2.9474   26.8072 C   0  0  0  0  0  0  0  0  0  0  0  0
  -10.0330    2.1843   24.3790 C   0  0  0  0  0  0  0  0  0  0  0  0
   -9.7030    1.0090   23.9743 C   0  0  0  0  0  0  0  0  0  0  0  0
  -10.3930    0.3968   22.8930 C   0  0  0  0  0  0  0  0  0  0  0  0
  -10.0503   -0.9125   22.4222 C   0  0  0  0  0  0  0  0  0  0  0  0
   -8.9545   -1.5603   23.0324 C   0  0  0  0  0  0  0  0  0  0  0  0
   -8.2470   -1.0082   24.0036 C   0  0  0  0  0  0  0  0  0  0  0  0
   -8.5513    0.2910   24.4492 C   0  0  0  0  0  0  0  0  0  0  0  0
   -7.7929    0.9758   25.4859 C   0  0  0  0  0  0  0  0  0  0  0  0
  1  4  1  0
  5  8  1  0
 14 15  1  0
  8  9  1  0
  9 10  2  0
 10 11  1  0
 11 12  2  0
 12 13  1  0
 13 14  2  0
 14  9  1  0
  1  2  2  0
  2  3  1  0
  3  5  2  0
  5  6  1  0
  6  7  2  0
  7  1  1  0
M  END
$$$$
