No_1690-complexes_sdf/6BKW-FPZ/2024-09-17-14-21-01/
     RDKit          3D

 20 21  0  0  0  0  0  0  0  0999 V2000
   -7.7129    4.2099   27.0854 C   0  0  0  0  0  0  0  0  0  0  0  0
   -8.2112    3.0637   26.9225 C   0  0  0  0  0  0  0  0  0  0  0  0
   -9.4446    2.8304   26.1868 C   0  0  0  0  0  0  0  0  0  0  0  0
   -8.4697    5.3956   26.7238 C   0  0  0  0  0  0  0  0  0  0  0  0
   -9.6172    5.2111   25.9513 C   0  0  0  0  0  0  0  0  0  0  0  0
  -10.0424    3.9782   25.6873 C   0  0  0  0  0  0  0  0  0  0  0  0
   -7.9392    6.6271   26.9728 N   0  0  0  0  0  0  0  0  0  0  0  0
   -8.4973    7.7978   26.5547 C   0  0  0  0  0  0  0  0  0  0  0  0
   -7.3675    1.6137   27.4752 Cl  0  0  0  0  0  0  0  0  0  0  0  0
  -11.2599    3.8024   24.8603 C   0  0  0  0  0  0  0  0  0  0  0  0
  -12.4660    3.3949   25.3734 C   0  0  0  0  0  0  0  0  0  0  0  0
  -12.5466    3.1858   26.8029 C   0  0  0  0  0  0  0  0  0  0  0  0
  -11.7912    3.3426   27.6091 C   0  0  0  0  0  0  0  0  0  0  0  0
  -12.1956    3.1300   29.1314 C   0  0  0  0  0  0  0  0  0  0  0  0
  -13.3963    2.6277   29.4361 C   0  0  0  0  0  0  0  0  0  0  0  0
  -14.2865    2.4405   28.4061 C   0  0  0  0  0  0  0  0  0  0  0  0
  -13.9885    2.7381   27.1312 C   0  0  0  0  0  0  0  0  0  0  0  0
  -11.0892    4.1842   23.4705 C   0  0  0  0  0  0  0  0  0  0  0  0
  -10.2080    4.7567   22.9202 C   0  0  0  0  0  0  0  0  0  0  0  0
  -10.3450    4.9013   21.4229 C   0  0  0  0  0  0  0  0  0  0  0  0
  4  7  1  0
  7  8  1  0
  2  9  1  0
  6 10  1  0
 10 11  2  3
 11 12  1  0
 10 18  1  0
 18 19  2  3
 19 20  1  0
 12 13  2  0
 13 14  1  0
 14 15  2  0
 15 16  1  0
 16 17  2  0
 17 12  1  0
  1  2  2  0
  2  3  1  0
  3  6  2  0
  6  5  1  0
  5  4  2  0
  4  1  1  0
M  END
$$$$
