No_1842-complexes_sdf/6BKW-FPZ/2024-09-17-14-21-01/
     RDKit          3D

 17 18  0  0  0  0  0  0  0  0999 V2000
   -7.2496    3.8871   27.4508 C   0  0  0  0  0  0  0  0  0  0  0  0
   -7.9379    4.9063   27.8518 C   0  0  2  0  0  0  0  0  0  0  0  0
   -9.3376    4.8647   27.7795 C   0  0  0  0  0  0  0  0  0  0  0  0
   -7.8544    2.6294   27.0414 C   0  0  0  0  0  0  0  0  0  0  0  0
   -9.2852    2.6570   27.0666 C   0  0  2  0  0  0  0  0  0  0  0  0
  -10.0126    3.7528   27.4890 C   0  0  2  0  0  0  0  0  0  0  0  0
   -9.9609    1.3640   26.7239 C   0  0  0  0  0  0  0  0  0  0  0  0
  -10.7817    1.2617   26.0939 C   0  0  0  0  0  0  0  0  0  0  0  0
  -11.3271    2.4823   25.3896 C   0  0  1  0  0  0  0  0  0  0  0  0
  -11.7161    3.6348   26.0029 C   0  0  0  0  0  0  0  0  0  0  0  0
  -10.9416    4.1984   26.5474 C   0  0  0  0  0  0  0  0  0  0  0  0
  -10.6999    3.2554   28.8595 C   0  0  0  0  0  0  0  0  0  0  0  0
   -7.2440    6.0490   28.2312 O   0  0  0  0  0  0  0  0  0  0  0  0
  -10.4350    2.7781   24.1925 C   0  0  0  0  0  0  0  0  0  0  0  0
  -10.9608    2.2739   22.9882 C   0  0  0  0  0  0  0  0  0  0  0  0
  -10.2737    2.6845   21.8321 C   0  0  0  0  0  0  0  0  0  0  0  0
  -10.6480    2.1638   20.6151 C   0  0  0  0  0  0  0  0  0  0  0  0
  1  2  1  0
  5  4  1  1
  3  6  1  0
  5  6  1  0
  5  7  1  0
  7  8  2  0
  8  9  1  0
  9 10  1  1
  6 11  1  0
 10 11  1  0
  6 12  1  1
  2 13  1  6
  9 14  1  0
 14 15  2  3
 15 16  1  0
 16 17  2  0
  3  2  1  0
  1  4  1  0
M  END
$$$$
