No_139-complexes_sdf/6BKW-FPZ/2024-09-17-14-21-01/
     RDKit          3D

 19 20  0  0  0  0  0  0  0  0999 V2000
   -7.7129    4.2099   27.0854 C   0  0  0  0  0  0  0  0  0  0  0  0
   -8.9133    4.4736   27.0998 C   0  0  0  0  0  0  0  0  0  0  0  0
   -9.4643    5.5426   27.7628 C   0  0  0  0  0  0  0  0  0  0  0  0
   -7.2009    2.9448   26.6134 C   0  0  0  0  0  0  0  0  0  0  0  0
   -8.1365    1.9533   26.2981 C   0  0  0  0  0  0  0  0  0  0  0  0
   -9.4514    2.2934   26.2667 C   0  0  0  0  0  0  0  0  0  0  0  0
   -9.8600    3.4834   26.7068 C   0  0  0  0  0  0  0  0  0  0  0  0
   -7.8003    0.5833   25.9642 C   0  0  0  0  0  0  0  0  0  0  0  0
   -7.0634   -0.1121   26.6746 O   0  0  0  0  0  0  0  0  0  0  0  0
   -8.2209    0.1011   24.8643 O   0  0  0  0  0  0  0  0  0  0  0  0
   -6.3380    5.2821   27.8615 Br  0  0  0  0  0  0  0  0  0  0  0  0
   -8.4673   -1.0549   24.6369 C   0  0  0  0  0  0  0  0  0  0  0  0
   -9.4259   -1.6525   25.0042 C   0  0  0  0  0  0  0  0  0  0  0  0
  -10.4693   -1.0620   25.4609 C   0  0  0  0  0  0  0  0  0  0  0  0
  -11.6593   -1.7159   26.0895 C   0  0  0  0  0  0  0  0  0  0  0  0
  -12.6742   -0.9754   26.7157 C   0  0  0  0  0  0  0  0  0  0  0  0
  -12.6606    0.4205   26.5950 C   0  0  0  0  0  0  0  0  0  0  0  0
  -11.7469    1.0403   25.8595 C   0  0  0  0  0  0  0  0  0  0  0  0
  -10.6556    0.3473   25.3302 C   0  0  0  0  0  0  0  0  0  0  0  0
  5  8  1  0
  8  9  2  0
  8 10  1  0
  1 11  1  0
 10 12  1  0
 12 13  1  0
 13 14  1  0
  3  2  1  0
 14 15  2  0
 15 16  1  0
 16 17  2  0
 17 18  1  0
 18 19  2  0
 19 14  1  0
  1  2  2  0
  2  7  1  0
  7  6  2  0
  6  5  1  0
  5  4  2  0
  4  1  1  0
M  END
$$$$
