No_1219-complexes_sdf/6BKW-FPZ/2024-09-17-14-21-01/
     RDKit          3D

 20 22  0  0  0  0  0  0  0  0999 V2000
   -7.2496    3.8871   27.4508 C   0  0  0  0  0  0  0  0  0  0  0  0
   -7.6161    2.7143   27.1523 C   0  0  0  0  0  0  0  0  0  0  0  0
   -7.1618    1.8631   27.5232 C   0  0  0  0  0  0  0  0  0  0  0  0
   -8.0384    5.0866   27.3232 C   0  0  0  0  0  0  0  0  0  0  0  0
   -9.1223    5.1097   26.4856 C   0  0  0  0  0  0  0  0  0  0  0  0
   -8.8783    2.5973   26.4116 C   0  0  0  0  0  0  0  0  0  0  0  0
   -9.5900    3.8077   26.0949 C   0  0  0  0  0  0  0  0  0  0  0  0
   -7.4080    0.3934   27.3603 C   0  0  0  0  0  0  0  0  0  0  0  0
   -8.6537    0.2534   26.6645 C   0  0  0  0  0  0  0  0  0  0  0  0
   -9.4162    1.3954   26.1248 C   0  0  0  0  0  0  0  0  0  0  0  0
   -7.4769    6.4161   27.7877 C   0  0  0  0  0  0  0  0  0  0  0  0
  -10.7499    3.7615   25.1909 C   0  0  0  0  0  0  0  0  0  0  0  0
  -11.9911    3.7211   25.7319 C   0  0  0  0  0  0  0  0  0  0  0  0
  -10.5820    3.7199   23.7978 C   0  0  0  0  0  0  0  0  0  0  0  0
  -11.5658    3.7925   22.9131 C   0  0  0  0  0  0  0  0  0  0  0  0
  -13.1060    3.8299   24.8658 C   0  0  0  0  0  0  0  0  0  0  0  0
  -11.3827    3.8335   21.4903 C   0  0  0  0  0  0  0  0  0  0  0  0
  -12.8864    3.9161   23.4309 C   0  0  0  0  0  0  0  0  0  0  0  0
  -10.1130    4.1369   21.1332 C   0  0  0  0  0  0  0  0  0  0  0  0
  -12.3630    3.5183   20.5976 C   0  0  0  0  0  0  0  0  0  0  0  0
  4 11  1  0
  7 12  1  0
 15 17  1  0
 17 19  2  0
 17 20  1  0
  2  3  1  0
  3  8  2  0
  8  9  1  0
  9 10  2  0
 10  6  1  0
 12 13  2  0
 13 16  1  0
 16 18  2  0
 18 15  1  0
 15 14  2  0
 14 12  1  0
  1  2  2  0
  2  6  1  0
  6  7  2  0
  7  5  1  0
  5  4  2  0
  4  1  1  0
M  END
$$$$
