No_1232-complexes_sdf/6BKW-FPZ/2024-09-17-14-21-01/
     RDKit          3D

 27 30  0  0  0  0  0  0  0  0999 V2000
   -7.2496    3.8871   27.4508 C   0  0  0  0  0  0  0  0  0  0  0  0
   -7.6161    2.7143   27.1523 C   0  0  0  0  0  0  0  0  0  0  0  0
   -8.8302    2.4659   26.5056 C   0  0  0  0  0  0  0  0  0  0  0  0
   -8.1584    5.0090   27.3234 C   0  0  0  0  0  0  0  0  0  0  0  0
   -9.3788    4.7965   26.7695 C   0  0  0  0  0  0  0  0  0  0  0  0
   -9.7028    3.5649   26.3276 C   0  0  0  0  0  0  0  0  0  0  0  0
   -6.7190    1.5585   27.3667 C   0  0  0  0  0  0  0  0  0  0  0  0
   -5.4774    1.7392   28.0696 C   0  0  0  0  0  0  0  0  0  0  0  0
   -4.5863    0.5576   28.1985 C   0  0  0  0  0  0  0  0  0  0  0  0
   -5.0529   -0.6559   27.8470 C   0  0  0  0  0  0  0  0  0  0  0  0
   -7.0005    0.2245   27.0830 C   0  0  0  0  0  0  0  0  0  0  0  0
   -6.2755   -0.8030   27.3222 C   0  0  0  0  0  0  0  0  0  0  0  0
   -7.7042    6.3698   27.7736 C   0  0  0  0  0  0  0  0  0  0  0  0
   -3.0600    0.8879   28.9569 Cl  0  0  0  0  0  0  0  0  0  0  0  0
   -8.4338    7.4054   27.2552 N   0  0  0  0  0  0  0  0  0  0  0  0
  -10.9941    3.3724   25.6303 C   0  0  0  0  0  0  0  0  0  0  0  0
  -11.0510    3.6489   24.2774 C   0  0  0  0  0  0  0  0  0  0  0  0
  -12.1771    3.8620   23.5979 C   0  0  0  0  0  0  0  0  0  0  0  0
  -12.0647    2.8524   26.2810 C   0  0  0  0  0  0  0  0  0  0  0  0
  -13.3356    2.9376   25.5721 C   0  0  0  0  0  0  0  0  0  0  0  0
  -13.3600    3.4128   24.2795 C   0  0  0  0  0  0  0  0  0  0  0  0
  -14.5659    3.4831   23.6007 O   0  0  0  0  0  0  0  0  0  0  0  0
  -14.8570    4.2142   22.6965 C   0  0  0  0  0  0  0  0  0  0  0  0
   -6.7119    6.4865   28.4213 O   0  0  0  0  0  0  0  0  0  0  0  0
  -12.2995    4.4410   22.2833 C   0  0  0  0  0  0  0  0  0  0  0  0
  -13.6514    4.6479   21.8323 C   0  0  0  0  0  0  0  0  0  0  0  0
  -11.2565    4.8746   21.6835 O   0  0  0  0  0  0  0  0  0  0  0  0
  2  7  1  0
  4 13  1  0
  9 14  1  0
 13 15  1  0
  6 16  1  0
 21 22  1  0
 22 23  1  0
 13 24  2  0
 18 25  1  0
 23 26  2  0
 25 26  1  0
 25 27  2  0
  7  8  2  0
  8  9  1  0
  9 10  2  0
 10 12  1  0
 12 11  2  0
 11  7  1  0
  1  2  2  0
  2  3  1  0
  3  6  2  0
  6  5  1  0
  5  4  2  0
  4  1  1  0
 16 17  2  0
 17 18  1  0
 18 21  2  0
 21 20  1  0
 20 19  2  0
 19 16  1  0
M  END
$$$$
