No_1957-complexes_sdf/6BKW-FPZ/2024-09-17-14-21-01/
     RDKit          3D

 21 22  0  0  0  0  0  0  0  0999 V2000
   -7.2496    3.8871   27.4508 C   0  0  0  0  0  0  0  0  0  0  0  0
   -8.5096    4.0291   27.2770 C   0  0  2  0  0  0  0  0  0  0  0  0
   -9.3451    2.8786   26.9046 C   0  0  0  0  0  0  0  0  0  0  0  0
  -10.6709    3.0505   26.6789 C   0  0  0  0  0  0  0  0  0  0  0  0
   -6.5987    2.6095   27.5132 C   0  0  0  0  0  0  0  0  0  0  0  0
   -7.3529    1.5121   27.2159 C   0  0  1  0  0  0  0  0  0  0  0  0
   -6.8123    0.2547   27.2645 C   0  0  0  0  0  0  0  0  0  0  0  0
   -8.6776    1.7225   26.9771 C   0  0  0  0  0  0  0  0  0  0  0  0
   -5.4516    0.1185   27.7451 C   0  0  0  0  0  0  0  0  0  0  0  0
   -4.8371   -1.1450   27.8490 C   0  0  0  0  0  0  0  0  0  0  0  0
  -11.4985    2.0233   27.0914 C   0  0  0  0  0  0  0  0  0  0  0  0
  -12.8000    2.0434   27.0942 C   0  0  0  0  0  0  0  0  0  0  0  0
   -9.1129    5.3882   27.2849 C   0  0  0  0  0  0  0  0  0  0  0  0
   -8.2807    6.5179   27.0731 C   0  0  0  0  0  0  0  0  0  0  0  0
   -5.5119   -2.1936   27.4018 C   0  0  0  0  0  0  0  0  0  0  0  0
   -7.3242   -0.9608   26.9066 C   0  0  0  0  0  0  0  0  0  0  0  0
   -6.7589   -2.1458   26.9222 C   0  0  0  0  0  0  0  0  0  0  0  0
   -8.7422    7.8363   26.8369 C   0  0  0  0  0  0  0  0  0  0  0  0
  -13.6334    1.0829   27.6442 C   0  0  0  0  0  0  0  0  0  0  0  0
  -13.0089   -0.0746   28.1929 C   0  0  0  0  0  0  0  0  0  0  0  0
  -11.6425   -0.1930   28.2385 C   0  0  0  0  0  0  0  0  0  0  0  0
  1  2  1  0
  2  3  1  0
  3  4  2  3
  1  5  1  0
  5  6  1  0
  6  7  1  1
  3  8  1  0
  6  8  1  0
  4 11  1  0
 11 12  2  3
  2 13  1  6
 13 14  1  0
 14 18  2  0
 12 19  1  0
 19 20  2  3
 20 21  1  0
  7  9  2  0
  9 10  1  0
 10 15  2  0
 15 17  1  0
 17 16  2  0
 16  7  1  0
M  END
$$$$
