No_1029-complexes_sdf/6BKW-FPZ/2024-09-17-14-21-01/
     RDKit          3D

 17 18  0  0  0  0  0  0  0  0999 V2000
   -7.7129    4.2099   27.0854 C   0  0  0  0  0  0  0  0  0  0  0  0
   -8.9133    4.4736   27.0998 C   0  0  0  0  0  0  0  0  0  0  0  0
   -9.4616    5.6470   27.6290 C   0  0  0  0  0  0  0  0  0  0  0  0
   -7.2326    2.9175   26.7557 C   0  0  0  0  0  0  0  0  0  0  0  0
   -8.1546    1.9086   26.5054 C   0  0  0  0  0  0  0  0  0  0  0  0
   -9.4618    2.2289   26.4212 C   0  0  0  0  0  0  0  0  0  0  0  0
   -9.8481    3.4572   26.7692 C   0  0  0  0  0  0  0  0  0  0  0  0
   -7.6166    0.5674   26.2050 C   0  0  0  0  0  0  0  0  0  0  0  0
   -6.8837   -0.0868   27.0956 N   0  0  0  0  0  0  0  0  0  0  0  0
   -6.2388   -1.1163   27.0170 C   0  0  0  0  0  0  0  0  0  0  0  0
   -5.4203   -1.5263   28.0875 C   0  0  0  0  0  0  0  0  0  0  0  0
   -4.8111   -2.5445   28.3173 C   0  0  0  0  0  0  0  0  0  0  0  0
   -8.2120   -0.1075   25.3571 O   0  0  0  0  0  0  0  0  0  0  0  0
   -4.0464   -2.7333   29.5130 C   0  0  0  0  0  0  0  0  0  0  0  0
   -3.8686   -1.7343   30.4841 C   0  0  0  0  0  0  0  0  0  0  0  0
   -4.5325   -0.4972   30.2387 C   0  0  0  0  0  0  0  0  0  0  0  0
   -5.2505   -0.3379   29.0571 C   0  0  0  0  0  0  0  0  0  0  0  0
  2  3  1  0
  5  8  1  0
  8  9  1  0
  9 10  1  0
  8 13  2  0
 10 11  1  0
 11 12  2  0
 12 14  1  0
 14 15  2  0
 15 16  1  0
 16 17  2  0
 17 11  1  0
  1  2  2  0
  2  7  1  0
  7  6  2  0
  6  5  1  0
  5  4  2  0
  4  1  1  0
M  END
$$$$
