No_1925-complexes_sdf/6BKW-FPZ/2024-09-17-14-21-01/
     RDKit          3D

 40 43  0  0  0  0  0  0  0  0999 V2000
   -7.2496    3.8871   27.4508 C   0  0  0  0  0  0  0  0  0  0  0  0
   -7.9379    4.9063   27.8518 C   0  0  0  0  0  0  0  0  0  0  0  0
   -9.3460    4.8223   27.8695 C   0  0  0  0  0  0  0  0  0  0  0  0
   -7.8628    2.6163   27.1065 C   0  0  0  0  0  0  0  0  0  0  0  0
   -9.2787    2.5744   27.1970 C   0  0  0  0  0  0  0  0  0  0  0  0
  -10.0108    3.6770   27.6340 C   0  0  0  0  0  0  0  0  0  0  0  0
  -11.4834    3.5674   27.7432 C   0  0  0  0  0  0  0  0  0  0  0  0
  -12.3908    3.9887   27.3150 F   0  0  0  0  0  0  0  0  0  0  0  0
  -11.8178    2.6200   28.7659 F   0  0  0  0  0  0  0  0  0  0  0  0
   -7.2403    1.3897   26.8269 C   0  0  0  0  0  0  0  0  0  0  0  0
   -7.3973    0.4590   27.3576 O   0  0  0  0  0  0  0  0  0  0  0  0
   -6.5712   -0.6067   27.4781 C   0  0  0  0  0  0  0  0  0  0  0  0
   -6.7029   -1.6019   27.2340 C   0  0  0  0  0  0  0  0  0  0  0  0
   -5.2992   -0.1002   28.2587 C   0  0  0  0  0  0  0  0  0  0  0  0
   -4.9424    1.2188   28.5067 C   0  0  0  0  0  0  0  0  0  0  0  0
   -4.4442   -1.1648   28.7328 C   0  0  0  0  0  0  0  0  0  0  0  0
   -3.3487   -0.7255   29.4925 C   0  0  0  0  0  0  0  0  0  0  0  0
   -3.7426    1.5114   29.2322 C   0  0  0  0  0  0  0  0  0  0  0  0
   -2.9954    0.5443   29.7075 C   0  0  0  0  0  0  0  0  0  0  0  0
   -7.9566   -1.9495   26.7296 C   0  0  0  0  0  0  0  0  0  0  0  0
   -8.9794   -1.2937   26.8140 C   0  0  0  0  0  0  0  0  0  0  0  0
  -10.3752   -1.7371   26.2982 C   0  0  0  0  0  0  0  0  0  0  0  0
  -10.3844   -2.8477   25.7144 C   0  0  0  0  0  0  0  0  0  0  0  0
   -9.2748   -3.6374   25.5526 C   0  0  0  0  0  0  0  0  0  0  0  0
   -8.0894   -3.2600   26.0607 C   0  0  0  0  0  0  0  0  0  0  0  0
   -7.3473    6.0638   28.1189 F   0  0  0  0  0  0  0  0  0  0  0  0
   -9.4041   -4.9226   24.8152 C   0  0  0  0  0  0  0  0  0  0  0  0
   -8.8713   -5.8423   24.8698 O   0  0  0  0  0  0  0  0  0  0  0  0
  -10.5516   -4.8919   23.8722 N   0  0  0  0  0  0  0  0  0  0  0  0
  -10.7959   -6.0050   23.0986 C   0  0  0  0  0  0  0  0  0  0  0  0
  -11.7876   -5.9411   22.3494 C   0  0  0  0  0  0  0  0  0  0  0  0
  -12.1702   -7.0309   21.5890 C   0  0  0  0  0  0  0  0  0  0  0  0
  -11.3883   -8.2167   21.6304 C   0  0  0  0  0  0  0  0  0  0  0  0
  -10.3004   -8.2165   22.4734 C   0  0  0  0  0  0  0  0  0  0  0  0
   -9.9736   -7.1393   23.2563 C   0  0  0  0  0  0  0  0  0  0  0  0
   -9.5149   -9.4743   22.5260 C   0  0  0  0  0  0  0  0  0  0  0  0
   -9.7633  -10.4932   22.0172 C   0  0  0  0  0  0  0  0  0  0  0  0
   -9.0071  -11.6696   22.1176 C   0  0  0  0  0  0  0  0  0  0  0  0
   -7.8203  -11.5901   22.8773 C   0  0  0  0  0  0  0  0  0  0  0  0
   -7.4706  -10.4342   23.4864 C   0  0  0  0  0  0  0  0  0  0  0  0
  6  7  1  0
  7  8  1  0
  7  9  1  0
  4 10  1  0
 10 11  1  0
 11 12  1  0
 12 13  2  3
 12 14  1  0
 13 20  1  0
  2 26  1  0
 24 27  1  0
 27 28  2  0
 27 29  1  0
 29 30  1  0
 34 36  1  0
 36 37  2  3
 37 38  1  0
 38 39  2  3
 39 40  1  0
 14 15  2  0
 15 18  1  0
 18 19  2  0
 19 17  1  0
 17 16  2  0
 16 14  1  0
  1  2  2  0
  2  3  1  0
  3  6  2  0
  6  5  1  0
  5  4  2  0
  4  1  1  0
 30 31  2  0
 31 32  1  0
 32 33  2  0
 33 34  1  0
 34 35  2  0
 35 30  1  0
 20 21  2  0
 21 22  1  0
 22 23  2  0
 23 24  1  0
 24 25  2  0
 25 20  1  0
M  END
$$$$
