No_1184-complexes_sdf/6BKW-FPZ/2024-09-17-14-21-01/
     RDKit          3D

 16 17  0  0  0  0  0  0  0  0999 V2000
   -7.7129    4.2099   27.0854 C   0  0  0  0  0  0  0  0  0  0  0  0
   -8.9133    4.4736   27.0998 C   0  0  0  0  0  0  0  0  0  0  0  0
   -9.7937    3.7368   26.2091 C   0  0  0  0  0  0  0  0  0  0  0  0
   -7.4126    2.9835   27.2940 C   0  0  0  0  0  0  0  0  0  0  0  0
   -8.2271    1.9809   26.6470 C   0  0  0  0  0  0  0  0  0  0  0  0
   -9.4184    2.4342   26.1916 C   0  0  0  0  0  0  0  0  0  0  0  0
   -9.1592    6.3517   26.9618 P   0  0  0  0  0  0  0  0  0  0  0  0
   -8.9054    6.9383   25.7895 O   0  0  0  0  0  0  0  0  0  0  0  0
   -8.0956    6.7389   28.0560 O   0  0  0  0  0  0  0  0  0  0  0  0
  -10.4843    6.4897   27.6644 O   0  0  0  0  0  0  0  0  0  0  0  0
   -7.7675    0.5806   26.6228 C   0  0  0  0  0  0  0  0  0  0  0  0
   -8.1908   -0.1988   27.2056 C   0  0  0  0  0  0  0  0  0  0  0  0
   -7.7235   -1.6281   27.2852 C   0  0  0  0  0  0  0  0  0  0  0  0
   -6.5732   -1.8829   26.6294 C   0  0  0  0  0  0  0  0  0  0  0  0
   -5.9680   -0.9069   25.8780 C   0  0  0  0  0  0  0  0  0  0  0  0
   -6.5039    0.3818   25.8592 C   0  0  0  0  0  0  0  0  0  0  0  0
  2  7  1  0
  7  8  2  0
  7  9  1  0
  7 10  1  0
  5 11  1  0
 11 12  2  0
 12 13  1  0
 13 14  2  0
 14 15  1  0
 15 16  2  0
 16 11  1  0
  1  2  2  0
  2  3  1  0
  3  6  2  0
  6  5  1  0
  5  4  2  0
  4  1  1  0
M  END
$$$$
