No_1899-complexes_sdf/6BKW-FPZ/2024-09-17-14-21-01/
     RDKit          3D

 17 18  0  0  0  0  0  0  0  0999 V2000
   -7.7129    4.2099   27.0854 C   0  0  0  0  0  0  0  0  0  0  0  0
   -8.2112    3.0637   26.9225 C   0  0  0  0  0  0  0  0  0  0  0  0
   -7.5138    1.9223   27.4249 C   0  0  0  0  0  0  0  0  0  0  0  0
   -6.5434    4.4363   27.9024 C   0  0  0  0  0  0  0  0  0  0  0  0
   -6.2005    2.1121   27.9323 C   0  0  0  0  0  0  0  0  0  0  0  0
   -5.7560    3.3924   28.1795 C   0  0  0  0  0  0  0  0  0  0  0  0
   -8.6753    5.2573   26.7700 C   0  0  0  0  0  0  0  0  0  0  0  0
   -8.6008    6.5255   27.4096 C   0  0  0  0  0  0  0  0  0  0  0  0
   -9.4268    5.1297   25.5761 C   0  0  0  0  0  0  0  0  0  0  0  0
   -5.3940    0.9292   28.3144 C   0  0  0  0  0  0  0  0  0  0  0  0
   -4.1408    1.0416   28.8953 C   0  0  0  0  0  0  0  0  0  0  0  0
   -3.3801   -0.0698   29.2723 C   0  0  0  0  0  0  0  0  0  0  0  0
   -2.2253    0.0850   29.9988 C   0  0  0  0  0  0  0  0  0  0  0  0
   -4.1171   -1.2790   29.4541 C   0  0  0  0  0  0  0  0  0  0  0  0
   -3.4728   -2.4280   29.9090 C   0  0  0  0  0  0  0  0  0  0  0  0
   -2.2186   -2.3335   30.4578 C   0  0  0  0  0  0  0  0  0  0  0  0
   -1.5685   -1.0801   30.5141 C   0  0  0  0  0  0  0  0  0  0  0  0
  1  7  1  0
  7  8  1  0
  7  9  1  0
  5 10  1  0
 10 11  2  3
 11 12  1  0
  1  2  2  0
  2  3  1  0
  3  5  2  0
  5  6  1  0
  6  4  2  0
  4  1  1  0
 12 13  2  0
 13 17  1  0
 17 16  2  0
 16 15  1  0
 15 14  2  0
 14 12  1  0
M  END
$$$$
