No_1993-complexes_sdf/6BKW-FPZ/2024-09-17-14-21-01/
     RDKit          3D

 24 25  0  0  0  0  0  0  0  0999 V2000
   -7.7129    4.2099   27.0854 C   0  0  0  0  0  0  0  0  0  0  0  0
   -7.7814    5.1722   27.8972 C   0  0  0  0  0  0  0  0  0  0  0  0
   -8.8998    3.8713   26.3707 C   0  0  0  0  0  0  0  0  0  0  0  0
   -8.9563    2.6796   25.5490 C   0  0  0  0  0  0  0  0  0  0  0  0
   -8.8131    6.1334   27.9344 C   0  0  0  0  0  0  0  0  0  0  0  0
   -9.9804    5.8121   27.1929 C   0  0  0  0  0  0  0  0  0  0  0  0
   -9.9861    4.6836   26.4532 C   0  0  0  0  0  0  0  0  0  0  0  0
   -9.7373    1.7168   26.0677 C   0  0  0  0  0  0  0  0  0  0  0  0
  -10.6508    1.6786   26.7993 C   0  0  0  0  0  0  0  0  0  0  0  0
  -11.3251    0.4623   27.3517 C   0  0  0  0  0  0  0  0  0  0  0  0
  -10.8084   -0.7097   26.8758 C   0  0  0  0  0  0  0  0  0  0  0  0
   -9.3041    0.2665   25.6836 C   0  0  0  0  0  0  0  0  0  0  0  0
   -9.8817   -0.8169   26.0878 C   0  0  0  0  0  0  0  0  0  0  0  0
   -8.2951    0.3466   24.5457 C   0  0  0  0  0  0  0  0  0  0  0  0
   -8.7784    0.2101   23.2498 C   0  0  1  0  0  0  0  0  0  0  0  0
   -9.5531    1.1592   22.7182 C   0  0  0  0  0  0  0  0  0  0  0  0
  -10.2139    1.0868   21.7320 C   0  0  0  0  0  0  0  0  0  0  0  0
  -10.1434   -0.1792   20.9721 C   0  0  0  0  0  0  0  0  0  0  0  0
   -9.2935   -1.1634   21.3864 C   0  0  0  0  0  0  0  0  0  0  0  0
   -8.6217   -1.0319   22.6222 C   0  0  0  0  0  0  0  0  0  0  0  0
   -7.6332    0.6141   23.0581 O   0  0  0  0  0  0  0  0  0  0  0  0
   -7.8062   -2.1084   22.9592 C   0  0  0  0  0  0  0  0  0  0  0  0
   -9.4091   -1.7871   22.9435 N   0  0  0  0  0  0  0  0  0  0  0  0
  -10.0897   -2.7884   23.3972 C   0  0  0  0  0  0  0  0  0  0  0  0
  3  4  1  0
  4  8  1  0
 12 14  1  0
 14 15  1  0
 15 16  1  0
 16 17  2  3
 17 18  1  0
 18 19  2  3
 19 20  1  0
 15 21  1  6
 20 22  2  0
 20 23  1  0
 23 24  1  0
  1  2  2  0
  2  5  1  0
  5  6  2  0
  6  7  1  0
  7  3  2  0
  3  1  1  0
  8  9  2  0
  9 10  1  0
 10 11  2  0
 11 13  1  0
 13 12  2  0
 12  8  1  0
M  END
$$$$
