No_1978-complexes_sdf/6BKW-FPZ/2024-09-17-14-21-01/
     RDKit          3D

 35 39  0  0  0  0  0  0  0  0999 V2000
   -7.9040    3.9820   27.1177 C   0  0  0  0  0  0  0  0  0  0  0  0
   -8.2057    2.8231   26.8733 C   0  0  0  0  0  0  0  0  0  0  0  0
   -7.4766    1.7477   27.4593 C   0  0  0  0  0  0  0  0  0  0  0  0
   -8.7468    5.1251   26.6967 C   0  0  0  0  0  0  0  0  0  0  0  0
   -9.7234    4.8589   25.8202 C   0  0  0  0  0  0  0  0  0  0  0  0
   -9.9711    3.5858   25.4266 C   0  0  0  0  0  0  0  0  0  0  0  0
   -9.2266    2.4957   25.9600 C   0  0  0  0  0  0  0  0  0  0  0  0
   -6.6635    0.9000   26.7532 C   0  0  0  0  0  0  0  0  0  0  0  0
   -5.7321    0.1432   27.5393 C   0  0  0  0  0  0  0  0  0  0  0  0
   -4.7031    0.8881   28.1143 C   0  0  0  0  0  0  0  0  0  0  0  0
   -3.9343    0.3401   29.2266 C   0  0  0  0  0  0  0  0  0  0  0  0
   -4.0799   -0.5879   29.6804 C   0  0  0  0  0  0  0  0  0  0  0  0
   -5.0933   -1.5429   29.1317 C   0  0  0  0  0  0  0  0  0  0  0  0
   -5.9630   -1.0445   28.1430 C   0  0  0  0  0  0  0  0  0  0  0  0
   -8.4238    6.5268   27.0912 C   0  0  0  0  0  0  0  0  0  0  0  0
   -7.7610    6.8336   28.1443 N   0  0  0  0  0  0  0  0  0  0  0  0
   -8.7018    7.5093   26.3050 O   0  0  0  0  0  0  0  0  0  0  0  0
   -3.3474   -1.3400   30.7912 C   0  0  0  0  0  0  0  0  0  0  0  0
   -2.1641   -1.1574   30.9359 C   0  0  0  0  0  0  0  0  0  0  0  0
   -1.3792   -1.6531   32.0864 C   0  0  0  0  0  0  0  0  0  0  0  0
   -2.0989   -2.2613   33.1252 C   0  0  0  0  0  0  0  0  0  0  0  0
   -3.4833   -2.3596   33.0003 C   0  0  0  0  0  0  0  0  0  0  0  0
   -4.1475   -1.8317   31.9089 C   0  0  0  0  0  0  0  0  0  0  0  0
   -7.0719   -1.8576   27.6597 C   0  0  0  0  0  0  0  0  0  0  0  0
   -7.9065   -2.3501   28.5662 C   0  0  0  0  0  0  0  0  0  0  0  0
   -9.0970   -3.0539   28.1997 C   0  0  0  0  0  0  0  0  0  0  0  0
   -9.4092   -3.0425   26.8692 C   0  0  0  0  0  0  0  0  0  0  0  0
   -8.6068   -2.4176   25.9365 C   0  0  0  0  0  0  0  0  0  0  0  0
   -7.4595   -1.7495   26.3532 C   0  0  0  0  0  0  0  0  0  0  0  0
  -11.0471    3.1337   24.5508 C   0  0  0  0  0  0  0  0  0  0  0  0
  -12.2297    2.8218   24.9438 C   0  0  0  0  0  0  0  0  0  0  0  0
  -10.6246    2.8652   23.1558 C   0  0  0  0  0  0  0  0  0  0  0  0
  -11.4790    2.5964   22.1789 C   0  0  0  0  0  0  0  0  0  0  0  0
  -13.2349    2.5782   23.9232 C   0  0  0  0  0  0  0  0  0  0  0  0
  -12.8387    2.4081   22.5924 C   0  0  0  0  0  0  0  0  0  0  0  0
  2  3  1  0
  3  8  1  0
  8  9  1  0
  4 15  1  0
 15 16  1  0
 15 17  2  0
 12 18  1  0
 14 24  1  0
  6 30  1  0
 18 19  2  0
 19 20  1  0
 20 21  2  0
 21 22  1  0
 22 23  2  0
 23 18  1  0
 24 25  2  0
 25 26  1  0
 26 27  2  0
 27 28  1  0
 28 29  2  0
 29 24  1  0
  1  2  2  0
  2  7  1  0
  7  6  2  0
  6  5  1  0
  5  4  2  0
  4  1  1  0
  9 10  2  0
 10 11  1  0
 11 12  2  0
 12 13  1  0
 13 14  2  0
 14  9  1  0
 30 31  2  0
 31 34  1  0
 34 35  2  0
 35 33  1  0
 33 32  2  0
 32 30  1  0
M  END
$$$$
