No_1769-complexes_sdf/6BKW-FPZ/2024-09-17-14-21-01/
     RDKit          3D

 19 20  0  0  0  0  0  0  0  0999 V2000
   -7.7129    4.2099   27.0854 C   0  0  0  0  0  0  0  0  0  0  0  0
   -8.2112    3.0637   26.9225 C   0  0  0  0  0  0  0  0  0  0  0  0
   -8.5108    5.3904   26.9436 C   0  0  0  0  0  0  0  0  0  0  0  0
   -9.7256    5.1955   26.3518 C   0  0  0  0  0  0  0  0  0  0  0  0
   -9.4995    2.8258   26.4878 C   0  0  0  0  0  0  0  0  0  0  0  0
  -10.2542    3.9691   26.2055 C   0  0  0  0  0  0  0  0  0  0  0  0
   -7.9168    6.7086   27.1908 C   0  0  0  0  0  0  0  0  0  0  0  0
   -7.3556    1.8215   27.2519 C   0  0  0  0  0  0  0  0  0  0  0  0
   -6.1221    2.0157   27.6958 N   0  0  0  0  0  0  0  0  0  0  0  0
   -5.3776    0.8624   28.0170 C   0  0  0  0  0  0  0  0  0  0  0  0
   -5.9744   -0.3346   27.9165 C   0  0  0  0  0  0  0  0  0  0  0  0
   -7.6776    0.4576   27.2644 C   0  0  0  0  0  0  0  0  0  0  0  0
   -7.1660   -0.5378   27.6118 C   0  0  0  0  0  0  0  0  0  0  0  0
   -4.0566    1.1406   28.4461 N   0  0  0  0  0  0  0  0  0  0  0  0
   -8.5786    7.7855   26.8431 O   0  0  0  0  0  0  0  0  0  0  0  0
   -6.7814    6.8110   27.7791 O   0  0  0  0  0  0  0  0  0  0  0  0
  -11.5865    3.8145   25.5880 C   0  0  0  0  0  0  0  0  0  0  0  0
  -12.6827    3.4717   26.3884 C   0  0  0  0  0  0  0  0  0  0  0  0
  -13.9555    3.3842   25.8152 C   0  0  0  0  0  0  0  0  0  0  0  0
  3  7  1  0
  2  8  1  0
 10 14  1  0
  7 15  2  0
  7 16  1  0
  6 17  1  0
 17 18  2  3
 18 19  1  0
  1  2  2  0
  2  5  1  0
  5  6  2  0
  6  4  1  0
  4  3  2  0
  3  1  1  0
  8  9  2  0
  9 10  1  0
 10 11  2  0
 11 13  1  0
 13 12  2  0
 12  8  1  0
M  END
$$$$
