No_1145-complexes_sdf/6BKW-FPZ/2024-09-17-14-21-01/
     RDKit          3D

 13 13  0  0  0  0  0  0  0  0999 V2000
   -7.7129    4.2099   27.0854 C   0  0  0  0  0  0  0  0  0  0  0  0
   -8.9133    4.4736   27.0998 C   0  0  0  0  0  0  0  0  0  0  0  0
   -9.7135    3.9633   26.0300 C   0  0  0  0  0  0  0  0  0  0  0  0
   -7.1708    2.9509   26.6517 C   0  0  0  0  0  0  0  0  0  0  0  0
   -8.1338    2.1226   26.0347 C   0  0  0  0  0  0  0  0  0  0  0  0
   -9.3389    2.6863   25.6841 C   0  0  0  0  0  0  0  0  0  0  0  0
   -9.2342    5.8129   27.3429 F   0  0  0  0  0  0  0  0  0  0  0  0
   -7.7522    0.7690   25.6904 C   0  0  0  0  0  0  0  0  0  0  0  0
   -8.0439    0.2621   24.6371 O   0  0  0  0  0  0  0  0  0  0  0  0
   -7.1238    0.0098   26.7024 N   0  0  0  0  0  0  0  0  0  0  0  0
   -6.6848   -1.0111   26.7760 C   0  0  0  0  0  0  0  0  0  0  0  0
   -5.6437   -1.4339   26.6590 C   0  0  0  0  0  0  0  0  0  0  0  0
   -5.1278   -2.8126   26.7928 C   0  0  0  0  0  0  0  0  0  0  0  0
  2  7  1  0
  5  8  1  0
  8  9  2  0
  8 10  1  0
 10 11  1  0
 11 12  2  3
 12 13  1  0
  1  2  2  0
  2  3  1  0
  3  6  2  0
  6  5  1  0
  5  4  2  0
  4  1  1  0
M  END
$$$$
