No_1027-complexes_sdf/6BKW-FPZ/2024-09-17-14-21-01/
     RDKit          3D

 21 23  0  0  0  0  0  0  0  0999 V2000
   -7.9040    3.9820   27.1177 C   0  0  0  0  0  0  0  0  0  0  0  0
   -7.8663    4.8694   27.9238 C   0  0  0  0  0  0  0  0  0  0  0  0
   -9.0501    3.8017   26.2617 C   0  0  0  0  0  0  0  0  0  0  0  0
   -9.1826    2.7026   25.3575 C   0  0  0  0  0  0  0  0  0  0  0  0
   -8.6940    6.0131   27.8614 C   0  0  0  0  0  0  0  0  0  0  0  0
   -9.9755    4.8547   26.2361 C   0  0  0  0  0  0  0  0  0  0  0  0
   -9.7463    5.9398   27.0364 C   0  0  0  0  0  0  0  0  0  0  0  0
  -10.1245    1.8871   25.7330 C   0  0  0  0  0  0  0  0  0  0  0  0
  -10.1275    0.7205   25.0793 C   0  0  0  0  0  0  0  0  0  0  0  0
   -9.7225    0.6319   24.0269 C   0  0  0  0  0  0  0  0  0  0  0  0
   -8.9236    1.6259   23.3136 C   0  0  0  0  0  0  0  0  0  0  0  0
   -8.6257    2.6989   24.1099 C   0  0  0  0  0  0  0  0  0  0  0  0
   -7.1677    2.8119   27.1030 N   0  0  0  0  0  0  0  0  0  0  0  0
   -6.4041    2.0712   27.8949 C   0  0  0  0  0  0  0  0  0  0  0  0
   -5.7970    0.8576   27.4414 C   0  0  0  0  0  0  0  0  0  0  0  0
   -6.4527    0.0229   26.5980 C   0  0  0  0  0  0  0  0  0  0  0  0
   -5.9000   -1.1525   26.1473 C   0  0  0  0  0  0  0  0  0  0  0  0
   -4.5962   -1.4827   26.5719 C   0  0  0  0  0  0  0  0  0  0  0  0
   -3.8756   -0.6616   27.4420 C   0  0  0  0  0  0  0  0  0  0  0  0
   -4.4318    0.5454   27.8896 C   0  0  0  0  0  0  0  0  0  0  0  0
   -3.7799    1.3180   28.7352 O   0  0  0  0  0  0  0  0  0  0  0  0
  3  4  1  0
  1 13  1  0
 13 14  1  0
 20 21  1  0
 14 15  1  0
  4  8  2  0
  8  9  1  0
  9 10  2  0
 10 11  1  0
 11 12  2  0
 12  4  1  0
 15 16  2  0
 16 17  1  0
 17 18  2  0
 18 19  1  0
 19 20  2  0
 20 15  1  0
  1  2  2  0
  2  5  1  0
  5  7  2  0
  7  6  1  0
  6  3  2  0
  3  1  1  0
M  END
$$$$
