No_1342-complexes_sdf/6BKW-FPZ/2024-09-17-14-21-01/
     RDKit          3D

 22 24  0  0  0  0  0  0  0  0999 V2000
   -7.9040    3.9820   27.1177 C   0  0  0  0  0  0  0  0  0  0  0  0
   -8.2057    2.8231   26.8733 C   0  0  0  0  0  0  0  0  0  0  0  0
   -8.7695    5.0740   26.7916 C   0  0  0  0  0  0  0  0  0  0  0  0
   -9.9618    4.7598   26.1630 C   0  0  0  0  0  0  0  0  0  0  0  0
   -9.4200    2.4524   26.2849 C   0  0  0  0  0  0  0  0  0  0  0  0
  -10.2590    3.4815   25.9250 C   0  0  0  0  0  0  0  0  0  0  0  0
   -8.4259    6.3307   27.0704 F   0  0  0  0  0  0  0  0  0  0  0  0
   -7.3443    1.7757   27.2775 F   0  0  0  0  0  0  0  0  0  0  0  0
  -11.5512    3.1733   25.2021 C   0  0  0  0  0  0  0  0  0  0  0  0
  -11.6232    2.0295   24.4909 C   0  0  0  0  0  0  0  0  0  0  0  0
  -11.3861    1.9741   23.4655 C   0  0  0  0  0  0  0  0  0  0  0  0
  -11.3642    0.6863   22.5996 C   0  0  0  0  0  0  0  0  0  0  0  0
  -11.6542   -0.4482   23.2538 C   0  0  0  0  0  0  0  0  0  0  0  0
  -11.9524   -0.3815   24.5649 C   0  0  0  0  0  0  0  0  0  0  0  0
  -11.8963    0.8069   25.2794 C   0  0  0  0  0  0  0  0  0  0  0  0
  -12.6636    3.3104   26.2567 C   0  0  0  0  0  0  0  0  0  0  0  0
  -11.7588    4.3813   24.1669 C   0  0  0  0  0  0  0  0  0  0  0  0
  -12.4040    3.5352   27.5455 C   0  0  0  0  0  0  0  0  0  0  0  0
  -13.5258    3.7622   28.5055 C   0  0  0  0  0  0  0  0  0  0  0  0
  -13.8752    3.9526   25.8047 C   0  0  0  0  0  0  0  0  0  0  0  0
  -14.7939    3.9297   26.6555 C   0  0  0  0  0  0  0  0  0  0  0  0
  -14.6914    4.0833   28.0437 C   0  0  0  0  0  0  0  0  0  0  0  0
  3  7  1  0
  2  8  1  0
  6  9  1  0
  9 10  1  0
  9 16  1  0
  9 17  1  0
 16 18  2  0
 18 19  1  0
 19 22  2  0
 22 21  1  0
 21 20  2  0
 20 16  1  0
  1  2  2  0
  2  5  1  0
  5  6  2  0
  6  4  1  0
  4  3  2  0
  3  1  1  0
 10 11  2  0
 11 12  1  0
 12 13  2  0
 13 14  1  0
 14 15  2  0
 15 10  1  0
M  END
$$$$
