No_175-complexes_sdf/6BKW-FPZ/2024-09-17-14-21-01/
     RDKit          3D

 17 19  0  0  0  0  0  0  0  0999 V2000
   -7.9040    3.9820   27.1177 C   0  0  0  0  0  0  0  0  0  0  0  0
   -7.8663    4.8694   27.9238 C   0  0  0  0  0  0  0  0  0  0  0  0
   -9.0491    3.8523   26.2542 C   0  0  0  0  0  0  0  0  0  0  0  0
   -8.7661    5.9491   27.9690 C   0  0  0  0  0  0  0  0  0  0  0  0
   -9.9279    4.8544   26.1938 C   0  0  0  0  0  0  0  0  0  0  0  0
   -9.8044    5.9413   27.0782 C   0  0  0  0  0  0  0  0  0  0  0  0
   -9.0655    2.7040   25.3098 C   0  0  0  0  0  0  0  0  0  0  0  0
  -10.0571    2.7131   24.3249 C   0  0  0  0  0  0  0  0  0  0  0  0
  -10.8712    3.8836   24.2023 C   0  0  0  0  0  0  0  0  0  0  0  0
  -10.8771    4.8333   25.1263 C   0  0  0  0  0  0  0  0  0  0  0  0
  -11.8985    3.8176   23.1360 C   0  0  0  0  0  0  0  0  0  0  0  0
  -12.4914    2.9305   23.0971 C   0  0  0  0  0  0  0  0  0  0  0  0
  -13.5423    2.7998   22.4301 C   0  0  0  0  0  0  0  0  0  0  0  0
  -13.9017    3.8956   21.5157 C   0  0  0  0  0  0  0  0  0  0  0  0
  -13.1408    5.0311   21.5481 C   0  0  0  0  0  0  0  0  0  0  0  0
  -12.1179    5.1140   22.4588 C   0  0  0  0  0  0  0  0  0  0  0  0
   -6.7414    2.6724   27.2503 Cl  0  0  0  0  0  0  0  0  0  0  0  0
  9 11  1  0
  1 17  1  0
 11 12  2  0
 12 13  1  0
 13 14  2  0
 14 15  1  0
 15 16  2  0
 16 11  1  0
  5 10  2  0
 10  9  1  0
  9  8  2  0
  8  7  1  0
  7  3  2  0
  1  2  2  0
  2  4  1  0
  4  6  2  0
  6  5  1  0
  5  3  1  0
  3  1  1  0
M  END
$$$$
