No_1385-complexes_sdf/6BKW-FPZ/2024-09-17-14-21-01/
     RDKit          3D

 26 28  0  0  0  0  0  0  0  0999 V2000
   -7.2496    3.8871   27.4508 C   0  0  0  0  0  0  0  0  0  0  0  0
   -7.6161    2.7143   27.1523 C   0  0  0  0  0  0  0  0  0  0  0  0
   -7.1619    1.8631   27.5232 C   0  0  0  0  0  0  0  0  0  0  0  0
   -8.0036    5.1085   27.2100 C   0  0  0  0  0  0  0  0  0  0  0  0
   -9.0764    5.1562   26.4023 C   0  0  0  0  0  0  0  0  0  0  0  0
   -9.5423    3.9741   25.8512 C   0  0  0  0  0  0  0  0  0  0  0  0
   -8.8464    2.7352   26.2619 C   0  0  0  0  0  0  0  0  0  0  0  0
   -7.5746    0.4315   27.2994 C   0  0  0  0  0  0  0  0  0  0  0  0
   -6.8079   -0.6627   27.7034 C   0  0  0  0  0  0  0  0  0  0  0  0
   -5.5770   -0.3932   28.3023 C   0  0  0  0  0  0  0  0  0  0  0  0
   -5.0306    0.8695   28.4220 C   0  0  0  0  0  0  0  0  0  0  0  0
   -5.7083    1.8958   28.0593 C   0  0  0  0  0  0  0  0  0  0  0  0
   -7.3872    6.6197   27.9679 Cl  0  0  0  0  0  0  0  0  0  0  0  0
   -4.6434   -1.4848   28.8244 C   0  0  0  0  0  0  0  0  0  0  0  0
   -4.8349   -2.4789   29.0419 O   0  0  0  0  0  0  0  0  0  0  0  0
   -3.2738   -1.1390   28.8307 O   0  0  0  0  0  0  0  0  0  0  0  0
  -10.6071    3.9571   24.9342 C   0  0  0  0  0  0  0  0  0  0  0  0
  -11.8642    3.7190   25.3661 C   0  0  0  0  0  0  0  0  0  0  0  0
  -12.9679    3.7384   24.5107 C   0  0  0  0  0  0  0  0  0  0  0  0
  -10.5855    4.6349   23.7356 C   0  0  0  0  0  0  0  0  0  0  0  0
  -11.5466    4.8294   22.8322 C   0  0  0  0  0  0  0  0  0  0  0  0
  -12.7879    4.3965   23.2696 C   0  0  0  0  0  0  0  0  0  0  0  0
  -13.9171    4.5752   22.3172 C   0  0  0  0  0  0  0  0  0  0  0  0
  -14.8454    3.6340   22.2464 C   0  0  0  0  0  0  0  0  0  0  0  0
  -14.9216    2.6100   22.6636 C   0  0  0  0  0  0  0  0  0  0  0  0
  -14.5527    2.1242   24.0418 C   0  0  0  0  0  0  0  0  0  0  0  0
  4 13  1  0
 10 14  1  0
 14 15  2  0
 14 16  1  0
  6 17  1  0
 22 23  1  0
 23 24  1  0
 24 25  2  3
 25 26  1  0
  3  2  1  0
  3  8  2  0
  8  9  1  0
  9 10  2  0
 10 11  1  0
 11 12  2  0
 12  3  1  0
 17 18  2  0
 18 19  1  0
 19 22  2  0
 22 21  1  0
 21 20  2  0
 20 17  1  0
  1  2  2  0
  2  7  1  0
  7  6  2  0
  6  5  1  0
  5  4  2  0
  4  1  1  0
M  END
$$$$
