No_1351-complexes_sdf/6BKW-FPZ/2024-09-17-14-21-01/
     RDKit          3D

 11 10  0  0  0  0  0  0  0  0999 V2000
   -7.2496    3.8871   27.4508 C   0  0  0  0  0  0  0  0  0  0  0  0
   -7.9379    4.9063   27.8518 C   0  0  0  0  0  0  0  0  0  0  0  0
   -7.4895    6.2027   27.7481 C   0  0  0  0  0  0  0  0  0  0  0  0
   -7.8057    2.6324   27.3137 C   0  0  1  0  0  0  0  0  0  0  0  0
   -7.1675    1.4766   26.8108 C   0  0  0  0  0  0  0  0  0  0  0  0
   -9.1411    2.4041   27.8091 C   0  0  0  0  0  0  0  0  0  0  0  0
  -10.0085    3.0333   27.2291 C   0  0  0  0  0  0  0  0  0  0  0  0
  -10.3245    4.4978   27.7410 C   0  0  0  0  0  0  0  0  0  0  0  0
   -9.3611    4.9121   28.1055 C   0  0  0  0  0  0  0  0  0  0  0  0
   -9.6717    6.4340   27.9270 O   0  0  0  0  0  0  0  0  0  0  0  0
   -7.7394    5.7381   28.7565 O   0  0  0  0  0  0  0  0  0  0  0  0
  1  2  2  3
  2  3  1  0
  1  4  1  0
  4  5  1  1
  4  6  1  0
  6  7  2  3
  7  8  1  0
  8  9  1  0
  9 10  1  0
  3 11  1  0
M  END
$$$$
