No_1406-complexes_sdf/6BKW-FPZ/2024-09-17-14-21-01/
     RDKit          3D

 13 14  0  0  0  0  0  0  0  0999 V2000
   -7.7129    4.2099   27.0854 C   0  0  0  0  0  0  0  0  0  0  0  0
   -7.7814    5.1722   27.8972 C   0  0  0  0  0  0  0  0  0  0  0  0
   -8.8776    3.8408   26.3416 C   0  0  0  0  0  0  0  0  0  0  0  0
   -8.9136    2.6330   25.5655 C   0  0  0  0  0  0  0  0  0  0  0  0
   -8.8361    6.1389   27.9032 C   0  0  0  0  0  0  0  0  0  0  0  0
   -9.8295    4.8219   26.2725 C   0  0  0  0  0  0  0  0  0  0  0  0
   -9.8494    5.9177   27.0428 C   0  0  0  0  0  0  0  0  0  0  0  0
   -8.3148    1.4845   26.2128 C   0  0  0  0  0  0  0  0  0  0  0  0
   -9.0061    0.5729   26.5490 C   0  0  0  0  0  0  0  0  0  0  0  0
   -8.4561   -0.5785   27.3288 C   0  0  0  0  0  0  0  0  0  0  0  0
   -7.1252   -0.5150   27.7129 C   0  0  0  0  0  0  0  0  0  0  0  0
   -6.3669    0.6100   27.3466 C   0  0  0  0  0  0  0  0  0  0  0  0
   -6.9294    1.6467   26.6845 C   0  0  0  0  0  0  0  0  0  0  0  0
  3  4  1  0
  4  8  1  0
  8  9  2  0
  9 10  1  0
 10 11  2  0
 11 12  1  0
 12 13  2  0
 13  8  1  0
  1  2  2  0
  2  5  1  0
  5  7  2  0
  7  6  1  0
  6  3  2  0
  3  1  1  0
M  END
$$$$
