No_1908-complexes_sdf/6BKW-FPZ/2024-09-17-14-21-01/
     RDKit          3D

 16 17  0  0  0  0  0  0  0  0999 V2000
   -7.7129    4.2099   27.0854 C   0  0  0  0  0  0  0  0  0  0  0  0
   -8.9133    4.4736   27.0998 C   0  0  0  0  0  0  0  0  0  0  0  0
   -9.4643    5.5426   27.7628 C   0  0  0  0  0  0  0  0  0  0  0  0
   -6.8373    4.9942   27.9785 C   0  0  0  0  0  0  0  0  0  0  0  0
   -7.3932    6.0303   28.6784 C   0  0  0  0  0  0  0  0  0  0  0  0
   -8.7122    6.3429   28.5485 C   0  0  0  0  0  0  0  0  0  0  0  0
   -9.7912    3.6118   26.1875 C   0  0  0  0  0  0  0  0  0  0  0  0
  -10.0672    4.0596   24.9993 N   0  0  0  0  0  0  0  0  0  0  0  0
  -10.6407    3.3840   23.9995 C   0  0  0  0  0  0  0  0  0  0  0  0
  -10.8935    2.0844   24.2325 C   0  0  0  0  0  0  0  0  0  0  0  0
  -10.2874    2.4319   26.5504 C   0  0  0  0  0  0  0  0  0  0  0  0
   -9.9955    1.8988   27.9351 C   0  0  0  0  0  0  0  0  0  0  0  0
  -10.8043    1.5760   25.5379 C   0  0  0  0  0  0  0  0  0  0  0  0
  -10.7512    4.0724   22.7061 C   0  0  0  0  0  0  0  0  0  0  0  0
  -10.4961    3.5031   21.5048 C   0  0  0  0  0  0  0  0  0  0  0  0
  -10.7216    4.2870   20.3316 C   0  0  0  0  0  0  0  0  0  0  0  0
  2  7  1  0
 11 12  1  0
  9 14  1  0
 14 15  2  3
 15 16  1  0
  1  2  2  0
  2  3  1  0
  3  6  2  0
  6  5  1  0
  5  4  2  0
  4  1  1  0
  7  8  2  0
  8  9  1  0
  9 10  2  0
 10 13  1  0
 13 11  2  0
 11  7  1  0
M  END
$$$$
