No_1208-complexes_sdf/6BKW-FPZ/2024-09-17-14-21-01/
     RDKit          3D

 19 21  0  0  0  0  0  0  0  0999 V2000
   -7.2496    3.8871   27.4508 C   0  0  0  0  0  0  0  0  0  0  0  0
   -7.6161    2.7143   27.1523 C   0  0  0  0  0  0  0  0  0  0  0  0
   -8.6212    2.2239   26.4073 C   0  0  0  0  0  0  0  0  0  0  0  0
   -8.2540    4.9237   27.1711 C   0  0  0  0  0  0  0  0  0  0  0  0
   -9.3709    4.6018   26.4511 C   0  0  0  0  0  0  0  0  0  0  0  0
   -9.5922    3.3274   26.0949 C   0  0  0  0  0  0  0  0  0  0  0  0
   -7.9165    6.3279   27.5749 C   0  0  0  0  0  0  0  0  0  0  0  0
  -10.7700    2.9798   25.2771 C   0  0  0  0  0  0  0  0  0  0  0  0
  -10.7768    3.4781   24.0130 C   0  0  0  0  0  0  0  0  0  0  0  0
  -11.6461    3.2405   23.0111 C   0  0  0  0  0  0  0  0  0  0  0  0
  -12.0399    3.4423   25.9398 C   0  0  0  0  0  0  0  0  0  0  0  0
  -13.2694    3.1812   25.1724 C   0  0  0  0  0  0  0  0  0  0  0  0
  -13.1472    3.7232   23.7235 C   0  0  0  0  0  0  0  0  0  0  0  0
  -10.9061    1.4256   25.1004 C   0  0  2  0  0  0  0  0  0  0  0  0
  -10.6080    0.6196   26.0342 C   0  0  0  0  0  0  0  0  0  0  0  0
   -9.0684    0.8855   26.4545 C   0  0  0  0  0  0  0  0  0  0  0  0
  -10.0339    0.9268   23.9481 C   0  0  0  0  0  0  0  0  0  0  0  0
   -8.8842    0.8054   23.8340 C   0  0  0  0  0  0  0  0  0  0  0  0
   -8.1807    0.2573   22.6599 C   0  0  0  0  0  0  0  0  0  0  0  0
  4  7  1  0
  6  8  1  0
  8  9  1  0
  8 11  1  0
 11 12  1  0
 10 13  1  0
 12 13  1  0
  8 14  1  0
  3 16  1  0
 15 16  1  0
 14 17  1  0
 17 18  2  3
 18 19  1  0
 14 15  1  1
  9 10  1  0
  1  2  2  0
  2  3  1  0
  3  6  2  0
  6  5  1  0
  5  4  2  0
  4  1  1  0
M  END
$$$$
