No_1338-complexes_sdf/6BKW-FPZ/2024-09-17-14-21-01/
     RDKit          3D

 26 29  0  0  0  0  0  0  0  0999 V2000
   -7.7129    4.2099   27.0854 C   0  0  0  0  0  0  0  0  0  0  0  0
   -8.2112    3.0637   26.9225 C   0  0  0  0  0  0  0  0  0  0  0  0
   -7.5138    1.9223   27.4249 C   0  0  0  0  0  0  0  0  0  0  0  0
   -8.5309    5.4147   26.8151 C   0  0  0  0  0  0  0  0  0  0  0  0
   -9.6817    5.2393   26.1100 C   0  0  0  0  0  0  0  0  0  0  0  0
  -10.1032    3.9957   25.8534 C   0  0  0  0  0  0  0  0  0  0  0  0
   -9.4034    2.8430   26.2573 C   0  0  0  0  0  0  0  0  0  0  0  0
   -6.2458    1.9913   27.8654 N   0  0  0  0  0  0  0  0  0  0  0  0
   -5.5403    0.8423   28.2178 C   0  0  0  0  0  0  0  0  0  0  0  0
   -6.1455   -0.3395   28.0824 C   0  0  0  0  0  0  0  0  0  0  0  0
   -7.7844    0.5174   27.2372 C   0  0  0  0  0  0  0  0  0  0  0  0
   -5.3714   -1.4951   28.5400 C   0  0  0  0  0  0  0  0  0  0  0  0
   -7.3248   -0.4775   27.6090 C   0  0  0  0  0  0  0  0  0  0  0  0
   -7.9803    6.7640   27.1069 C   0  0  0  0  0  0  0  0  0  0  0  0
   -7.0460    6.8248   27.9212 O   0  0  0  0  0  0  0  0  0  0  0  0
   -8.4905    7.8281   26.6587 O   0  0  0  0  0  0  0  0  0  0  0  0
   -5.5094   -2.4836   28.7596 C   0  0  0  0  0  0  0  0  0  0  0  0
   -4.6374   -3.5689   29.2359 C   0  0  0  0  0  0  0  0  0  0  0  0
   -3.3213   -3.2026   29.4590 C   0  0  0  0  0  0  0  0  0  0  0  0
   -3.8358   -0.9958   28.8577 C   0  0  0  0  0  0  0  0  0  0  0  0
   -2.9231   -1.9063   29.2787 C   0  0  0  0  0  0  0  0  0  0  0  0
   -3.4420    0.4050   28.6832 C   0  0  0  0  0  0  0  0  0  0  0  0
   -4.2472    1.2475   28.4592 N   0  0  0  0  0  0  0  0  0  0  0  0
  -11.3571    3.8274   25.0644 C   0  0  0  0  0  0  0  0  0  0  0  0
  -12.5379    3.5264   25.6824 C   0  0  0  0  0  0  0  0  0  0  0  0
  -13.7181    3.4171   24.9606 C   0  0  0  0  0  0  0  0  0  0  0  0
  2  3  1  0
 10 12  1  0
  4 14  1  0
 14 15  1  0
 14 16  2  0
 20 22  1  0
  9 23  1  0
 22 23  1  0
  6 24  1  0
 24 25  2  3
 25 26  1  0
  1  2  2  0
  2  7  1  0
  7  6  2  0
  6  5  1  0
  5  4  2  0
  4  1  1  0
 12 17  2  0
 17 18  1  0
 18 19  2  0
 19 21  1  0
 21 20  2  0
 20 12  1  0
  3  8  2  0
  8  9  1  0
  9 10  2  0
 10 13  1  0
 13 11  2  0
 11  3  1  0
M  END
$$$$
