No_1062-complexes_sdf/6BKW-FPZ/2024-09-17-14-21-01/
     RDKit          3D

 35 37  0  0  0  0  0  0  0  0999 V2000
   -7.2496    3.8871   27.4508 C   0  0  0  0  0  0  0  0  0  0  0  0
   -7.9379    4.9063   27.8518 C   0  0  1  0  0  0  0  0  0  0  0  0
   -7.5112    6.1898   27.6280 C   0  0  0  0  0  0  0  0  0  0  0  0
   -9.3085    4.6933   28.2930 C   0  0  0  0  0  0  0  0  0  0  0  0
   -6.9422    2.7756   27.7940 C   0  0  0  0  0  0  0  0  0  0  0  0
   -6.0492    1.8083   27.3008 C   0  0  0  0  0  0  0  0  0  0  0  0
   -5.6907    0.6835   28.0890 C   0  0  1  0  0  0  0  0  0  0  0  0
   -6.3175   -0.5995   27.9771 C   0  0  0  0  0  0  0  0  0  0  0  0
   -7.3835   -0.7107   27.1315 C   0  0  0  0  0  0  0  0  0  0  0  0
   -8.1866   -1.8387   27.1714 C   0  0  0  0  0  0  0  0  0  0  0  0
   -7.8552   -2.8160   28.1068 C   0  0  0  0  0  0  0  0  0  0  0  0
   -6.8319   -2.7166   29.0015 C   0  0  0  0  0  0  0  0  0  0  0  0
   -6.0514   -1.5324   29.0362 C   0  0  0  0  0  0  0  0  0  0  0  0
   -4.3961    0.7622   28.8927 C   0  0  0  0  0  0  0  0  0  0  0  0
   -4.2712    0.3456   30.0773 O   0  0  0  0  0  0  0  0  0  0  0  0
   -3.2939    1.1793   28.2404 O   0  0  0  0  0  0  0  0  0  0  0  0
  -10.4286    5.2916   27.5922 C   0  0  0  0  0  0  0  0  0  0  0  0
   -7.9851    6.8377   26.5123 F   0  0  0  0  0  0  0  0  0  0  0  0
  -11.7135    4.7449   27.7911 C   0  0  0  0  0  0  0  0  0  0  0  0
  -12.7713    5.1521   27.1179 C   0  0  0  0  0  0  0  0  0  0  0  0
  -14.0488    4.6341   27.4460 C   0  0  0  0  0  0  0  0  0  0  0  0
  -14.1647    3.7083   28.4350 C   0  0  0  0  0  0  0  0  0  0  0  0
  -13.0801    3.2336   29.1108 C   0  0  0  0  0  0  0  0  0  0  0  0
  -11.8048    3.7537   28.8616 C   0  0  0  0  0  0  0  0  0  0  0  0
  -13.2365    2.1545   30.1869 C   0  0  0  0  0  0  0  0  0  0  0  0
  -13.9758    2.5183   31.2445 C   0  0  0  0  0  0  0  0  0  0  0  0
  -14.4609    1.4900   32.0961 C   0  0  0  0  0  0  0  0  0  0  0  0
  -14.9411    1.8150   33.3563 C   0  0  0  0  0  0  0  0  0  0  0  0
  -15.0913    3.1690   33.7726 C   0  0  0  0  0  0  0  0  0  0  0  0
  -14.6293    4.1974   32.9104 C   0  0  0  0  0  0  0  0  0  0  0  0
  -14.0081    3.9096   31.7523 C   0  0  0  0  0  0  0  0  0  0  0  0
  -12.8515    1.0489   29.8320 O   0  0  0  0  0  0  0  0  0  0  0  0
  -15.1861    5.2058   26.6947 C   0  0  0  0  0  0  0  0  0  0  0  0
  -16.0457    6.0739   27.2406 C   0  0  0  0  0  0  0  0  0  0  0  0
  -17.1217    6.6041   26.4720 C   0  0  0  0  0  0  0  0  0  0  0  0
  1  2  1  0
  2  3  1  6
  2  4  1  0
  1  5  2  3
  5  6  1  0
  7  6  1  6
  7 14  1  0
 14 15  2  0
 14 16  1  0
  4 17  1  0
  3 18  1  0
 17 19  1  0
 23 25  1  0
 25 26  1  0
 25 32  2  0
 21 33  1  0
 33 34  2  3
 34 35  1  0
  7  8  1  0
 26 27  2  0
 27 28  1  0
 28 29  2  0
 29 30  1  0
 30 31  2  0
 31 26  1  0
  8  9  2  0
  9 10  1  0
 10 11  2  0
 11 12  1  0
 12 13  2  0
 13  8  1  0
 19 20  2  0
 20 21  1  0
 21 22  2  0
 22 23  1  0
 23 24  2  0
 24 19  1  0
M  END
$$$$
