No_1653-complexes_sdf/6BKW-FPZ/2024-09-17-14-21-01/
     RDKit          3D

 24 25  0  0  0  0  0  0  0  0999 V2000
   -7.9040    3.9820   27.1177 C   0  0  0  0  0  0  0  0  0  0  0  0
   -8.2057    2.8231   26.8733 C   0  0  0  0  0  0  0  0  0  0  0  0
   -9.2962    2.4021   26.1155 C   0  0  0  0  0  0  0  0  0  0  0  0
   -8.7358    5.0662   26.5917 C   0  0  0  0  0  0  0  0  0  0  0  0
   -9.7618    4.7023   25.7546 C   0  0  0  0  0  0  0  0  0  0  0  0
  -10.0066    3.4105   25.4922 C   0  0  0  0  0  0  0  0  0  0  0  0
   -8.3943    6.4760   26.8801 C   0  0  0  0  0  0  0  0  0  0  0  0
   -8.0394    6.8605   28.0789 N   0  0  0  0  0  0  0  0  0  0  0  0
   -8.5968    7.4035   25.9607 N   0  0  0  0  0  0  0  0  0  0  0  0
   -7.4142    1.7505   27.4433 N   0  0  0  0  0  0  0  0  0  0  0  0
   -7.6719    0.4288   27.3798 C   0  0  0  0  0  0  0  0  0  0  0  0
   -6.6329   -0.4311   27.8080 C   0  0  0  0  0  0  0  0  0  0  0  0
   -5.4177    0.1387   28.2364 C   0  0  0  0  0  0  0  0  0  0  0  0
   -5.2150    1.5310   28.1453 C   0  0  0  0  0  0  0  0  0  0  0  0
   -6.0844    2.3049   27.6493 C   0  0  0  0  0  0  0  0  0  0  0  0
   -4.3743   -0.8017   28.7588 C   0  0  1  0  0  0  0  0  0  0  0  0
   -2.9511   -0.5135   28.9522 Cl  0  0  0  0  0  0  0  0  0  0  0  0
   -4.8390   -2.0789   29.3099 C   0  0  0  0  0  0  0  0  0  0  0  0
   -4.5529   -2.4605   30.2971 C   0  0  0  0  0  0  0  0  0  0  0  0
   -4.6835   -2.8567   31.3158 C   0  0  0  0  0  0  0  0  0  0  0  0
   -4.5604   -3.1103   32.6596 C   0  0  0  0  0  0  0  0  0  0  0  0
   -4.3100   -2.9488   33.7968 C   0  0  0  0  0  0  0  0  0  0  0  0
   -3.7593   -1.8890   34.5060 C   0  0  0  0  0  0  0  0  0  0  0  0
   -3.0575   -1.5798   35.1573 C   0  0  0  0  0  0  0  0  0  0  0  0
  4  7  1  0
  7  8  2  0
  7  9  1  0
  2 10  1  0
 10 11  1  0
 11 12  1  0
 13 14  1  0
 10 15  1  0
 13 16  1  0
 16 17  1  1
 16 18  1  0
 18 19  2  3
 19 20  1  0
 20 21  2  3
 21 22  1  0
 22 23  1  0
 23 24  3  0
 12 13  1  0
 14 15  1  0
  1  2  2  0
  2  3  1  0
  3  6  2  0
  6  5  1  0
  5  4  2  0
  4  1  1  0
M  END
$$$$
