No_1360-complexes_sdf/6BKW-FPZ/2024-09-17-14-21-01/
     RDKit          3D

 31 34  0  0  0  0  0  0  0  0999 V2000
   -7.9040    3.9820   27.1177 C   0  0  0  0  0  0  0  0  0  0  0  0
   -7.8663    4.8694   27.9238 C   0  0  0  0  0  0  0  0  0  0  0  0
   -9.0806    3.1428   27.1220 C   0  0  0  0  0  0  0  0  0  0  0  0
   -8.9544    1.8782   26.5467 C   0  0  0  0  0  0  0  0  0  0  0  0
   -8.5076    6.0545   27.5968 C   0  0  0  0  0  0  0  0  0  0  0  0
   -9.9663    1.1418   26.2860 C   0  0  0  0  0  0  0  0  0  0  0  0
   -9.9346    5.8082   27.2945 C   0  0  0  0  0  0  0  0  0  0  0  0
  -10.2711    4.0209   27.0447 C   0  0  0  0  0  0  0  0  0  0  0  0
   -9.8199   -0.2243   25.8379 C   0  0  0  0  0  0  0  0  0  0  0  0
   -8.5475   -0.7183   25.7408 C   0  0  0  0  0  0  0  0  0  0  0  0
   -7.4533    0.0069   26.0655 C   0  0  0  0  0  0  0  0  0  0  0  0
   -7.5941    1.3326   26.5521 C   0  0  0  0  0  0  0  0  0  0  0  0
  -11.5739    3.6737   27.0592 C   0  0  0  0  0  0  0  0  0  0  0  0
  -11.9738    2.7032   27.5434 C   0  0  0  0  0  0  0  0  0  0  0  0
  -13.3559    2.2791   27.7626 C   0  0  0  0  0  0  0  0  0  0  0  0
  -14.2772    3.1609   27.2848 C   0  0  0  0  0  0  0  0  0  0  0  0
  -13.9017    4.3533   26.6815 C   0  0  0  0  0  0  0  0  0  0  0  0
  -12.5787    4.6704   26.5979 C   0  0  0  0  0  0  0  0  0  0  0  0
  -11.0024   -1.0063   25.5381 C   0  0  0  0  0  0  0  0  0  0  0  0
  -11.9399   -0.3669   24.7652 C   0  0  0  0  0  0  0  0  0  0  0  0
  -13.2475   -0.5317   25.0823 C   0  0  0  0  0  0  0  0  0  0  0  0
  -11.6121    0.4201   23.6594 C   0  0  0  0  0  0  0  0  0  0  0  0
  -12.6141    1.0122   22.8756 C   0  0  0  0  0  0  0  0  0  0  0  0
  -14.2861    0.0602   24.2929 C   0  0  0  0  0  0  0  0  0  0  0  0
  -13.9149    0.8313   23.2108 C   0  0  0  0  0  0  0  0  0  0  0  0
  -15.0743    1.4627   22.5881 C   0  0  0  0  0  0  0  0  0  0  0  0
  -16.1396    1.2683   22.6864 O   0  0  0  0  0  0  0  0  0  0  0  0
  -14.7572    2.6997   21.9939 O   0  0  0  0  0  0  0  0  0  0  0  0
  -11.0931   -2.3067   25.9860 C   0  0  0  0  0  0  0  0  0  0  0  0
  -11.2966   -3.3115   25.0629 C   0  0  0  0  0  0  0  0  0  0  0  0
  -11.4401   -4.6137   25.5298 C   0  0  0  0  0  0  0  0  0  0  0  0
  3  4  1  0
  8 13  1  0
  9 19  1  0
 19 20  1  0
 25 26  1  0
 26 27  2  0
 26 28  1  0
 19 29  1  0
 29 30  2  3
 30 31  1  0
 13 14  2  0
 14 15  1  0
 15 16  2  0
 16 17  1  0
 17 18  2  0
 18 13  1  0
 20 21  2  0
 21 24  1  0
 24 25  2  0
 25 23  1  0
 23 22  2  0
 22 20  1  0
  1  2  2  0
  2  5  1  0
  5  7  2  0
  7  8  1  0
  8  3  2  0
  3  1  1  0
  4  6  2  0
  6  9  1  0
  9 10  2  0
 10 11  1  0
 11 12  2  0
 12  4  1  0
M  END
$$$$
