No_1471-complexes_sdf/6BKW-FPZ/2024-09-17-14-21-01/
     RDKit          3D

 18 19  0  0  0  0  0  0  0  0999 V2000
   -7.7129    4.2099   27.0854 C   0  0  0  0  0  0  0  0  0  0  0  0
   -7.7814    5.1722   27.8972 C   0  0  0  0  0  0  0  0  0  0  0  0
   -8.8998    3.8713   26.3707 C   0  0  0  0  0  0  0  0  0  0  0  0
   -9.9938    4.6774   26.5446 C   0  0  0  0  0  0  0  0  0  0  0  0
   -8.7789    6.1536   27.9256 C   0  0  0  0  0  0  0  0  0  0  0  0
   -9.9428    5.8398   27.2296 C   0  0  0  0  0  0  0  0  0  0  0  0
   -8.9208    2.6404   25.5721 C   0  0  0  0  0  0  0  0  0  0  0  0
   -9.7377    1.6978   26.0657 C   0  0  0  0  0  0  0  0  0  0  0  0
   -9.4633    0.4709   25.7506 C   0  0  0  0  0  0  0  0  0  0  0  0
   -8.6441    0.0730   24.9991 C   0  0  0  0  0  0  0  0  0  0  0  0
   -8.6995   -0.3296   24.0068 C   0  0  0  0  0  0  0  0  0  0  0  0
   -7.5731   -0.6227   22.9871 C   0  0  0  0  0  0  0  0  0  0  0  0
   -6.3262   -0.6675   23.5525 C   0  0  0  0  0  0  0  0  0  0  0  0
   -6.1185   -0.4125   24.8708 C   0  0  0  0  0  0  0  0  0  0  0  0
   -7.1470    0.0248   25.6049 C   0  0  0  0  0  0  0  0  0  0  0  0
  -10.2881   -0.6398   26.3880 C   0  0  0  0  0  0  0  0  0  0  0  0
  -11.4667   -0.9030   26.2252 C   0  0  0  0  0  0  0  0  0  0  0  0
  -12.1561   -1.9282   26.9307 C   0  0  0  0  0  0  0  0  0  0  0  0
  3  7  1  0
  7  8  1  0
  8  9  1  0
  9 10  1  0
  9 16  1  0
 16 17  2  3
 17 18  1  0
  1  2  2  0
  2  5  1  0
  5  6  2  0
  6  4  1  0
  4  3  2  0
  3  1  1  0
 10 11  2  0
 11 12  1  0
 12 13  2  0
 13 14  1  0
 14 15  2  0
 15 10  1  0
M  END
$$$$
