No_153-complexes_sdf/6BKW-FPZ/2024-09-17-14-21-01/
     RDKit          3D

 21 23  0  0  0  0  0  0  0  0999 V2000
   -7.2496    3.8871   27.4508 C   0  0  0  0  0  0  0  0  0  0  0  0
   -7.6161    2.7143   27.1523 C   0  0  0  0  0  0  0  0  0  0  0  0
   -7.1618    1.8631   27.5233 C   0  0  0  0  0  0  0  0  0  0  0  0
   -6.0841    4.1113   28.0941 C   0  0  0  0  0  0  0  0  0  0  0  0
   -7.6550    0.4062   27.2322 C   0  0  0  0  0  0  0  0  0  0  0  0
   -6.9848   -0.7084   27.7295 C   0  0  0  0  0  0  0  0  0  0  0  0
   -5.8409    2.0929   28.1514 C   0  0  0  0  0  0  0  0  0  0  0  0
   -5.3353    3.2095   28.2833 N   0  0  0  0  0  0  0  0  0  0  0  0
   -8.7155    0.4076   26.3410 C   0  0  0  0  0  0  0  0  0  0  0  0
   -9.2972   -0.8666   26.2327 C   0  0  0  0  0  0  0  0  0  0  0  0
   -7.6446   -1.8919   27.6126 C   0  0  0  0  0  0  0  0  0  0  0  0
   -8.7846   -1.9951   26.7667 C   0  0  0  0  0  0  0  0  0  0  0  0
   -8.1399    5.1808   27.1441 C   0  0  2  0  0  0  0  0  0  0  0  0
   -7.9338    6.4163   27.7981 C   0  0  0  0  0  0  0  0  0  0  0  0
   -9.4130    4.9321   26.5343 C   0  0  0  0  0  0  0  0  0  0  0  0
  -10.5926    4.4773   27.0872 C   0  0  0  0  0  0  0  0  0  0  0  0
  -11.7407    4.1969   26.4431 C   0  0  0  0  0  0  0  0  0  0  0  0
  -12.9471    3.9231   27.1424 C   0  0  0  0  0  0  0  0  0  0  0  0
  -12.9518    3.9629   28.5242 C   0  0  0  0  0  0  0  0  0  0  0  0
  -11.6927    3.9872   29.2185 C   0  0  0  0  0  0  0  0  0  0  0  0
  -10.5530    4.3323   28.5753 C   0  0  0  0  0  0  0  0  0  0  0  0
  3  5  1  0
  1 13  1  0
 13 14  1  1
 13 15  1  0
 15 16  1  0
  1  2  2  0
  2  3  1  0
  3  7  2  0
  7  8  1  0
  8  4  2  0
  4  1  1  0
  5  6  2  0
  6 11  1  0
 11 12  2  0
 12 10  1  0
 10  9  2  0
  9  5  1  0
 16 17  2  0
 17 18  1  0
 18 19  2  0
 19 20  1  0
 20 21  2  0
 21 16  1  0
M  END
$$$$
