No_1400-complexes_sdf/6BKW-FPZ/2024-09-17-14-21-01/
     RDKit          3D

 26 31  0  0  0  0  0  0  0  0999 V2000
   -7.9040    3.9820   27.1177 C   0  0  0  0  0  0  0  0  0  0  0  0
   -7.8663    4.8694   27.9238 C   0  0  0  0  0  0  0  0  0  0  0  0
   -9.0491    3.8523   26.2542 C   0  0  0  0  0  0  0  0  0  0  0  0
   -8.7661    5.9491   27.9690 C   0  0  0  0  0  0  0  0  0  0  0  0
   -9.9295    4.8502   26.2323 C   0  0  0  0  0  0  0  0  0  0  0  0
   -9.8077    5.9288   27.0933 C   0  0  0  0  0  0  0  0  0  0  0  0
   -7.0120    2.8934   27.1747 N   0  0  0  0  0  0  0  0  0  0  0  0
   -7.2911    1.5905   26.8161 C   0  0  0  0  0  0  0  0  0  0  0  0
   -6.3069    0.6382   27.1886 C   0  0  0  0  0  0  0  0  0  0  0  0
   -5.2276    1.3120   27.8406 C   0  0  0  0  0  0  0  0  0  0  0  0
   -5.7191    2.8003   27.7926 C   0  0  0  0  0  0  0  0  0  0  0  0
   -4.0180    0.9829   28.3357 C   0  0  0  0  0  0  0  0  0  0  0  0
   -3.7392   -0.2271   28.7152 C   0  0  0  0  0  0  0  0  0  0  0  0
   -2.5418   -0.6673   28.9601 C   0  0  0  0  0  0  0  0  0  0  0  0
   -1.8107   -1.5299   28.9817 C   0  0  0  0  0  0  0  0  0  0  0  0
   -2.4465   -2.8018   28.7119 C   0  0  0  0  0  0  0  0  0  0  0  0
   -3.8431   -2.6679   28.4353 C   0  0  0  0  0  0  0  0  0  0  0  0
   -4.4890   -1.4269   28.3058 C   0  0  0  0  0  0  0  0  0  0  0  0
   -8.4863    1.0874   26.1564 C   0  0  0  0  0  0  0  0  0  0  0  0
   -8.5734   -0.3499   25.9361 C   0  0  0  0  0  0  0  0  0  0  0  0
   -7.5390   -1.0471   26.1054 C   0  0  0  0  0  0  0  0  0  0  0  0
   -6.3753   -0.6352   26.8490 C   0  0  0  0  0  0  0  0  0  0  0  0
   -5.4606   -1.6512   27.4297 C   0  0  0  0  0  0  0  0  0  0  0  0
   -5.6890   -2.9784   27.0058 C   0  0  0  0  0  0  0  0  0  0  0  0
   -6.5248   -3.4324   26.3877 C   0  0  0  0  0  0  0  0  0  0  0  0
   -7.6778   -2.5008   25.9094 C   0  0  0  0  0  0  0  0  0  0  0  0
  1  7  1  0
  7  8  1  0
  9 10  1  0
  7 11  1  0
 10 11  2  0
 10 12  1  0
 12 13  1  0
 18 23  1  0
 13 14  2  0
 14 15  1  0
 15 16  2  0
 16 17  1  0
 17 18  2  0
 18 13  1  0
  8  9  2  0
  9 22  1  0
 21 20  1  0
 20 19  2  0
 19  8  1  0
  1  2  2  0
  2  4  1  0
  4  6  2  0
  6  5  1  0
  5  3  2  0
  3  1  1  0
 21 22  2  0
 22 23  1  0
 23 24  2  0
 24 25  1  0
 25 26  2  0
 26 21  1  0
M  END
$$$$
