No_1557-complexes_sdf/6BKW-FPZ/2024-09-17-14-21-01/
     RDKit          3D

 17 17  0  0  0  0  0  0  0  0999 V2000
   -7.9040    3.9820   27.1177 C   0  0  0  0  0  0  0  0  0  0  0  0
   -8.2057    2.8231   26.8733 C   0  0  0  0  0  0  0  0  0  0  0  0
   -8.7695    5.0740   26.7916 C   0  0  0  0  0  0  0  0  0  0  0  0
   -8.4337    6.4678   27.0913 C   0  0  0  0  0  0  0  0  0  0  0  0
   -9.3742    2.4311   26.2346 C   0  0  0  0  0  0  0  0  0  0  0  0
  -10.2395    3.4267   25.8887 C   0  0  0  0  0  0  0  0  0  0  0  0
   -9.9567    4.7548   26.1374 C   0  0  0  0  0  0  0  0  0  0  0  0
   -8.6883    7.3863   26.4388 O   0  0  0  0  0  0  0  0  0  0  0  0
   -7.5870    6.5411   28.1527 O   0  0  0  0  0  0  0  0  0  0  0  0
   -7.2488    1.6763   27.2846 C   0  0  2  0  0  0  0  0  0  0  0  0
   -6.2671    2.0939   27.9742 F   0  0  0  0  0  0  0  0  0  0  0  0
   -6.9861    0.6147   26.3168 C   0  0  0  0  0  0  0  0  0  0  0  0
   -6.1006   -0.1506   26.6718 O   0  0  0  0  0  0  0  0  0  0  0  0
   -7.9077    0.2422   25.5076 O   0  0  0  0  0  0  0  0  0  0  0  0
  -11.4783    3.1647   25.1217 C   0  0  0  0  0  0  0  0  0  0  0  0
  -11.6821    3.7388   23.9747 C   0  0  0  0  0  0  0  0  0  0  0  0
  -12.8292    3.5166   23.1697 C   0  0  0  0  0  0  0  0  0  0  0  0
  3  4  1  0
  4  8  2  0
  4  9  1  0
  2 10  1  0
 10 11  1  6
 10 12  1  0
 12 13  2  0
 12 14  1  0
  6 15  1  0
 15 16  2  3
 16 17  1  0
  1  2  2  0
  2  5  1  0
  5  6  2  0
  6  7  1  0
  7  3  2  0
  3  1  1  0
M  END
$$$$
