No_1850-complexes_sdf/6BKW-FPZ/2024-09-17-14-21-01/
     RDKit          3D

 12 13  0  0  0  0  0  0  0  0999 V2000
   -7.9040    3.9820   27.1177 C   0  0  0  0  0  0  0  0  0  0  0  0
   -9.0711    4.3164   27.0630 C   0  0  0  0  0  0  0  0  0  0  0  0
   -9.5294    5.4517   27.7215 C   0  0  0  0  0  0  0  0  0  0  0  0
   -6.9328    4.7309   27.8881 C   0  0  0  0  0  0  0  0  0  0  0  0
   -7.3377    5.8421   28.5537 C   0  0  0  0  0  0  0  0  0  0  0  0
   -8.6411    6.2609   28.3972 C   0  0  0  0  0  0  0  0  0  0  0  0
  -10.0467    3.4917   26.2630 C   0  0  0  0  0  0  0  0  0  0  0  0
  -10.5865    3.7278   25.3547 C   0  0  0  0  0  0  0  0  0  0  0  0
  -11.3946    2.9573   24.4690 C   0  0  0  0  0  0  0  0  0  0  0  0
  -11.4615    1.6375   24.8205 C   0  0  0  0  0  0  0  0  0  0  0  0
  -10.0332    2.0048   26.5270 C   0  0  0  0  0  0  0  0  0  0  0  0
  -10.7552    1.1330   25.8753 C   0  0  0  0  0  0  0  0  0  0  0  0
  2  7  1  0
  7  8  2  0
  8  9  1  0
  9 10  2  0
 10 12  1  0
 12 11  2  0
 11  7  1  0
  1  2  2  0
  2  3  1  0
  3  6  2  0
  6  5  1  0
  5  4  2  0
  4  1  1  0
M  END
$$$$
