No_1922-complexes_sdf/6BKW-FPZ/2024-09-17-14-21-01/
     RDKit          3D

 15 16  0  0  0  0  0  0  0  0999 V2000
   -7.2496    3.8871   27.4508 C   0  0  0  0  0  0  0  0  0  0  0  0
   -7.9379    4.9063   27.8518 C   0  0  0  0  0  0  0  0  0  0  0  0
   -7.5112    6.1898   27.6280 C   0  0  0  0  0  0  0  0  0  0  0  0
   -7.8078    2.6331   27.2522 C   0  0  0  0  0  0  0  0  0  0  0  0
   -7.1538    1.5087   26.7509 C   0  0  0  0  0  0  0  0  0  0  0  0
   -9.2627    2.5305   27.2363 C   0  0  0  0  0  0  0  0  0  0  0  0
   -9.8316    1.3863   26.9098 C   0  0  0  0  0  0  0  0  0  0  0  0
   -7.7292    0.3404   26.4662 C   0  0  0  0  0  0  0  0  0  0  0  0
   -9.1383    0.2547   26.6233 C   0  0  0  0  0  0  0  0  0  0  0  0
   -9.3489    4.7609   28.2435 C   0  0  0  0  0  0  0  0  0  0  0  0
  -10.0132    3.5969   27.8466 C   0  0  0  0  0  0  0  0  0  0  0  0
  -11.4184    3.4482   28.1739 C   0  0  0  0  0  0  0  0  0  0  0  0
  -12.2314    3.5597   27.2669 F   0  0  0  0  0  0  0  0  0  0  0  0
  -11.6868    4.3720   29.2391 F   0  0  0  0  0  0  0  0  0  0  0  0
  -11.6937    2.2901   28.8477 F   0  0  0  0  0  0  0  0  0  0  0  0
 11 12  1  0
 12 13  1  0
 12 14  1  0
 12 15  1  0
  3  2  1  0
  1  2  2  0
  2 10  1  0
 10 11  2  0
 11  6  1  0
  4  1  1  0
  4  5  2  0
  5  8  1  0
  8  9  2  0
  9  7  1  0
  7  6  2  0
  6  4  1  0
M  END
$$$$
