No_1561-complexes_sdf/6BKW-FPZ/2024-09-17-14-21-01/
     RDKit          3D

 14 14  0  0  0  0  0  0  0  0999 V2000
   -7.9040    3.9820   27.1177 C   0  0  0  0  0  0  0  0  0  0  0  0
   -8.2057    2.8231   26.8733 C   0  0  0  0  0  0  0  0  0  0  0  0
   -9.2962    2.4021   26.1155 C   0  0  0  0  0  0  0  0  0  0  0  0
   -8.7358    5.0662   26.5917 C   0  0  0  0  0  0  0  0  0  0  0  0
   -9.7618    4.7023   25.7546 C   0  0  0  0  0  0  0  0  0  0  0  0
  -10.0066    3.4105   25.4922 C   0  0  0  0  0  0  0  0  0  0  0  0
   -8.3936    6.4769   26.8843 C   0  0  0  0  0  0  0  0  0  0  0  0
   -8.0307    6.8601   28.0802 N   0  0  0  0  0  0  0  0  0  0  0  0
   -8.3814    7.3366   25.9565 O   0  0  0  0  0  0  0  0  0  0  0  0
   -7.3535    1.6687   27.5023 C   0  0  0  0  0  0  0  0  0  0  0  0
   -6.7717    0.7386   26.7069 Cl  0  0  0  0  0  0  0  0  0  0  0  0
  -11.2800    3.0448   24.4195 Cl  0  0  0  0  0  0  0  0  0  0  0  0
   -9.4903    0.7319   25.6914 Cl  0  0  0  0  0  0  0  0  0  0  0  0
   -6.9058    4.4170   27.9471 O   0  0  0  0  0  0  0  0  0  0  0  0
  4  7  1  0
  7  8  1  0
  7  9  2  0
  2 10  1  0
 10 11  1  0
  6 12  1  0
  3 13  1  0
  1 14  1  0
  1  2  2  0
  2  3  1  0
  3  6  2  0
  6  5  1  0
  5  4  2  0
  4  1  1  0
M  END
$$$$
