No_1903-complexes_sdf/6BKW-FPZ/2024-09-17-14-21-01/
     RDKit          3D

 16 16  0  0  0  0  0  0  0  0999 V2000
   -7.9040    3.9820   27.1177 C   0  0  0  0  0  0  0  0  0  0  0  0
   -8.2057    2.8231   26.8733 C   0  0  0  0  0  0  0  0  0  0  0  0
   -9.2962    2.4021   26.1155 C   0  0  0  0  0  0  0  0  0  0  0  0
   -8.7358    5.0662   26.5917 C   0  0  0  0  0  0  0  0  0  0  0  0
   -9.7618    4.7023   25.7546 C   0  0  0  0  0  0  0  0  0  0  0  0
  -10.0066    3.4105   25.4922 C   0  0  0  0  0  0  0  0  0  0  0  0
   -8.3943    6.4760   26.8801 C   0  0  0  0  0  0  0  0  0  0  0  0
   -8.6590    7.3213   26.1280 F   0  0  0  0  0  0  0  0  0  0  0  0
   -8.8553    6.6103   28.1538 F   0  0  0  0  0  0  0  0  0  0  0  0
   -7.0016    6.5587   27.1513 F   0  0  0  0  0  0  0  0  0  0  0  0
   -7.3560    1.6645   27.4914 C   0  0  0  0  0  0  0  0  0  0  0  0
   -7.7659    0.4076   27.4303 N   0  0  0  0  0  0  0  0  0  0  0  0
   -8.9060    0.0049   27.4541 C   0  0  0  0  0  0  0  0  0  0  0  0
   -9.1219   -1.4260   27.6351 C   0  0  0  0  0  0  0  0  0  0  0  0
   -6.1488    2.0192   27.8326 O   0  0  0  0  0  0  0  0  0  0  0  0
   -8.0060   -2.1176   27.9683 C   0  0  0  0  0  0  0  0  0  0  0  0
  4  7  1  0
  7  8  1  0
  7  9  1  0
  7 10  1  0
  2 11  1  0
 11 12  1  0
 12 13  2  3
 13 14  1  0
 11 15  2  0
 14 16  2  0
  1  2  2  0
  2  3  1  0
  3  6  2  0
  6  5  1  0
  5  4  2  0
  4  1  1  0
M  END
$$$$
