No_1493-complexes_sdf/6BKW-FPZ/2024-09-17-14-21-01/
     RDKit          3D

 29 32  0  0  0  0  0  0  0  0999 V2000
   -7.9040    3.9820   27.1177 C   0  0  0  0  0  0  0  0  0  0  0  0
   -9.0711    4.3164   27.0630 C   0  0  0  0  0  0  0  0  0  0  0  0
   -9.8698    3.9665   25.9495 C   0  0  0  0  0  0  0  0  0  0  0  0
   -7.0332    4.5030   28.2025 C   0  0  0  0  0  0  0  0  0  0  0  0
  -10.9909    4.7237   25.5958 C   0  0  0  0  0  0  0  0  0  0  0  0
   -5.7941    4.1856   28.2453 N   0  0  0  0  0  0  0  0  0  0  0  0
  -11.6898    4.2982   24.4462 C   0  0  0  0  0  0  0  0  0  0  0  0
  -11.1839    3.2966   23.6048 C   0  0  0  0  0  0  0  0  0  0  0  0
  -10.0663    2.6356   23.9589 C   0  0  0  0  0  0  0  0  0  0  0  0
   -9.3584    3.0300   25.1230 C   0  0  0  0  0  0  0  0  0  0  0  0
   -7.5800    5.4755   28.8752 N   0  0  0  0  0  0  0  0  0  0  0  0
   -9.1418    5.8083   27.5572 C   0  0  0  0  0  0  0  0  0  0  0  0
   -8.4940    6.2042   28.5757 N   0  0  0  0  0  0  0  0  0  0  0  0
   -9.5557    1.5194   23.1135 C   0  0  0  0  0  0  0  0  0  0  0  0
   -9.9461    1.3517   21.8258 C   0  0  0  0  0  0  0  0  0  0  0  0
   -9.5362    0.2611   21.1421 C   0  0  0  0  0  0  0  0  0  0  0  0
   -8.6561   -0.7070   21.7195 C   0  0  0  0  0  0  0  0  0  0  0  0
   -8.2059   -0.5156   23.0300 C   0  0  0  0  0  0  0  0  0  0  0  0
   -8.6446    0.5489   23.7677 C   0  0  0  0  0  0  0  0  0  0  0  0
   -8.2332   -1.8176   20.8854 C   0  0  0  0  0  0  0  0  0  0  0  0
   -8.7142   -2.1896   19.7893 C   0  0  0  0  0  0  0  0  0  0  0  0
   -8.1622   -3.2775   19.0001 C   0  0  0  0  0  0  0  0  0  0  0  0
   -7.1957   -3.5991   19.3097 C   0  0  0  0  0  0  0  0  0  0  0  0
   -6.8895   -2.5237   20.9957 C   0  0  0  0  0  0  0  0  0  0  0  0
   -6.3426   -3.3355   20.3367 C   0  0  0  0  0  0  0  0  0  0  0  0
   -9.0082   -3.5454   17.8543 N   0  0  0  0  0  0  0  0  0  0  0  0
   -9.8710   -4.1743   17.6599 C   0  0  0  0  0  0  0  0  0  0  0  0
  -10.2854   -5.0388   18.5123 C   0  0  0  0  0  0  0  0  0  0  0  0
  -11.5163   -5.8569   18.2935 C   0  0  0  0  0  0  0  0  0  0  0  0
  4  6  1  0
  9 14  1  0
 17 20  1  0
 22 26  1  0
 26 27  1  0
 27 28  2  3
 28 29  1  0
  2  3  1  0
 14 15  2  0
 15 16  1  0
 16 17  2  0
 17 18  1  0
 18 19  2  0
 19 14  1  0
  3  5  2  0
  5  7  1  0
  7  8  2  0
  8  9  1  0
  9 10  2  0
 10  3  1  0
  1  2  2  0
  2 12  1  0
 12 13  2  0
 13 11  1  0
 11  4  2  0
  4  1  1  0
 20 21  2  0
 21 22  1  0
 22 23  2  0
 23 25  1  0
 25 24  2  0
 24 20  1  0
M  END
$$$$
