No_1131-complexes_sdf/6BKW-FPZ/2024-09-17-14-21-01/
     RDKit          3D

 18 18  0  0  0  0  0  0  0  0999 V2000
   -7.9040    3.9820   27.1177 C   0  0  2  0  0  0  0  0  0  0  0  0
   -9.0711    4.3164   27.0630 C   0  0  0  0  0  0  0  0  0  0  0  0
   -9.5294    5.4517   27.7215 C   0  0  0  0  0  0  0  0  0  0  0  0
   -7.4336    2.7132   26.5681 C   0  0  0  0  0  0  0  0  0  0  0  0
   -8.3353    1.8569   26.0442 C   0  0  0  0  0  0  0  0  0  0  0  0
   -9.6477    2.2853   25.9146 C   0  0  0  0  0  0  0  0  0  0  0  0
  -10.0346    3.4497   26.4483 C   0  0  0  0  0  0  0  0  0  0  0  0
   -7.8750    0.5509   25.5918 C   0  0  0  0  0  0  0  0  0  0  0  0
   -6.9702    0.0164   26.1017 O   0  0  0  0  0  0  0  0  0  0  0  0
   -8.6762   -0.1044   24.8399 O   0  0  0  0  0  0  0  0  0  0  0  0
   -6.6199    4.8126   28.0574 Cl  0  0  0  0  0  0  0  0  0  0  0  0
   -8.5873   -1.0974   24.4539 C   0  0  0  0  0  0  0  0  0  0  0  0
   -8.8416   -2.1275   25.0856 C   0  0  0  0  0  0  0  0  0  0  0  0
   -9.7324   -2.1847   25.8812 O   0  0  0  0  0  0  0  0  0  0  0  0
  -10.8190   -1.6203   25.9438 C   0  0  0  0  0  0  0  0  0  0  0  0
  -11.8760   -2.3030   26.6025 C   0  0  0  0  0  0  0  0  0  0  0  0
  -11.8376   -3.0751   27.4746 C   0  0  0  0  0  0  0  0  0  0  0  0
  -12.9268   -3.7393   28.1744 C   0  0  0  0  0  0  0  0  0  0  0  0
  1  2  1  0
  2  3  2  0
  1  4  1  0
  4  5  1  0
  5  6  1  0
  2  7  1  0
  6  7  1  0
  5  8  1  0
  8  9  2  0
  8 10  1  0
  1 11  1  1
 10 12  1  0
 12 13  1  0
 13 14  1  0
 14 15  1  0
 15 16  1  0
 16 17  2  3
 17 18  1  0
M  END
$$$$
