No_146-complexes_sdf/6BKW-FPZ/2024-09-17-14-21-01/
     RDKit          3D

 23 25  0  0  0  0  0  0  0  0999 V2000
   -7.9040    3.9820   27.1177 C   0  0  0  0  0  0  0  0  0  0  0  0
   -8.2057    2.8231   26.8733 C   0  0  0  0  0  0  0  0  0  0  0  0
   -8.7695    5.0740   26.7916 C   0  0  0  0  0  0  0  0  0  0  0  0
   -9.9618    4.7598   26.1630 C   0  0  0  0  0  0  0  0  0  0  0  0
   -7.3763    1.7038   27.3414 C   0  0  0  0  0  0  0  0  0  0  0  0
   -9.4134    2.4504   26.3004 C   0  0  0  0  0  0  0  0  0  0  0  0
   -9.7334    1.0748   26.0466 C   0  0  0  0  0  0  0  0  0  0  0  0
  -10.2741    3.4518   25.8746 C   0  0  0  0  0  0  0  0  0  0  0  0
   -6.9558    0.8984   26.7343 C   0  0  0  0  0  0  0  0  0  0  0  0
   -7.7720   -0.1364   26.3427 C   0  0  0  0  0  0  0  0  0  0  0  0
   -8.9016    0.1136   25.6006 C   0  0  0  0  0  0  0  0  0  0  0  0
   -8.4239    6.5073   27.1024 C   0  0  0  0  0  0  0  0  0  0  0  0
   -8.7214    7.4524   26.4756 O   0  0  0  0  0  0  0  0  0  0  0  0
   -7.5217    6.5782   28.1181 O   0  0  0  0  0  0  0  0  0  0  0  0
  -11.4923    3.2154   25.1535 C   0  0  0  0  0  0  0  0  0  0  0  0
  -11.6398    3.0739   24.0121 C   0  0  0  0  0  0  0  0  0  0  0  0
  -12.7840    2.7605   23.3144 C   0  0  0  0  0  0  0  0  0  0  0  0
  -12.6752    3.1416   25.9963 C   0  0  0  0  0  0  0  0  0  0  0  0
  -13.9080    2.9727   25.4593 C   0  0  0  0  0  0  0  0  0  0  0  0
  -13.9617    2.8118   24.0609 C   0  0  0  0  0  0  0  0  0  0  0  0
  -10.3665    3.1011   23.0426 C   0  0  0  0  0  0  0  0  0  0  0  0
  -10.4727    2.7649   21.6740 C   0  0  0  0  0  0  0  0  0  0  0  0
  -11.6989    2.5586   21.1393 C   0  0  0  0  0  0  0  0  0  0  0  0
  2  5  1  0
  6  7  1  0
  5  9  1  0
  9 10  1  0
  7 11  1  0
 10 11  2  0
  3 12  1  0
 12 13  2  0
 12 14  1  0
  8 15  1  0
 16 21  1  0
 21 22  2  3
 22 23  1  0
 15 16  2  0
 16 17  1  0
 17 20  2  0
 20 19  1  0
 19 18  2  0
 18 15  1  0
  1  2  2  0
  2  6  1  0
  6  8  2  0
  8  4  1  0
  4  3  2  0
  3  1  1  0
M  END
$$$$
