No_1888-complexes_sdf/6BKW-FPZ/2024-09-17-14-21-01/
     RDKit          3D

 16 17  0  0  0  0  0  0  0  0999 V2000
   -7.9040    3.9820   27.1177 C   0  0  0  0  0  0  0  0  0  0  0  0
   -8.2057    2.8231   26.8733 C   0  0  0  0  0  0  0  0  0  0  0  0
   -7.0130    4.3706   28.1140 C   0  0  0  0  0  0  0  0  0  0  0  0
   -7.4093    1.7370   27.3857 C   0  0  0  0  0  0  0  0  0  0  0  0
   -6.1712    2.1248   28.0064 C   0  0  0  0  0  0  0  0  0  0  0  0
   -5.2502    1.1819   28.3202 N   0  0  0  0  0  0  0  0  0  0  0  0
   -5.9434    3.4901   28.3437 C   0  0  0  0  0  0  0  0  0  0  0  0
   -3.9713    1.2735   28.5502 C   0  0  0  0  0  0  0  0  0  0  0  0
   -5.6925   -0.2305   27.9732 C   0  0  0  0  0  0  0  0  0  0  0  0
   -8.9442    5.1079   26.7493 C   0  0  0  0  0  0  0  0  0  0  0  0
   -9.5525    4.9897   25.4501 C   0  0  0  0  0  0  0  0  0  0  0  0
   -9.5760    5.9142   27.6006 C   0  0  0  0  0  0  0  0  0  0  0  0
   -5.3976   -1.1138   28.7113 C   0  0  0  0  0  0  0  0  0  0  0  0
   -3.2917    0.2099   29.3389 C   0  0  0  0  0  0  0  0  0  0  0  0
   -3.8659   -1.1122   29.2147 C   0  0  0  0  0  0  0  0  0  0  0  0
   -3.7393   -1.7455   30.4324 F   0  0  0  0  0  0  0  0  0  0  0  0
  5  6  1  0
  6  8  1  0
  6  9  1  0
  1 10  1  0
 10 11  2  0
 10 12  1  0
  8 14  1  0
 13 15  1  0
 14 15  1  0
 15 16  1  0
 13  9  1  0
  1  2  2  0
  2  4  1  0
  4  5  2  0
  5  7  1  0
  7  3  2  0
  3  1  1  0
M  END
$$$$
