No_1571-complexes_sdf/6BKW-FPZ/2024-09-17-14-21-01/
     RDKit          3D

 40 46  0  0  0  0  0  0  0  0999 V2000
   -7.9040    3.9820   27.1177 C   0  0  0  0  0  0  0  0  0  0  0  0
   -7.8663    4.8694   27.9238 C   0  0  0  0  0  0  0  0  0  0  0  0
   -7.4547    2.7080   27.4594 C   0  0  0  0  0  0  0  0  0  0  0  0
   -7.9337    1.5946   26.8372 C   0  0  0  0  0  0  0  0  0  0  0  0
   -8.9032    1.7881   25.8510 C   0  0  0  0  0  0  0  0  0  0  0  0
   -9.3787    2.9871   25.5530 C   0  0  0  0  0  0  0  0  0  0  0  0
   -8.9781    4.0300   26.2200 C   0  0  0  0  0  0  0  0  0  0  0  0
   -8.1814    6.3212   27.6124 C   0  0  0  0  0  0  0  0  0  0  0  0
   -9.0815    6.5466   26.5513 C   0  0  0  0  0  0  0  0  0  0  0  0
   -9.5022    5.3860   25.8465 C   0  0  0  0  0  0  0  0  0  0  0  0
   -7.3441    0.2518   27.1268 C   0  0  0  0  0  0  0  0  0  0  0  0
   -8.0958   -0.8676   27.1930 C   0  0  0  0  0  0  0  0  0  0  0  0
   -7.5351   -2.0850   27.6129 C   0  0  0  0  0  0  0  0  0  0  0  0
   -5.9744    0.1584   27.4541 C   0  0  0  0  0  0  0  0  0  0  0  0
   -5.4156   -1.0121   27.9366 C   0  0  0  0  0  0  0  0  0  0  0  0
   -6.2151   -2.1338   28.0031 C   0  0  0  0  0  0  0  0  0  0  0  0
   -3.9919   -1.0206   28.3450 C   0  0  1  0  0  0  0  0  0  0  0  0
   -3.1447   -0.2771   27.8059 N   0  0  0  0  0  0  0  0  0  0  0  0
   -3.2465    1.0307   27.9230 C   0  0  0  0  0  0  0  0  0  0  0  0
   -2.7975   -0.6768   26.4138 C   0  0  0  0  0  0  0  0  0  0  0  0
  -10.3342    3.0661   24.4137 C   0  0  0  0  0  0  0  0  0  0  0  0
  -11.4751    3.7755   24.5178 C   0  0  0  0  0  0  0  0  0  0  0  0
  -10.0145    2.4153   23.2235 C   0  0  0  0  0  0  0  0  0  0  0  0
  -12.3763    3.2707   24.2946 C   0  0  0  0  0  0  0  0  0  0  0  0
  -11.0949    2.1147   22.3965 C   0  0  0  0  0  0  0  0  0  0  0  0
  -12.3567    2.6267   22.8336 C   0  0  0  0  0  0  0  0  0  0  0  0
   -3.8388   -0.7506   29.8871 C   0  0  0  0  0  0  0  0  0  0  0  0
   -3.1646   -1.6887   30.6781 C   0  0  0  0  0  0  0  0  0  0  0  0
   -3.0050   -1.4116   32.0348 C   0  0  0  0  0  0  0  0  0  0  0  0
   -3.4670   -0.1714   32.6271 C   0  0  0  0  0  0  0  0  0  0  0  0
   -4.0865    0.6725   31.8045 N   0  0  0  0  0  0  0  0  0  0  0  0
   -4.3171    0.4726   30.5117 C   0  0  0  0  0  0  0  0  0  0  0  0
   -3.5604   -2.5575   28.1296 C   0  0  1  0  0  0  0  0  0  0  0  0
   -3.5625   -3.3397   29.0117 C   0  0  0  0  0  0  0  0  0  0  0  0
   -3.0082   -2.9953   30.3057 C   0  0  0  0  0  0  0  0  0  0  0  0
   -3.3143   -2.8962   26.7747 C   0  0  2  0  0  0  0  0  0  0  0  0
   -3.0934   -4.2205   26.3990 C   0  0  0  0  0  0  0  0  0  0  0  0
   -2.8688   -1.8086   25.8614 C   0  0  0  0  0  0  0  0  0  0  0  0
   -3.1737   -4.4144   25.1810 F   0  0  0  0  0  0  0  0  0  0  0  0
   -1.9171   -4.6904   26.8566 F   0  0  0  0  0  0  0  0  0  0  0  0
  4 11  1  0
 17 15  1  6
 17 18  1  0
 18 19  1  0
 18 20  1  0
  6 21  1  0
 17 27  1  0
 17 33  1  0
 28 35  1  0
 34 35  1  0
 33 36  1  0
 36 37  1  1
 36 38  1  0
 37 39  1  0
 37 40  1  0
 38 20  1  0
 33 34  1  6
  1  2  2  0
  2  8  1  0
  8  9  2  0
  9 10  1  0
 10  7  2  0
  1  3  1  0
  3  4  2  0
  4  5  1  0
  5  6  2  0
  6  7  1  0
  7  1  1  0
 21 22  2  0
 22 24  1  0
 24 26  2  0
 26 25  1  0
 25 23  2  0
 23 21  1  0
 27 28  2  0
 28 29  1  0
 29 30  2  0
 30 31  1  0
 31 32  2  0
 32 27  1  0
 11 12  2  0
 12 13  1  0
 13 16  2  0
 16 15  1  0
 15 14  2  0
 14 11  1  0
M  END
$$$$
