No_1172-complexes_sdf/6BKW-FPZ/2024-09-17-14-21-01/
     RDKit          3D

 12 13  0  0  0  0  0  0  0  0999 V2000
   -7.2496    3.8871   27.4508 C   0  0  0  0  0  0  0  0  0  0  0  0
   -7.6161    2.7143   27.1523 C   0  0  0  0  0  0  0  0  0  0  0  0
   -8.8302    2.4659   26.5056 C   0  0  0  0  0  0  0  0  0  0  0  0
   -8.1584    5.0090   27.3234 C   0  0  0  0  0  0  0  0  0  0  0  0
   -9.3788    4.7965   26.7695 C   0  0  0  0  0  0  0  0  0  0  0  0
   -9.7028    3.5649   26.3276 C   0  0  0  0  0  0  0  0  0  0  0  0
   -6.5552    1.6737   27.4428 C   0  0  0  0  0  0  0  0  0  0  0  0
   -6.9471    0.3963   27.6411 N   0  0  0  0  0  0  0  0  0  0  0  0
   -6.3857   -0.5466   27.3787 C   0  0  0  0  0  0  0  0  0  0  0  0
   -4.9320   -0.4025   27.3608 C   0  0  0  0  0  0  0  0  0  0  0  0
   -4.4062    0.8825   27.3514 C   0  0  0  0  0  0  0  0  0  0  0  0
   -5.2308    1.9591   27.3500 C   0  0  0  0  0  0  0  0  0  0  0  0
  2  7  1  0
  1  2  2  0
  2  3  1  0
  3  6  2  0
  6  5  1  0
  5  4  2  0
  4  1  1  0
  7  8  2  0
  8  9  1  0
  9 10  2  0
 10 11  1  0
 11 12  2  0
 12  7  1  0
M  END
$$$$
