No_132-complexes_sdf/6BKW-FPZ/2024-09-17-14-21-01/
     RDKit          3D

 16 17  0  0  0  0  0  0  0  0999 V2000
   -7.2496    3.8871   27.4508 C   0  0  0  0  0  0  0  0  0  0  0  0
   -8.5096    4.0291   27.2770 C   0  0  0  0  0  0  0  0  0  0  0  0
   -9.3451    2.8786   26.9046 C   0  0  0  0  0  0  0  0  0  0  0  0
   -6.6065    2.5680   27.5073 C   0  0  0  0  0  0  0  0  0  0  0  0
   -7.4233    1.4858   27.2402 C   0  0  0  0  0  0  0  0  0  0  0  0
   -8.7362    1.6525   26.9989 C   0  0  0  0  0  0  0  0  0  0  0  0
   -9.1023    5.3710   27.2131 C   0  0  0  0  0  0  0  0  0  0  0  0
   -8.3961    6.4213   26.9458 N   0  0  0  0  0  0  0  0  0  0  0  0
  -10.3284    5.4909   27.4666 F   0  0  0  0  0  0  0  0  0  0  0  0
   -6.7799    0.1876   27.2519 C   0  0  0  0  0  0  0  0  0  0  0  0
   -5.7311   -0.0440   27.7604 O   0  0  0  0  0  0  0  0  0  0  0  0
   -7.4912   -0.7881   26.7375 O   0  0  0  0  0  0  0  0  0  0  0  0
   -7.2822    6.8173   27.1107 C   0  0  0  0  0  0  0  0  0  0  0  0
   -7.1186    8.2242   26.8331 N   0  0  0  0  0  0  0  0  0  0  0  0
   -9.0451    7.7831   26.5723 C   0  0  0  0  0  0  0  0  0  0  0  0
   -8.3331    8.6588   26.6088 N   0  0  0  0  0  0  0  0  0  0  0  0
  2  7  1  0
  7  8  1  0
  7  9  1  0
  5 10  1  0
 10 11  2  0
 10 12  1  0
  8 13  1  0
 13 14  2  0
  8 15  1  0
 14 16  1  0
 15 16  2  0
  1  2  2  0
  2  3  1  0
  3  6  2  0
  6  5  1  0
  5  4  2  0
  4  1  1  0
M  END
$$$$
