No_1399-complexes_sdf/6BKW-FPZ/2024-09-17-14-21-01/
     RDKit          3D

 22 24  0  0  0  0  0  0  0  0999 V2000
   -7.2496    3.8871   27.4508 C   0  0  0  0  0  0  0  0  0  0  0  0
   -8.5096    4.0291   27.2770 C   0  0  0  0  0  0  0  0  0  0  0  0
   -9.2669    5.1645   27.5845 C   0  0  0  0  0  0  0  0  0  0  0  0
   -8.4566    6.3212   27.8001 C   0  0  0  0  0  0  0  0  0  0  0  0
   -6.6044    2.5801   27.2072 C   0  0  0  0  0  0  0  0  0  0  0  0
   -7.3819    1.4822   27.0097 C   0  0  0  0  0  0  0  0  0  0  0  0
   -8.7419    1.6392   26.7945 C   0  0  0  0  0  0  0  0  0  0  0  0
   -9.3915    2.8607   27.0849 C   0  0  0  0  0  0  0  0  0  0  0  0
  -10.1512    5.0883   28.8447 C   0  0  0  0  0  0  0  0  0  0  0  0
  -10.1629    5.5226   26.3197 C   0  0  0  0  0  0  0  0  0  0  0  0
   -6.7565    0.2106   26.7555 C   0  0  0  0  0  0  0  0  0  0  0  0
   -6.7607   -0.1863   25.6831 F   0  0  0  0  0  0  0  0  0  0  0  0
   -5.4502    0.2322   27.3065 F   0  0  0  0  0  0  0  0  0  0  0  0
   -7.4358   -0.7418   27.6040 F   0  0  0  0  0  0  0  0  0  0  0  0
  -11.0276    4.5468   25.9918 C   0  0  1  0  0  0  0  0  0  0  0  0
  -11.8819    4.6309   24.9059 C   0  0  0  0  0  0  0  0  0  0  0  0
  -11.6672    5.4859   23.8597 C   0  0  0  0  0  0  0  0  0  0  0  0
  -12.3884    5.2478   22.6044 C   0  0  0  0  0  0  0  0  0  0  0  0
  -13.1460    4.0000   24.8839 C   0  0  0  0  0  0  0  0  0  0  0  0
  -13.9903    3.9735   23.8079 C   0  0  0  0  0  0  0  0  0  0  0  0
  -13.5523    4.6728   22.6520 C   0  0  0  0  0  0  0  0  0  0  0  0
  -10.2188    3.0402   26.0695 C   0  0  0  0  0  0  0  0  0  0  0  0
  2  3  1  0
  3  4  1  0
  3  9  1  0
  3 10  1  0
  6 11  1  0
 11 12  1  0
 11 13  1  0
 11 14  1  0
 15 16  1  6
  8 22  1  0
 15 22  1  0
 15 10  1  0
  1  2  2  0
  2  8  1  0
  8  7  2  0
  7  6  1  0
  6  5  2  0
  5  1  1  0
 16 17  2  0
 17 18  1  0
 18 21  2  0
 21 20  1  0
 20 19  2  0
 19 16  1  0
M  END
$$$$
