No_1807-complexes_sdf/6BKW-FPZ/2024-09-17-14-21-01/
     RDKit          3D

 23 26  0  0  0  0  0  0  0  0999 V2000
   -7.7129    4.2099   27.0854 C   0  0  0  0  0  0  0  0  0  0  0  0
   -8.9133    4.4736   27.0998 C   0  0  0  0  0  0  0  0  0  0  0  0
   -9.4643    5.5426   27.7628 C   0  0  0  0  0  0  0  0  0  0  0  0
   -6.8373    4.9942   27.9785 C   0  0  0  0  0  0  0  0  0  0  0  0
   -7.3717    6.0428   28.6744 C   0  0  0  0  0  0  0  0  0  0  0  0
   -8.6869    6.3937   28.5345 C   0  0  0  0  0  0  0  0  0  0  0  0
   -9.9418    3.7066   26.3114 C   0  0  0  0  0  0  0  0  0  0  0  0
   -9.4361    2.6888   25.6105 C   0  0  0  0  0  0  0  0  0  0  0  0
  -10.1006    2.1901   24.4445 C   0  0  0  0  0  0  0  0  0  0  0  0
  -11.3402    2.7730   24.1283 C   0  0  0  0  0  0  0  0  0  0  0  0
  -11.7987    3.8802   24.8301 C   0  0  0  0  0  0  0  0  0  0  0  0
  -11.1975    4.2193   26.1982 C   0  0  0  0  0  0  0  0  0  0  0  0
   -9.5645    1.1079   23.6287 C   0  0  0  0  0  0  0  0  0  0  0  0
   -8.5540    0.3540   24.0665 C   0  0  0  0  0  0  0  0  0  0  0  0
   -8.0554   -0.6732   23.2773 C   0  0  0  0  0  0  0  0  0  0  0  0
   -8.5459   -0.8499   21.9429 C   0  0  0  0  0  0  0  0  0  0  0  0
   -9.8617    0.7202   22.3022 C   0  0  0  0  0  0  0  0  0  0  0  0
  -10.9468    1.6785   21.7564 C   0  0  2  0  0  0  0  0  0  0  0  0
   -9.3865   -0.1564   21.4860 C   0  0  0  0  0  0  0  0  0  0  0  0
  -11.6695    2.5756   22.7211 C   0  0  0  0  0  0  0  0  0  0  0  0
  -11.4251    1.6445   20.4067 C   0  0  0  0  0  0  0  0  0  0  0  0
  -12.7069    1.8762   20.3402 F   0  0  0  0  0  0  0  0  0  0  0  0
  -11.1291    0.4396   19.9380 F   0  0  0  0  0  0  0  0  0  0  0  0
  2  7  1  0
  9 13  1  0
 17 18  1  0
 10 20  1  0
 18 20  1  0
 18 21  1  1
 21 22  1  0
 21 23  1  0
 13 14  2  0
 14 15  1  0
 15 16  2  0
 16 19  1  0
 19 17  2  0
 17 13  1  0
  1  2  2  0
  2  3  1  0
  3  6  2  0
  6  5  1  0
  5  4  2  0
  4  1  1  0
  7  8  2  0
  8  9  1  0
  9 10  2  0
 10 11  1  0
 11 12  2  0
 12  7  1  0
M  END
$$$$
