No_1843-complexes_sdf/6BKW-FPZ/2024-09-17-14-21-01/
     RDKit          3D

 26 29  0  0  0  0  0  0  0  0999 V2000
   -7.7129    4.2099   27.0854 C   0  0  0  0  0  0  0  0  0  0  0  0
   -8.9133    4.4736   27.0998 C   0  0  0  0  0  0  0  0  0  0  0  0
   -9.4616    5.6470   27.6290 C   0  0  0  0  0  0  0  0  0  0  0  0
   -6.8722    5.1130   27.9248 C   0  0  0  0  0  0  0  0  0  0  0  0
   -7.3801    6.2535   28.4126 C   0  0  0  0  0  0  0  0  0  0  0  0
   -8.6734    6.5530   28.2150 C   0  0  0  0  0  0  0  0  0  0  0  0
   -9.7626    3.4440   26.3353 C   0  0  0  0  0  0  0  0  0  0  0  0
  -10.4757    3.6853   25.4322 C   0  0  0  0  0  0  0  0  0  0  0  0
  -11.2390    2.7888   24.6117 C   0  0  0  0  0  0  0  0  0  0  0  0
  -11.0574    1.4662   24.8808 C   0  0  0  0  0  0  0  0  0  0  0  0
   -9.6641    1.9766   26.5684 C   0  0  0  0  0  0  0  0  0  0  0  0
  -10.2511    1.0654   25.9163 C   0  0  0  0  0  0  0  0  0  0  0  0
  -10.0911   -0.3830   26.2107 C   0  0  0  0  0  0  0  0  0  0  0  0
   -9.0491   -0.7258   26.7327 C   0  0  0  0  0  0  0  0  0  0  0  0
   -8.0228   -0.8050   26.4780 C   0  0  0  0  0  0  0  0  0  0  0  0
   -6.7452   -1.1454   27.2582 C   0  0  0  0  0  0  0  0  0  0  0  0
   -6.9989   -1.5584   28.5640 C   0  0  0  0  0  0  0  0  0  0  0  0
   -8.3049   -1.6458   29.0243 C   0  0  0  0  0  0  0  0  0  0  0  0
   -9.3278   -1.1955   28.2615 C   0  0  0  0  0  0  0  0  0  0  0  0
  -11.1443   -1.2217   25.8320 C   0  0  0  0  0  0  0  0  0  0  0  0
  -11.0126   -1.9427   24.7969 N   0  0  0  0  0  0  0  0  0  0  0  0
  -10.0780   -2.0419   24.0777 C   0  0  0  0  0  0  0  0  0  0  0  0
   -9.7743   -2.2695   23.0434 C   0  0  0  0  0  0  0  0  0  0  0  0
  -10.8365   -2.5738   22.1429 C   0  0  0  0  0  0  0  0  0  0  0  0
  -12.1306   -2.6949   24.3292 C   0  0  0  0  0  0  0  0  0  0  0  0
  -12.1467   -2.7769   22.8560 C   0  0  0  0  0  0  0  0  0  0  0  0
  2  7  1  0
 12 13  1  0
 13 14  1  0
 13 20  1  0
 20 21  1  0
 21 22  1  0
 23 24  1  0
 21 25  1  0
 22 23  1  0
 24 26  1  0
 26 25  1  0
  7  8  2  0
  8  9  1  0
  9 10  2  0
 10 12  1  0
 12 11  2  0
 11  7  1  0
 14 15  2  0
 15 16  1  0
 16 17  2  0
 17 18  1  0
 18 19  2  0
 19 14  1  0
  1  2  2  0
  2  3  1  0
  3  6  2  0
  6  5  1  0
  5  4  2  0
  4  1  1  0
M  END
$$$$
