No_1056-complexes_sdf/6BKW-FPZ/2024-09-17-14-21-01/
     RDKit          3D

 23 25  0  0  0  0  0  0  0  0999 V2000
   -7.7129    4.2099   27.0854 C   0  0  0  0  0  0  0  0  0  0  0  0
   -8.2112    3.0637   26.9225 C   0  0  0  0  0  0  0  0  0  0  0  0
   -7.5138    1.9223   27.4249 C   0  0  0  0  0  0  0  0  0  0  0  0
   -8.5309    5.4147   26.8151 C   0  0  0  0  0  0  0  0  0  0  0  0
   -9.6817    5.2393   26.1100 C   0  0  0  0  0  0  0  0  0  0  0  0
  -10.1032    3.9957   25.8534 C   0  0  0  0  0  0  0  0  0  0  0  0
   -9.4034    2.8430   26.2573 C   0  0  0  0  0  0  0  0  0  0  0  0
   -6.1481    1.9922   27.8210 C   0  0  0  0  0  0  0  0  0  0  0  0
   -5.4897    0.8126   28.2236 C   0  0  0  0  0  0  0  0  0  0  0  0
   -6.0879   -0.4018   28.1493 C   0  0  0  0  0  0  0  0  0  0  0  0
   -7.9650    0.5820   27.3461 C   0  0  0  0  0  0  0  0  0  0  0  0
   -9.3685    0.5098   26.9669 C   0  0  0  0  0  0  0  0  0  0  0  0
   -7.3173   -0.4904   27.7716 C   0  0  0  0  0  0  0  0  0  0  0  0
  -10.0482    1.6219   26.3245 C   0  0  1  0  0  0  0  0  0  0  0  0
   -7.9398    6.7719   27.0486 C   0  0  0  0  0  0  0  0  0  0  0  0
   -8.6045    7.8659   26.7007 N   0  0  0  0  0  0  0  0  0  0  0  0
   -6.7674    6.8258   27.5602 O   0  0  0  0  0  0  0  0  0  0  0  0
   -4.0132    1.0227   28.6715 C   0  0  0  0  0  0  0  0  0  0  0  0
   -3.6151    0.4596   29.7231 O   0  0  0  0  0  0  0  0  0  0  0  0
   -3.1110    1.2340   27.6991 O   0  0  0  0  0  0  0  0  0  0  0  0
  -11.3993    1.3908   25.8615 C   0  0  0  0  0  0  0  0  0  0  0  0
  -11.6667    1.0760   24.8414 C   0  0  0  0  0  0  0  0  0  0  0  0
  -13.0014    0.9200   24.2748 C   0  0  0  0  0  0  0  0  0  0  0  0
  2  3  1  0
 11 12  1  0
  7 14  1  0
 14 12  1  1
  4 15  1  0
 15 16  1  0
 15 17  2  0
  9 18  1  0
 18 19  2  0
 18 20  1  0
 14 21  1  0
 21 22  2  3
 22 23  1  0
  1  2  2  0
  2  7  1  0
  7  6  2  0
  6  5  1  0
  5  4  2  0
  4  1  1  0
  3  8  2  0
  8  9  1  0
  9 10  2  0
 10 13  1  0
 13 11  2  0
 11  3  1  0
M  END
$$$$
