No_1480-complexes_sdf/6BKW-FPZ/2024-09-17-14-21-01/
     RDKit          3D

 20 24  0  0  0  0  0  0  0  0999 V2000
   -7.9040    3.9820   27.1177 C   0  0  0  0  0  0  0  0  0  0  0  0
   -7.8663    4.8694   27.9238 C   0  0  0  0  0  0  0  0  0  0  0  0
   -7.4698    2.6989   27.4277 C   0  0  0  0  0  0  0  0  0  0  0  0
   -7.9683    1.5964   26.8266 C   0  0  1  0  0  0  0  0  0  0  0  0
   -8.9447    1.7923   25.8533 C   0  0  1  0  0  0  0  0  0  0  0  0
   -9.4405    2.9988   25.5757 C   0  0  0  0  0  0  0  0  0  0  0  0
   -8.9424    4.1117   26.2388 C   0  0  0  0  0  0  0  0  0  0  0  0
   -8.3103    6.1970   27.6444 N   0  0  0  0  0  0  0  0  0  0  0  0
   -9.2017    6.5264   26.7040 C   0  0  0  0  0  0  0  0  0  0  0  0
   -9.5492    5.4018   25.9329 C   0  0  1  0  0  0  0  0  0  0  0  0
   -7.2767    0.0336   27.1351 Cl  0  0  0  0  0  0  0  0  0  0  0  0
  -10.3824    3.1148   24.4589 C   0  0  0  0  0  0  0  0  0  0  0  0
  -10.4443    2.2676   23.5164 C   0  0  0  0  0  0  0  0  0  0  0  0
   -9.8162    0.9787   23.7828 C   0  0  0  0  0  0  0  0  0  0  0  0
   -9.0993    0.7248   24.8698 C   0  0  0  0  0  0  0  0  0  0  0  0
  -11.3453    2.3784   22.3854 C   0  0  0  0  0  0  0  0  0  0  0  0
  -11.2894    3.5090   21.7384 C   0  0  0  0  0  0  0  0  0  0  0  0
  -10.4780    4.5582   22.2584 C   0  0  0  0  0  0  0  0  0  0  0  0
  -10.3596    4.5842   23.7502 C   0  0  0  0  0  0  0  0  0  0  0  0
   -9.9809    5.6384   24.4989 N   0  0  0  0  0  0  0  0  0  0  0  0
  1  2  2  0
  1  3  1  0
  3  4  1  0
  4  5  1  0
  5  6  1  0
  1  7  1  0
  6  7  2  0
  2  8  1  0
  8  9  2  0
  7 10  1  0
 10  9  1  6
  4 11  1  6
  6 12  1  0
 12 13  2  0
 13 14  1  0
  5 15  1  6
 14 15  2  0
 13 16  1  0
 16 17  2  0
 17 18  1  0
 12 19  1  0
 18 19  1  0
 10 20  1  0
 19 20  2  0
M  END
$$$$
