No_1575-complexes_sdf/6BKW-FPZ/2024-09-17-14-21-01/
     RDKit          3D

 34 38  0  0  0  0  0  0  0  0999 V2000
   -7.9040    3.9820   27.1177 C   0  0  1  0  0  0  0  0  0  0  0  0
   -9.0711    4.3164   27.0630 C   0  0  2  0  0  0  0  0  0  0  0  0
   -9.8698    3.9665   25.9495 C   0  0  0  0  0  0  0  0  0  0  0  0
   -6.9515    4.6878   28.0207 C   0  0  0  0  0  0  0  0  0  0  0  0
  -10.0928    2.7224   25.5448 C   0  0  2  0  0  0  0  0  0  0  0  0
   -8.8585    1.9199   25.6941 C   0  0  0  0  0  0  0  0  0  0  0  0
   -7.9352    2.3912   26.8057 C   0  0  0  0  0  0  0  0  0  0  0  0
  -10.5510    2.5441   24.1037 C   0  0  0  0  0  0  0  0  0  0  0  0
  -10.2632    1.6393   23.3621 C   0  0  0  0  0  0  0  0  0  0  0  0
  -10.8531    1.4044   22.0448 C   0  0  0  0  0  0  0  0  0  0  0  0
  -11.7287    2.3452   21.5834 C   0  0  0  0  0  0  0  0  0  0  0  0
  -11.5188    3.5565   23.5543 C   0  0  0  0  0  0  0  0  0  0  0  0
  -12.0741    3.4371   22.3562 C   0  0  0  0  0  0  0  0  0  0  0  0
  -11.1910    2.1241   26.3849 C   0  0  2  0  0  0  0  0  0  0  0  0
  -10.7365    1.3560   27.4683 C   0  0  0  0  0  0  0  0  0  0  0  0
  -12.2401    1.3478   25.6536 C   0  0  0  0  0  0  0  0  0  0  0  0
  -13.0412    0.5496   26.5097 C   0  0  2  0  0  0  0  0  0  0  0  0
  -11.7108    0.7629   28.4668 C   0  0  0  0  0  0  0  0  0  0  0  0
  -12.5719   -0.0268   27.7185 C   0  0  0  0  0  0  0  0  0  0  0  0
  -12.0254    3.3282   27.1311 C   0  0  0  0  0  0  0  0  0  0  0  0
  -13.1958    3.7768   26.6127 C   0  0  0  0  0  0  0  0  0  0  0  0
   -9.3711    5.6541   27.7219 C   0  0  0  0  0  0  0  0  0  0  0  0
  -14.3548    3.7475   27.3873 C   0  0  0  0  0  0  0  0  0  0  0  0
  -15.5637    4.2665   26.8363 C   0  0  0  0  0  0  0  0  0  0  0  0
  -15.5378    4.7056   25.4827 C   0  0  0  0  0  0  0  0  0  0  0  0
  -14.4052    4.7081   24.7390 C   0  0  0  0  0  0  0  0  0  0  0  0
  -13.2151    4.2428   25.3232 C   0  0  0  0  0  0  0  0  0  0  0  0
  -14.3968    0.1982   26.0712 C   0  0  0  0  0  0  0  0  0  0  0  0
  -14.7854    0.3933   24.8370 C   0  0  0  0  0  0  0  0  0  0  0  0
  -16.1306    0.3626   24.4614 C   0  0  0  0  0  0  0  0  0  0  0  0
  -17.0489    0.0042   25.4175 C   0  0  0  0  0  0  0  0  0  0  0  0
  -16.6756   -0.2306   26.7240 C   0  0  0  0  0  0  0  0  0  0  0  0
  -15.3712   -0.0485   27.1242 C   0  0  0  0  0  0  0  0  0  0  0  0
  -14.3915    3.2793   28.6059 F   0  0  0  0  0  0  0  0  0  0  0  0
  1  2  1  0
  2  3  1  0
  1  4  1  1
  3  5  1  0
  5  6  1  0
  1  7  1  0
  6  7  1  0
  5  8  1  6
  5 14  1  0
 14 15  1  0
 14 16  1  0
 17 19  1  0
 18 19  1  0
 14 20  1  1
  2 22  1  6
 17 28  1  6
 23 34  1  0
 20 21  1  0
 15 18  1  0
 17 16  1  0
 21 23  2  0
 23 24  1  0
 24 25  2  0
 25 26  1  0
 26 27  2  0
 27 21  1  0
 28 29  2  0
 29 30  1  0
 30 31  2  0
 31 32  1  0
 32 33  2  0
 33 28  1  0
  8  9  2  0
  9 10  1  0
 10 11  2  0
 11 13  1  0
 13 12  2  0
 12  8  1  0
M  END
$$$$
