No_1811-complexes_sdf/6BKW-FPZ/2024-09-17-14-21-01/
     RDKit          3D

 12 12  0  0  0  0  0  0  0  0999 V2000
   -7.7129    4.2099   27.0854 C   0  0  0  0  0  0  0  0  0  0  0  0
   -8.9133    4.4736   27.0998 C   0  0  0  0  0  0  0  0  0  0  0  0
   -9.4643    5.5426   27.7628 C   0  0  0  0  0  0  0  0  0  0  0  0
   -6.8373    4.9942   27.9785 C   0  0  0  0  0  0  0  0  0  0  0  0
   -7.3932    6.0303   28.6784 C   0  0  0  0  0  0  0  0  0  0  0  0
   -8.7122    6.3429   28.5485 C   0  0  0  0  0  0  0  0  0  0  0  0
   -9.7990    3.6123   26.2052 C   0  0  0  0  0  0  0  0  0  0  0  0
  -10.0444    4.0879   24.9358 C   0  0  0  0  0  0  0  0  0  0  0  0
  -10.7304    3.4902   24.1339 C   0  0  0  0  0  0  0  0  0  0  0  0
  -10.9104    4.0045   22.7077 C   0  0  0  0  0  0  0  0  0  0  0  0
  -11.5514    3.2834   21.7624 C   0  0  0  0  0  0  0  0  0  0  0  0
  -11.9935    2.0079   22.0460 C   0  0  0  0  0  0  0  0  0  0  0  0
  2  7  1  0
  7  8  1  0
  8  9  2  3
  9 10  1  0
 10 11  2  3
 11 12  1  0
  1  2  2  0
  2  3  1  0
  3  6  2  0
  6  5  1  0
  5  4  2  0
  4  1  1  0
M  END
$$$$
