No_1757-complexes_sdf/6BKW-FPZ/2024-09-17-14-21-01/
     RDKit          3D

 13 13  0  0  0  0  0  0  0  0999 V2000
   -7.7129    4.2099   27.0854 C   0  0  0  0  0  0  0  0  0  0  0  0
   -8.2112    3.0637   26.9225 C   0  0  0  0  0  0  0  0  0  0  0  0
   -8.5108    5.3904   26.9436 C   0  0  0  0  0  0  0  0  0  0  0  0
   -7.9752    6.6981   27.2112 C   0  0  0  0  0  0  0  0  0  0  0  0
   -9.5213    2.8208   26.4688 C   0  0  0  0  0  0  0  0  0  0  0  0
  -10.2979    3.9327   26.2378 C   0  0  0  0  0  0  0  0  0  0  0  0
   -9.7894    5.2123   26.4395 C   0  0  0  0  0  0  0  0  0  0  0  0
   -7.3384    1.8199   27.1767 C   0  0  1  0  0  0  0  0  0  0  0  0
   -6.0583    2.0002   27.7739 C   0  0  0  0  0  0  0  0  0  0  0  0
   -5.2703    0.8342   28.0445 C   0  0  0  0  0  0  0  0  0  0  0  0
   -5.7662   -0.3982   27.8341 C   0  0  0  0  0  0  0  0  0  0  0  0
   -7.7756    0.5203   27.0159 C   0  0  0  0  0  0  0  0  0  0  0  0
   -9.0990    0.3832   26.5148 C   0  0  0  0  0  0  0  0  0  0  0  0
  3  4  1  0
  2  8  1  0
  8  9  1  0
  9 10  2  3
 10 11  1  0
  8 12  1  1
 12 13  2  0
  1  2  2  0
  2  5  1  0
  5  6  2  0
  6  7  1  0
  7  3  2  0
  3  1  1  0
M  END
$$$$
