No_1309-complexes_sdf/6BKW-FPZ/2024-09-17-14-21-01/
     RDKit          3D

 24 26  0  0  0  0  0  0  0  0999 V2000
   -7.9040    3.9820   27.1177 C   0  0  0  0  0  0  0  0  0  0  0  0
   -7.8663    4.8694   27.9238 C   0  0  0  0  0  0  0  0  0  0  0  0
   -9.0501    3.8017   26.2617 C   0  0  0  0  0  0  0  0  0  0  0  0
   -9.1826    2.7026   25.3575 C   0  0  0  0  0  0  0  0  0  0  0  0
   -8.6940    6.0131   27.8614 C   0  0  0  0  0  0  0  0  0  0  0  0
   -9.9755    4.8547   26.2361 C   0  0  0  0  0  0  0  0  0  0  0  0
   -9.7463    5.9398   27.0364 C   0  0  0  0  0  0  0  0  0  0  0  0
  -10.0161    2.8236   24.3578 N   0  0  0  0  0  0  0  0  0  0  0  0
  -10.0873    1.8961   23.3652 C   0  0  0  0  0  0  0  0  0  0  0  0
   -8.2889    1.8336   25.3905 O   0  0  0  0  0  0  0  0  0  0  0  0
  -11.3080    1.2800   23.2943 C   0  0  1  0  0  0  0  0  0  0  0  0
  -12.3327    1.5731   23.4803 C   0  0  0  0  0  0  0  0  0  0  0  0
  -12.4366    2.9545   23.9594 C   0  0  1  0  0  0  0  0  0  0  0  0
  -13.6954    3.6687   24.3982 C   0  0  0  0  0  0  0  0  0  0  0  0
  -11.1612    3.5947   24.3823 C   0  0  0  0  0  0  0  0  0  0  0  0
  -13.9983    3.8377   25.6759 C   0  0  0  0  0  0  0  0  0  0  0  0
  -15.1174    4.5737   26.0520 C   0  0  0  0  0  0  0  0  0  0  0  0
  -14.5856    4.0300   23.3497 C   0  0  0  0  0  0  0  0  0  0  0  0
  -15.7330    4.8284   23.6889 C   0  0  0  0  0  0  0  0  0  0  0  0
  -15.9849    5.0860   25.0454 C   0  0  0  0  0  0  0  0  0  0  0  0
  -11.2325   -0.0706   22.4499 C   0  0  0  0  0  0  0  0  0  0  0  0
  -10.2406   -0.6788   22.1727 O   0  0  0  0  0  0  0  0  0  0  0  0
  -12.2977   -0.5328   22.0341 F   0  0  0  0  0  0  0  0  0  0  0  0
  -14.2306    3.8120   21.7555 Cl  0  0  0  0  0  0  0  0  0  0  0  0
  3  4  1  0
  4  8  1  0
  8  9  1  0
  4 10  2  0
  9 11  1  0
 11 12  1  0
 12 13  1  0
 13 14  1  1
  8 15  1  0
 13 15  1  0
 11 21  1  6
 21 22  2  0
 21 23  1  0
 18 24  1  0
 14 16  2  0
 16 17  1  0
 17 20  2  0
 20 19  1  0
 19 18  2  0
 18 14  1  0
  1  2  2  0
  2  5  1  0
  5  7  2  0
  7  6  1  0
  6  3  2  0
  3  1  1  0
M  END
$$$$
