No_1996-complexes_sdf/6BKW-FPZ/2024-09-17-14-21-01/
     RDKit          3D

 19 20  0  0  0  0  0  0  0  0999 V2000
   -7.9040    3.9820   27.1177 C   0  0  0  0  0  0  0  0  0  0  0  0
   -7.8663    4.8694   27.9238 C   0  0  0  0  0  0  0  0  0  0  0  0
   -9.0501    3.8017   26.2617 C   0  0  0  0  0  0  0  0  0  0  0  0
  -10.0189    4.7608   26.3707 C   0  0  0  0  0  0  0  0  0  0  0  0
   -8.6770    5.9780   27.9222 C   0  0  0  0  0  0  0  0  0  0  0  0
   -9.8040    5.8752   27.0958 C   0  0  0  0  0  0  0  0  0  0  0  0
   -9.3560    2.6988   25.4290 C   0  0  0  0  0  0  0  0  0  0  0  0
   -8.8030    1.5707   25.7036 N   0  0  0  0  0  0  0  0  0  0  0  0
   -8.6940    0.5383   24.8496 C   0  0  0  0  0  0  0  0  0  0  0  0
   -9.6157    2.9990   24.2098 O   0  0  0  0  0  0  0  0  0  0  0  0
   -7.6992   -0.3962   25.0901 C   0  0  0  0  0  0  0  0  0  0  0  0
   -7.1167   -1.0552   24.0520 C   0  0  0  0  0  0  0  0  0  0  0  0
   -7.7116   -0.9656   22.7085 C   0  0  0  0  0  0  0  0  0  0  0  0
   -8.6883    0.0238   22.5247 C   0  0  0  0  0  0  0  0  0  0  0  0
   -9.0734    0.8268   23.5596 C   0  0  0  0  0  0  0  0  0  0  0  0
   -9.7005    2.0392   23.2581 N   0  0  0  0  0  0  0  0  0  0  0  0
  -10.2756    2.3760   22.0388 C   0  0  0  0  0  0  0  0  0  0  0  0
  -10.6864    1.1332   23.6930 C   0  0  0  0  0  0  0  0  0  0  0  0
  -11.4714    0.8258   22.6200 C   0  0  0  0  0  0  0  0  0  0  0  0
  3  7  1  0
  7  8  1  0
  8  9  1  0
  7 10  2  0
 15 16  1  0
 16 17  1  0
 16 18  1  0
 18 19  1  0
  1  2  2  0
  2  5  1  0
  5  6  2  0
  6  4  1  0
  4  3  2  0
  3  1  1  0
  9 11  2  0
 11 12  1  0
 12 13  2  0
 13 14  1  0
 14 15  2  0
 15  9  1  0
M  END
$$$$
