No_1576-complexes_sdf/6BKW-FPZ/2024-09-17-14-21-01/
     RDKit          3D

 24 26  0  0  0  0  0  0  0  0999 V2000
   -7.7129    4.2099   27.0854 C   0  0  0  0  0  0  0  0  0  0  0  0
   -8.2112    3.0637   26.9225 C   0  0  0  0  0  0  0  0  0  0  0  0
   -7.5138    1.9223   27.4249 C   0  0  0  0  0  0  0  0  0  0  0  0
   -8.5309    5.4147   26.8151 C   0  0  0  0  0  0  0  0  0  0  0  0
   -9.6817    5.2393   26.1100 C   0  0  0  0  0  0  0  0  0  0  0  0
  -10.1032    3.9957   25.8534 C   0  0  0  0  0  0  0  0  0  0  0  0
   -9.4035    2.8430   26.2573 C   0  0  0  0  0  0  0  0  0  0  0  0
   -6.1481    1.9922   27.8210 C   0  0  0  0  0  0  0  0  0  0  0  0
   -5.4897    0.8126   28.2236 C   0  0  0  0  0  0  0  0  0  0  0  0
   -6.0879   -0.4018   28.1493 C   0  0  0  0  0  0  0  0  0  0  0  0
   -7.9650    0.5820   27.3461 C   0  0  0  0  0  0  0  0  0  0  0  0
   -7.3675   -0.4821   27.7671 C   0  0  0  0  0  0  0  0  0  0  0  0
   -7.9823    6.7626   27.0888 C   0  0  0  0  0  0  0  0  0  0  0  0
   -8.6602    7.8471   26.7179 N   0  0  0  0  0  0  0  0  0  0  0  0
   -6.8426    6.8818   27.8001 N   0  0  0  0  0  0  0  0  0  0  0  0
   -3.6284    1.2303   28.7705 Br  0  0  0  0  0  0  0  0  0  0  0  0
  -11.3735    3.8481   25.0806 C   0  0  0  0  0  0  0  0  0  0  0  0
  -12.5773    3.5359   25.7106 C   0  0  0  0  0  0  0  0  0  0  0  0
  -12.6269    3.2981   27.0293 C   0  0  0  0  0  0  0  0  0  0  0  0
  -11.9190    3.0515   27.7993 C   0  0  0  0  0  0  0  0  0  0  0  0
  -12.2767    2.8279   29.3241 C   0  0  0  0  0  0  0  0  0  0  0  0
  -13.5137    3.1919   29.6888 C   0  0  0  0  0  0  0  0  0  0  0  0
  -14.4087    3.6494   28.7986 C   0  0  0  0  0  0  0  0  0  0  0  0
  -14.0696    3.7966   27.5081 C   0  0  0  0  0  0  0  0  0  0  0  0
  2  3  1  0
  4 13  1  0
 13 14  2  0
 13 15  1  0
  9 16  1  0
  6 17  1  0
 17 18  1  0
 18 19  1  0
  3  8  2  0
  8  9  1  0
  9 10  2  0
 10 12  1  0
 12 11  2  0
 11  3  1  0
  1  2  2  0
  2  7  1  0
  7  6  2  0
  6  5  1  0
  5  4  2  0
  4  1  1  0
 19 20  2  0
 20 21  1  0
 21 22  2  0
 22 23  1  0
 23 24  2  0
 24 19  1  0
M  END
$$$$
