No_1327-complexes_sdf/6BKW-FPZ/2024-09-17-14-21-01/
     RDKit          3D

 40 45  0  0  0  0  0  0  0  0999 V2000
   -7.9040    3.9820   27.1177 C   0  0  0  0  0  0  0  0  0  0  0  0
   -9.0711    4.3164   27.0630 C   0  0  0  0  0  0  0  0  0  0  0  0
   -9.5182    5.5541   27.5777 C   0  0  0  0  0  0  0  0  0  0  0  0
   -7.4468    2.6843   26.6499 C   0  0  0  0  0  0  0  0  0  0  0  0
   -6.3753    2.0179   27.3532 C   0  0  0  0  0  0  0  0  0  0  0  0
   -5.4479    2.9481   28.0075 C   0  0  0  0  0  0  0  0  0  0  0  0
   -5.8364    4.1920   28.2433 N   0  0  0  0  0  0  0  0  0  0  0  0
   -6.9633    4.6794   27.9475 C   0  0  0  0  0  0  0  0  0  0  0  0
  -10.0286    3.7347   26.1215 C   0  0  0  0  0  0  0  0  0  0  0  0
  -11.2318    3.2439   26.5728 C   0  0  0  0  0  0  0  0  0  0  0  0
  -12.1532    2.8763   25.7459 C   0  0  0  0  0  0  0  0  0  0  0  0
  -13.4554    2.4776   26.1615 C   0  0  0  0  0  0  0  0  0  0  0  0
  -13.7166    2.4611   27.5908 C   0  0  0  0  0  0  0  0  0  0  0  0
  -12.7402    2.8097   28.4992 C   0  0  0  0  0  0  0  0  0  0  0  0
  -11.4460    3.2255   28.0137 C   0  0  0  0  0  0  0  0  0  0  0  0
   -9.7191    3.6360   24.7455 C   0  0  0  0  0  0  0  0  0  0  0  0
   -7.1107    5.9520   28.4107 N   0  0  0  0  0  0  0  0  0  0  0  0
   -8.4836    6.4339   28.1324 C   0  0  0  0  0  0  0  0  0  0  0  0
   -5.9972    0.6839   27.0293 C   0  0  0  0  0  0  0  0  0  0  0  0
   -6.4617   -0.0636   27.8262 N   0  0  0  0  0  0  0  0  0  0  0  0
   -6.2118   -1.3478   27.9559 C   0  0  0  0  0  0  0  0  0  0  0  0
   -6.9074   -2.1134   28.9930 C   0  0  0  0  0  0  0  0  0  0  0  0
   -5.3939   -2.0023   27.3091 O   0  0  0  0  0  0  0  0  0  0  0  0
   -8.3018   -2.3807   28.8013 C   0  0  0  0  0  0  0  0  0  0  0  0
   -9.0937   -1.5427   28.1806 C   0  0  0  0  0  0  0  0  0  0  0  0
  -10.2727   -1.4683   28.1603 C   0  0  0  0  0  0  0  0  0  0  0  0
  -11.1331   -0.4577   27.4597 C   0  0  0  0  0  0  0  0  0  0  0  0
  -12.5078   -0.4380   27.5084 C   0  0  0  0  0  0  0  0  0  0  0  0
  -13.1261   -1.5065   28.1967 C   0  0  0  0  0  0  0  0  0  0  0  0
  -12.4224   -2.4961   28.8373 C   0  0  0  0  0  0  0  0  0  0  0  0
  -11.0598   -2.4909   28.8577 C   0  0  0  0  0  0  0  0  0  0  0  0
   -8.8493   -3.4494   29.5865 C   0  0  0  0  0  0  0  0  0  0  0  0
  -10.3384   -3.4242   29.6130 C   0  0  0  0  0  0  0  0  0  0  0  0
  -10.5539    3.0300   23.7812 C   0  0  0  0  0  0  0  0  0  0  0  0
  -11.8806    2.7597   24.3198 C   0  0  0  0  0  0  0  0  0  0  0  0
  -12.9652    2.7800   29.9630 C   0  0  0  0  0  0  0  0  0  0  0  0
  -13.9347    1.9434   30.5239 C   0  0  0  0  0  0  0  0  0  0  0  0
  -14.1944    2.0097   31.8747 C   0  0  0  0  0  0  0  0  0  0  0  0
  -13.6369    3.0627   32.6603 C   0  0  0  0  0  0  0  0  0  0  0  0
  -12.8572    4.0575   31.9919 C   0  0  0  0  0  0  0  0  0  0  0  0
  2  9  1  0
  5 19  1  0
 19 20  1  0
 20 21  1  0
 21 22  1  0
 21 23  2  0
 22 24  1  0
 14 36  1  0
 36 37  2  3
 37 38  1  0
 38 39  2  3
 39 40  1  0
  9 10  1  0
 11 35  1  0
 35 34  2  0
 34 16  1  0
 16  9  2  0
 24 25  2  0
 25 26  1  0
 31 33  1  0
 33 32  2  0
 32 24  1  0
 10 11  1  0
 11 12  2  0
 12 13  1  0
 13 14  2  0
 14 15  1  0
 15 10  2  0
  1  4  2  0
  4  5  1  0
  5  6  2  0
  6  7  1  0
  7  8  2  0
 26 27  2  0
 27 28  1  0
 28 29  2  0
 29 30  1  0
 30 31  2  0
 31 26  1  0
  1  2  1  0
  2  3  2  0
  3 18  1  0
 18 17  2  0
 17  8  1  0
  8  1  1  0
M  END
$$$$
