No_1135-complexes_sdf/6BKW-FPZ/2024-09-17-14-21-01/
     RDKit          3D

 12 13  0  0  0  0  0  0  0  0999 V2000
   -7.9040    3.9820   27.1177 C   0  0  0  0  0  0  0  0  0  0  0  0
   -8.2057    2.8231   26.8733 C   0  0  0  0  0  0  0  0  0  0  0  0
   -8.7463    4.9537   27.6708 C   0  0  0  0  0  0  0  0  0  0  0  0
  -10.0901    4.5164   28.0293 C   0  0  0  0  0  0  0  0  0  0  0  0
   -7.3231    1.8031   26.4889 C   0  0  0  0  0  0  0  0  0  0  0  0
   -9.5869    2.3362   27.0829 C   0  0  0  0  0  0  0  0  0  0  0  0
  -10.4621    3.2540   27.7278 C   0  0  0  0  0  0  0  0  0  0  0  0
   -6.3275    1.4512   27.5998 C   0  0  0  0  0  0  0  0  0  0  0  0
   -5.4877    0.3563   27.5308 C   0  0  0  0  0  0  0  0  0  0  0  0
   -5.7428   -0.5901   26.7971 C   0  0  0  0  0  0  0  0  0  0  0  0
   -6.7545   -0.4115   25.7380 C   0  0  0  0  0  0  0  0  0  0  0  0
   -7.6029    0.6442   25.7462 C   0  0  0  0  0  0  0  0  0  0  0  0
  2  5  1  0
  5  8  2  0
  8  9  1  0
  9 10  2  0
 10 11  1  0
 11 12  2  0
 12  5  1  0
  1  2  2  0
  2  6  1  0
  6  7  2  0
  7  4  1  0
  4  3  2  0
  3  1  1  0
M  END
$$$$
