No_1678-complexes_sdf/6BKW-FPZ/2024-09-17-14-21-01/
     RDKit          3D

 14 15  0  0  0  0  0  0  0  0999 V2000
   -7.7129    4.2099   27.0854 C   0  0  0  0  0  0  0  0  0  0  0  0
   -8.2112    3.0637   26.9225 C   0  0  0  0  0  0  0  0  0  0  0  0
   -9.4446    2.8304   26.1868 C   0  0  0  0  0  0  0  0  0  0  0  0
   -8.4697    5.3956   26.7238 C   0  0  0  0  0  0  0  0  0  0  0  0
   -9.6172    5.2111   25.9513 C   0  0  0  0  0  0  0  0  0  0  0  0
  -10.0424    3.9782   25.6873 C   0  0  0  0  0  0  0  0  0  0  0  0
   -7.9321    6.5759   26.9449 F   0  0  0  0  0  0  0  0  0  0  0  0
   -9.8969    1.4744   25.9401 C   0  0  0  0  0  0  0  0  0  0  0  0
   -9.1831    0.5114   26.0828 C   0  0  0  0  0  0  0  0  0  0  0  0
   -9.6289   -0.8410   25.9044 C   0  0  0  0  0  0  0  0  0  0  0  0
  -10.9676   -0.9780   25.5326 C   0  0  0  0  0  0  0  0  0  0  0  0
  -11.2227    1.1255   25.6089 C   0  0  0  0  0  0  0  0  0  0  0  0
  -11.7202    0.0115   25.4402 C   0  0  0  0  0  0  0  0  0  0  0  0
   -6.6026    4.4415   27.9120 O   0  0  0  0  0  0  0  0  0  0  0  0
  4  7  1  0
  3  8  1  0
  1 14  1  0
  1  2  2  0
  2  3  1  0
  3  6  2  0
  6  5  1  0
  5  4  2  0
  4  1  1  0
  8  9  2  0
  9 10  1  0
 10 11  2  0
 11 13  1  0
 13 12  2  0
 12  8  1  0
M  END
$$$$
