No_1013-complexes_sdf/6BKW-FPZ/2024-09-17-14-21-01/
     RDKit          3D

 14 14  0  0  0  0  0  0  0  0999 V2000
   -7.2496    3.8871   27.4508 C   0  0  0  0  0  0  0  0  0  0  0  0
   -7.9379    4.9063   27.8518 C   0  0  0  0  0  0  0  0  0  0  0  0
   -9.3460    4.8223   27.8695 C   0  0  0  0  0  0  0  0  0  0  0  0
   -7.8628    2.6163   27.1065 C   0  0  0  0  0  0  0  0  0  0  0  0
   -9.2787    2.5744   27.1970 C   0  0  0  0  0  0  0  0  0  0  0  0
  -10.0108    3.6770   27.6340 C   0  0  0  0  0  0  0  0  0  0  0  0
  -11.4834    3.5674   27.7432 C   0  0  0  0  0  0  0  0  0  0  0  0
  -12.3908    3.9887   27.3150 F   0  0  0  0  0  0  0  0  0  0  0  0
  -11.6428    3.7038   29.2456 F   0  0  0  0  0  0  0  0  0  0  0  0
   -7.1010    1.4776   26.7717 C   0  0  0  0  0  0  0  0  0  0  0  0
   -7.4383    0.9321   25.7126 F   0  0  0  0  0  0  0  0  0  0  0  0
   -6.3855    1.6874   27.5720 F   0  0  0  0  0  0  0  0  0  0  0  0
   -7.2004    6.4475   28.1780 Cl  0  0  0  0  0  0  0  0  0  0  0  0
  -11.7628    2.1598   27.6909 F   0  0  0  0  0  0  0  0  0  0  0  0
  6  7  1  0
  7  8  1  0
  7  9  1  0
  4 10  1  0
 10 11  1  0
 10 12  1  0
  2 13  1  0
  7 14  1  0
  1  2  2  0
  2  3  1  0
  3  6  2  0
  6  5  1  0
  5  4  2  0
  4  1  1  0
M  END
$$$$
