No_1364-complexes_sdf/6BKW-FPZ/2024-09-17-14-21-01/
     RDKit          3D

 18 19  0  0  0  0  0  0  0  0999 V2000
   -7.9040    3.9820   27.1177 C   0  0  0  0  0  0  0  0  0  0  0  0
   -8.2057    2.8231   26.8733 C   0  0  0  0  0  0  0  0  0  0  0  0
   -9.2962    2.4021   26.1155 C   0  0  0  0  0  0  0  0  0  0  0  0
   -8.7358    5.0662   26.5917 C   0  0  0  0  0  0  0  0  0  0  0  0
   -9.7618    4.7023   25.7546 C   0  0  0  0  0  0  0  0  0  0  0  0
  -10.0066    3.4105   25.4922 C   0  0  0  0  0  0  0  0  0  0  0  0
   -8.3943    6.4761   26.8801 C   0  0  0  0  0  0  0  0  0  0  0  0
   -8.6599    6.8011   28.0203 F   0  0  0  0  0  0  0  0  0  0  0  0
   -7.0507    6.6848   26.7335 F   0  0  0  0  0  0  0  0  0  0  0  0
   -8.9447    7.2930   25.9189 F   0  0  0  0  0  0  0  0  0  0  0  0
   -7.3605    1.6688   27.5005 C   0  0  0  0  0  0  0  0  0  0  0  0
   -5.9683    1.8573   27.7291 C   0  0  0  0  0  0  0  0  0  0  0  0
   -5.1927    0.8100   28.2861 C   0  0  0  0  0  0  0  0  0  0  0  0
   -3.8385    1.0063   28.6408 C   0  0  0  0  0  0  0  0  0  0  0  0
   -5.5502   -0.5035   27.6983 C   0  0  0  0  0  0  0  0  0  0  0  0
   -3.1957   -0.1773   29.0038 C   0  0  0  0  0  0  0  0  0  0  0  0
   -4.8212   -1.6131   28.1660 C   0  0  0  0  0  0  0  0  0  0  0  0
   -3.6078   -1.4071   28.7920 C   0  0  0  0  0  0  0  0  0  0  0  0
  4  7  1  0
  7  8  1  0
  7  9  1  0
  7 10  1  0
  2 11  1  0
 11 12  2  3
 12 13  1  0
 13 14  2  0
 14 16  1  0
 16 18  2  0
 18 17  1  0
 17 15  2  0
 15 13  1  0
  1  2  2  0
  2  3  1  0
  3  6  2  0
  6  5  1  0
  5  4  2  0
  4  1  1  0
M  END
$$$$
