No_1614-complexes_sdf/6BKW-FPZ/2024-09-17-14-21-01/
     RDKit          3D

 20 22  0  0  0  0  0  0  0  0999 V2000
   -7.9040    3.9820   27.1177 C   0  0  0  0  0  0  0  0  0  0  0  0
   -7.8663    4.8694   27.9238 C   0  0  0  0  0  0  0  0  0  0  0  0
   -9.0501    3.8017   26.2617 C   0  0  0  0  0  0  0  0  0  0  0  0
   -9.1826    2.7026   25.3575 C   0  0  0  0  0  0  0  0  0  0  0  0
   -8.6940    6.0131   27.8614 C   0  0  0  0  0  0  0  0  0  0  0  0
   -9.9755    4.8547   26.2361 C   0  0  0  0  0  0  0  0  0  0  0  0
   -9.7463    5.9398   27.0364 C   0  0  0  0  0  0  0  0  0  0  0  0
   -8.7594    1.1745   25.8230 P   0  0  1  0  0  0  0  0  0  0  0  0
   -9.8299    0.6512   26.5861 O   0  0  0  0  0  0  0  0  0  0  0  0
   -8.6159    0.3702   24.5574 O   0  0  0  0  0  0  0  0  0  0  0  0
   -7.4145    1.1633   26.5557 O   0  0  0  0  0  0  0  0  0  0  0  0
  -10.8403    1.2938   27.1935 C   0  0  0  0  0  0  0  0  0  0  0  0
  -11.7378    0.4000   27.9721 C   0  0  0  0  0  0  0  0  0  0  0  0
  -12.6499    1.0425   28.8485 C   0  0  0  0  0  0  0  0  0  0  0  0
  -12.5090    2.4691   29.0594 C   0  0  0  0  0  0  0  0  0  0  0  0
  -11.4923    3.2238   28.4676 C   0  0  0  0  0  0  0  0  0  0  0  0
  -10.5513    2.5764   27.6318 C   0  0  0  0  0  0  0  0  0  0  0  0
   -9.8326    2.4504   28.8498 C   0  0  0  0  0  0  0  0  0  0  0  0
   -8.6530    3.0004   28.1077 C   0  0  0  0  0  0  0  0  0  0  0  0
   -7.5818    2.1838   28.4792 O   0  0  0  0  0  0  0  0  0  0  0  0
  3  4  1  0
  4  8  1  0
  8  9  1  0
  8 10  2  0
  8 11  1  1
  9 12  1  0
 17 18  1  0
  1 19  1  0
 18 19  1  0
 19 20  1  0
 12 13  2  0
 13 14  1  0
 14 15  2  0
 15 16  1  0
 16 17  2  0
 17 12  1  0
  1  2  2  0
  2  5  1  0
  5  7  2  0
  7  6  1  0
  6  3  2  0
  3  1  1  0
M  END
$$$$
