No_1372-complexes_sdf/6BKW-FPZ/2024-09-17-14-21-01/
     RDKit          3D

 37 41  0  0  0  0  0  0  0  0999 V2000
   -7.2496    3.8871   27.4508 C   0  0  0  0  0  0  0  0  0  0  0  0
   -7.9379    4.9063   27.8518 C   0  0  0  0  0  0  0  0  0  0  0  0
   -9.3460    4.8223   27.8695 C   0  0  0  0  0  0  0  0  0  0  0  0
   -7.8628    2.6163   27.1065 C   0  0  0  0  0  0  0  0  0  0  0  0
   -9.2787    2.5744   27.1970 C   0  0  0  0  0  0  0  0  0  0  0  0
  -10.0108    3.6770   27.6340 C   0  0  0  0  0  0  0  0  0  0  0  0
  -11.4834    3.5674   27.7432 C   0  0  0  0  0  0  0  0  0  0  0  0
  -11.9395    2.6434   28.4995 C   0  0  0  0  0  0  0  0  0  0  0  0
  -13.3550    2.4593   28.7913 C   0  0  0  0  0  0  0  0  0  0  0  0
  -14.1867    3.4420   28.2483 C   0  0  0  0  0  0  0  0  0  0  0  0
  -13.6865    4.4698   27.4825 C   0  0  0  0  0  0  0  0  0  0  0  0
  -12.3085    4.6362   27.2712 C   0  0  0  0  0  0  0  0  0  0  0  0
   -7.1242    1.4617   26.7667 C   0  0  0  0  0  0  0  0  0  0  0  0
   -7.6508    0.6237   25.8851 N   0  0  0  0  0  0  0  0  0  0  0  0
   -7.1042   -0.5843   25.6618 C   0  0  0  0  0  0  0  0  0  0  0  0
   -6.0750    1.2069   27.4459 O   0  0  0  0  0  0  0  0  0  0  0  0
   -7.2715    6.2070   28.1696 C   0  0  0  0  0  0  0  0  0  0  0  0
   -6.3459   -1.0904   26.2166 C   0  0  0  0  0  0  0  0  0  0  0  0
   -7.6493   -1.1671   24.3640 C   0  0  0  0  0  0  0  0  0  0  0  0
   -5.7367   -2.4357   25.8592 C   0  0  0  0  0  0  0  0  0  0  0  0
   -7.1827   -2.3993   23.9207 C   0  0  0  0  0  0  0  0  0  0  0  0
   -6.2037   -3.0284   24.6980 C   0  0  0  0  0  0  0  0  0  0  0  0
  -15.6765    3.3327   28.4418 C   0  0  0  0  0  0  0  0  0  0  0  0
  -16.3669    4.0248   27.8121 C   0  0  0  0  0  0  0  0  0  0  0  0
  -15.8981    5.2480   27.0555 C   0  0  0  0  0  0  0  0  0  0  0  0
  -14.5707    5.4448   26.8700 C   0  0  0  0  0  0  0  0  0  0  0  0
  -13.8232    1.3811   29.6254 C   0  0  0  0  0  0  0  0  0  0  0  0
  -13.9671    1.2712   30.6634 C   0  0  0  0  0  0  0  0  0  0  0  0
  -13.9846    0.1710   28.7059 C   0  0  0  0  0  0  0  0  0  0  0  0
  -14.4606    0.1860   31.4501 C   0  0  0  0  0  0  0  0  0  0  0  0
  -14.5272   -0.9695   29.3326 C   0  0  0  0  0  0  0  0  0  0  0  0
  -14.7002   -0.9768   30.7144 C   0  0  0  0  0  0  0  0  0  0  0  0
  -15.1690   -2.1232   31.2967 O   0  0  0  0  0  0  0  0  0  0  0  0
  -13.7535    2.5624   31.6653 C   0  0  0  0  0  0  0  0  0  0  0  0
  -13.5649    2.4306   32.8476 O   0  0  0  0  0  0  0  0  0  0  0  0
  -13.6838    3.7405   31.0842 O   0  0  0  0  0  0  0  0  0  0  0  0
  -15.0238   -2.2521   32.6405 C   0  0  0  0  0  0  0  0  0  0  0  0
  6  7  1  0
  4 13  1  0
 13 14  1  0
 14 15  1  0
 13 16  2  0
  2 17  1  0
  9 27  1  0
 32 33  1  0
 28 34  1  0
 34 35  2  0
 34 36  1  0
 33 37  1  0
 27 28  2  0
 28 30  1  0
 30 32  2  0
 32 31  1  0
 31 29  2  0
 29 27  1  0
  1  2  2  0
  2  3  1  0
  3  6  2  0
  6  5  1  0
  5  4  2  0
  4  1  1  0
  7  8  2  0
  8  9  1  0
  9 10  2  0
 11 12  2  0
 12  7  1  0
 15 18  2  0
 18 20  1  0
 20 22  2  0
 22 21  1  0
 21 19  2  0
 19 15  1  0
 10 11  1  0
 11 26  1  0
 26 25  2  0
 25 24  1  0
 24 23  2  0
 23 10  1  0
M  END
$$$$
