No_1304-complexes_sdf/6BKW-FPZ/2024-09-17-14-21-01/
     RDKit          3D

 39 42  0  0  0  0  0  0  0  0999 V2000
   -7.9040    3.9820   27.1177 C   0  0  0  0  0  0  0  0  0  0  0  0
   -8.2057    2.8231   26.8733 C   0  0  0  0  0  0  0  0  0  0  0  0
   -9.2962    2.4021   26.1155 C   0  0  0  0  0  0  0  0  0  0  0  0
   -8.7358    5.0662   26.5917 C   0  0  0  0  0  0  0  0  0  0  0  0
   -9.7618    4.7023   25.7546 C   0  0  0  0  0  0  0  0  0  0  0  0
  -10.0066    3.4105   25.4922 C   0  0  0  0  0  0  0  0  0  0  0  0
   -8.3943    6.4760   26.8801 C   0  0  0  0  0  0  0  0  0  0  0  0
   -8.5947    7.4080   26.1130 N   0  0  0  0  0  0  0  0  0  0  0  0
   -7.5592    6.5953   27.9508 N   0  0  0  0  0  0  0  0  0  0  0  0
   -7.1395    1.3609   27.6530 Br  0  0  0  0  0  0  0  0  0  0  0  0
  -11.1007    3.1135   24.5604 C   0  0  0  0  0  0  0  0  0  0  0  0
  -10.8651    2.4655   23.5192 N   0  0  0  0  0  0  0  0  0  0  0  0
  -11.3177    2.5427   22.3831 C   0  0  0  0  0  0  0  0  0  0  0  0
  -10.8413    1.7250   21.2882 C   0  0  0  0  0  0  0  0  0  0  0  0
   -9.7922    0.8687   21.8032 C   0  0  0  0  0  0  0  0  0  0  0  0
   -9.3395    0.8571   23.0006 C   0  0  1  0  0  0  0  0  0  0  0  0
   -8.2445   -0.0006   23.4043 C   0  0  0  0  0  0  0  0  0  0  0  0
   -9.7547    1.6291   23.8278 C   0  0  0  0  0  0  0  0  0  0  0  0
   -8.1953   -1.2779   23.6888 C   0  0  0  0  0  0  0  0  0  0  0  0
   -7.0864   -2.0073   24.1371 C   0  0  0  0  0  0  0  0  0  0  0  0
   -6.2642   -1.5625   24.5275 C   0  0  0  0  0  0  0  0  0  0  0  0
   -5.0081   -2.3059   25.0729 C   0  0  0  0  0  0  0  0  0  0  0  0
   -3.9596   -1.6608   25.8433 C   0  0  0  0  0  0  0  0  0  0  0  0
   -4.0943   -0.2354   25.9865 C   0  0  0  0  0  0  0  0  0  0  0  0
   -5.2794    0.4291   25.6160 C   0  0  0  0  0  0  0  0  0  0  0  0
   -6.1510   -0.1614   25.0056 C   0  0  0  0  0  0  0  0  0  0  0  0
   -7.2919    0.5933   24.3656 C   0  0  0  0  0  0  0  0  0  0  0  0
   -2.9980    0.4092   26.8101 C   0  0  0  0  0  0  0  0  0  0  0  0
   -2.7974    0.1045   27.9437 O   0  0  0  0  0  0  0  0  0  0  0  0
   -2.4306    1.4972   26.2826 O   0  0  0  0  0  0  0  0  0  0  0  0
  -12.2563    3.6772   24.8291 O   0  0  0  0  0  0  0  0  0  0  0  0
   -3.5759   -0.0512   28.9311 C   0  0  0  0  0  0  0  0  0  0  0  0
   -3.1443   -0.6778   30.1482 C   0  0  0  0  0  0  0  0  0  0  0  0
   -4.0388   -0.6194   31.2743 C   0  0  0  0  0  0  0  0  0  0  0  0
   -4.5728   -1.2434   31.8514 C   0  0  0  0  0  0  0  0  0  0  0  0
   -5.5733   -0.8256   32.9589 C   0  0  0  0  0  0  0  0  0  0  0  0
   -6.0289   -1.5941   33.7952 C   0  0  0  0  0  0  0  0  0  0  0  0
   -5.9163   -2.9753   33.7165 C   0  0  0  0  0  0  0  0  0  0  0  0
   -5.1231   -3.4943   32.7186 C   0  0  0  0  0  0  0  0  0  0  0  0
  4  7  1  0
  7  8  2  0
  7  9  1  0
  2 10  1  0
  6 11  1  0
 11 12  1  0
 12 13  1  0
 14 15  1  0
 16 17  1  6
 12 18  1  0
 16 18  1  0
 24 28  1  0
 28 29  1  0
 28 30  2  0
 11 31  2  0
 29 32  1  0
 32 33  2  3
 33 34  1  0
 34 35  3  0
 35 36  1  0
 36 37  2  3
 37 38  1  0
 38 39  2  0
 13 14  1  0
 15 16  1  0
  1  2  2  0
  2  3  1  0
  3  6  2  0
  6  5  1  0
  5  4  2  0
  4  1  1  0
 17 19  2  0
 19 20  1  0
 20 21  2  0
 26 27  2  0
 27 17  1  0
 21 22  1  0
 22 23  2  0
 23 24  1  0
 24 25  2  0
 25 26  1  0
 26 21  1  0
M  END
$$$$
