No_1548-complexes_sdf/6BKW-FPZ/2024-09-17-14-21-01/
     RDKit          3D

 10  9  0  0  0  0  0  0  0  0999 V2000
   -7.7129    4.2099   27.0854 C   0  0  0  0  0  0  0  0  0  0  0  0
   -8.9133    4.4736   27.0998 C   0  0  1  0  0  0  0  0  0  0  0  0
   -9.4643    5.5426   27.7628 C   0  0  0  0  0  0  0  0  0  0  0  0
   -9.8091    3.6358   26.2841 C   0  0  0  0  0  0  0  0  0  0  0  0
   -9.4101    2.5938   25.7918 C   0  0  0  0  0  0  0  0  0  0  0  0
   -6.8235    4.9017   28.1362 C   0  0  0  0  0  0  0  0  0  0  0  0
   -9.9871    1.3606   26.2109 C   0  0  0  0  0  0  0  0  0  0  0  0
   -9.4088    0.0957   25.8545 C   0  0  0  0  0  0  0  0  0  0  0  0
   -9.8014   -1.0006   26.2899 C   0  0  0  0  0  0  0  0  0  0  0  0
   -9.1744   -2.2378   26.0159 C   0  0  0  0  0  0  0  0  0  0  0  0
  1  2  1  0
  2  3  1  6
  2  4  1  0
  4  5  1  0
  1  6  1  0
  5  7  2  3
  7  8  1  0
  8  9  2  3
  9 10  1  0
M  END
$$$$
