No_1636-complexes_sdf/6BKW-FPZ/2024-09-17-14-21-01/
     RDKit          3D

 20 21  0  0  0  0  0  0  0  0999 V2000
   -7.7129    4.2099   27.0854 C   0  0  0  0  0  0  0  0  0  0  0  0
   -8.9133    4.4736   27.0998 C   0  0  0  0  0  0  0  0  0  0  0  0
   -9.4643    5.5426   27.7628 C   0  0  0  0  0  0  0  0  0  0  0  0
   -7.2009    2.9448   26.6134 C   0  0  0  0  0  0  0  0  0  0  0  0
   -8.1365    1.9533   26.2981 C   0  0  0  0  0  0  0  0  0  0  0  0
   -9.4501    2.2651   26.2497 C   0  0  0  0  0  0  0  0  0  0  0  0
   -9.8615    3.4703   26.6763 C   0  0  0  0  0  0  0  0  0  0  0  0
   -7.5886    0.6540   25.9006 C   0  0  2  0  0  0  0  0  0  0  0  0
   -6.4057   -0.0380   26.7558 Cl  0  0  0  0  0  0  0  0  0  0  0  0
   -7.6677    0.5284   24.3811 C   0  0  0  0  0  0  0  0  0  0  0  0
   -7.2833   -0.8089   23.9628 C   0  0  0  0  0  0  0  0  0  0  0  0
   -7.2119   -0.9267   22.6366 N   0  0  0  0  0  0  0  0  0  0  0  0
   -8.1008   -1.8304   22.0346 C   0  0  0  0  0  0  0  0  0  0  0  0
   -7.9775   -1.9599   20.6369 C   0  0  0  0  0  0  0  0  0  0  0  0
   -9.5486   -1.4765   22.2816 C   0  0  0  0  0  0  0  0  0  0  0  0
  -10.4867   -2.1698   21.5348 C   0  0  0  0  0  0  0  0  0  0  0  0
   -8.8530   -2.8057   19.8198 C   0  0  0  0  0  0  0  0  0  0  0  0
  -10.2699   -2.3897   20.1273 C   0  0  0  0  0  0  0  0  0  0  0  0
   -6.6278   -1.6146   24.6614 O   0  0  0  0  0  0  0  0  0  0  0  0
  -11.2046   -2.8043   19.2897 O   0  0  0  0  0  0  0  0  0  0  0  0
  5  8  1  0
  8  9  1  6
  8 10  1  0
 10 11  1  0
 11 12  1  0
 12 13  1  0
 13 15  1  0
 14 17  1  0
 16 18  1  0
 17 18  1  0
 11 19  2  0
 18 20  2  0
  3  2  1  0
 16 15  1  0
 13 14  1  0
  1  2  2  0
  2  7  1  0
  7  6  2  0
  6  5  1  0
  5  4  2  0
  4  1  1  0
M  END
$$$$
