No_1683-complexes_sdf/6BKW-FPZ/2024-09-17-14-21-01/
     RDKit          3D

 13 14  0  0  0  0  0  0  0  0999 V2000
   -7.7129    4.2099   27.0854 C   0  0  0  0  0  0  0  0  0  0  0  0
   -7.7814    5.1722   27.8972 C   0  0  0  0  0  0  0  0  0  0  0  0
   -8.8776    3.8408   26.3416 C   0  0  0  0  0  0  0  0  0  0  0  0
   -8.9136    2.6330   25.5655 C   0  0  0  0  0  0  0  0  0  0  0  0
   -8.8361    6.1389   27.9032 C   0  0  0  0  0  0  0  0  0  0  0  0
   -9.9718    4.7048   26.3433 C   0  0  0  0  0  0  0  0  0  0  0  0
   -9.9205    5.8499   27.1013 C   0  0  0  0  0  0  0  0  0  0  0  0
   -9.7172    1.7020   26.0925 C   0  0  0  0  0  0  0  0  0  0  0  0
  -10.6782    1.7000   26.7400 C   0  0  0  0  0  0  0  0  0  0  0  0
  -11.3004    0.7923   27.4052 C   0  0  0  0  0  0  0  0  0  0  0  0
  -10.8118   -0.5617   27.1755 C   0  0  0  0  0  0  0  0  0  0  0  0
   -9.1787    0.2547   25.9693 C   0  0  0  0  0  0  0  0  0  0  0  0
   -9.7605   -0.7533   26.5007 C   0  0  0  0  0  0  0  0  0  0  0  0
  3  4  1  0
  4  8  1  0
  1  2  2  0
  2  5  1  0
  5  7  2  0
  7  6  1  0
  6  3  2  0
  3  1  1  0
  8  9  2  0
  9 10  1  0
 10 11  2  0
 11 13  1  0
 13 12  2  0
 12  8  1  0
M  END
$$$$
