No_1618-complexes_sdf/6BKW-FPZ/2024-09-17-14-21-01/
     RDKit          3D

 15 16  0  0  0  0  0  0  0  0999 V2000
   -7.9040    3.9820   27.1177 C   0  0  0  0  0  0  0  0  0  0  0  0
   -7.8663    4.8694   27.9238 C   0  0  0  0  0  0  0  0  0  0  0  0
   -9.0501    3.8017   26.2617 C   0  0  0  0  0  0  0  0  0  0  0  0
   -9.1826    2.7026   25.3575 C   0  0  0  0  0  0  0  0  0  0  0  0
   -8.6940    6.0131   27.8614 C   0  0  0  0  0  0  0  0  0  0  0  0
   -9.9755    4.8547   26.2361 C   0  0  0  0  0  0  0  0  0  0  0  0
   -9.7463    5.9398   27.0365 C   0  0  0  0  0  0  0  0  0  0  0  0
   -8.7094    1.4766   25.7702 C   0  0  0  0  0  0  0  0  0  0  0  0
   -9.8701    2.8497   24.1394 C   0  0  0  0  0  0  0  0  0  0  0  0
   -8.8286    0.4017   24.9127 C   0  0  0  0  0  0  0  0  0  0  0  0
   -9.9524    1.7536   23.3054 C   0  0  0  0  0  0  0  0  0  0  0  0
   -9.4143    0.5348   23.6888 C   0  0  0  0  0  0  0  0  0  0  0  0
   -9.5580   -0.6210   22.7482 C   0  0  0  0  0  0  0  0  0  0  0  0
  -10.2061   -0.5024   21.6149 C   0  0  0  0  0  0  0  0  0  0  0  0
  -10.7156    0.8326   21.2297 C   0  0  0  0  0  0  0  0  0  0  0  0
  3  4  1  0
 12 13  1  0
 13 14  2  3
 14 15  1  0
  4  8  2  0
  8 10  1  0
 10 12  2  0
 12 11  1  0
 11  9  2  0
  9  4  1  0
  1  2  2  0
  2  5  1  0
  5  7  2  0
  7  6  1  0
  6  3  2  0
  3  1  1  0
M  END
$$$$
