No_19-complexes_sdf/6BKW-FPZ/2024-09-17-14-21-01/
     RDKit          3D

 21 23  0  0  0  0  0  0  0  0999 V2000
   -7.9040    3.9820   27.1177 C   0  0  0  0  0  0  0  0  0  0  0  0
   -9.0711    4.3164   27.0630 C   0  0  0  0  0  0  0  0  0  0  0  0
   -9.5182    5.5541   27.5777 C   0  0  0  0  0  0  0  0  0  0  0  0
   -7.4468    2.6843   26.6499 C   0  0  0  0  0  0  0  0  0  0  0  0
   -8.3856    1.7878   26.2216 C   0  0  0  0  0  0  0  0  0  0  0  0
   -9.6812    2.2328   26.0889 C   0  0  0  0  0  0  0  0  0  0  0  0
  -10.0147    3.4312   26.5259 C   0  0  0  0  0  0  0  0  0  0  0  0
   -7.9132    0.4733   25.8127 C   0  0  0  0  0  0  0  0  0  0  0  0
   -8.2415    0.0028   24.6609 C   0  0  0  0  0  0  0  0  0  0  0  0
   -9.0553    0.8046   23.7422 C   0  0  0  0  0  0  0  0  0  0  0  0
   -9.4505    0.4296   22.5125 C   0  0  0  0  0  0  0  0  0  0  0  0
   -8.8776   -0.8142   22.0411 C   0  0  0  0  0  0  0  0  0  0  0  0
   -9.2079   -1.2380   20.7426 C   0  0  0  0  0  0  0  0  0  0  0  0
  -10.2353   -0.5897   20.0479 C   0  0  0  0  0  0  0  0  0  0  0  0
  -10.8408    0.5578   20.5469 C   0  0  0  0  0  0  0  0  0  0  0  0
  -10.4455    1.0765   21.7896 C   0  0  0  0  0  0  0  0  0  0  0  0
   -9.8627    1.8168   24.5078 C   0  0  0  0  0  0  0  0  0  0  0  0
   -8.6568    6.5783   27.7617 N   0  0  0  0  0  0  0  0  0  0  0  0
   -7.8226    6.8887   26.6709 C   0  0  0  0  0  0  0  0  0  0  0  0
   -7.8413    8.3959   26.6205 C   0  0  0  0  0  0  0  0  0  0  0  0
  -10.7276    5.7032   27.9551 O   0  0  0  0  0  0  0  0  0  0  0  0
  2  3  1  0
  3 18  1  0
 18 19  1  0
 19 20  1  0
  3 21  2  0
 10 11  1  0
 11 12  2  0
 12 13  1  0
 13 14  2  0
 14 15  1  0
 15 16  2  0
 16 11  1  0
  6 17  1  0
 17 10  2  0
 10  9  1  0
  9  8  2  0
  8  5  1  0
  1  2  2  0
  2  7  1  0
  7  6  2  0
  6  5  1  0
  5  4  2  0
  4  1  1  0
M  END
$$$$
