No_1552-complexes_sdf/6BKW-FPZ/2024-09-17-14-21-01/
     RDKit          3D

 37 42  0  0  0  0  0  0  0  0999 V2000
   -7.9040    3.9820   27.1177 C   0  0  0  0  0  0  0  0  0  0  0  0
   -7.8663    4.8694   27.9238 C   0  0  0  0  0  0  0  0  0  0  0  0
   -9.0501    3.8017   26.2617 C   0  0  0  0  0  0  0  0  0  0  0  0
   -9.1826    2.7026   25.3575 C   0  0  0  0  0  0  0  0  0  0  0  0
   -8.6940    6.0131   27.8614 C   0  0  0  0  0  0  0  0  0  0  0  0
   -9.9755    4.8547   26.2361 C   0  0  0  0  0  0  0  0  0  0  0  0
   -9.7463    5.9398   27.0364 C   0  0  0  0  0  0  0  0  0  0  0  0
  -10.1068    2.7543   24.3357 C   0  0  0  0  0  0  0  0  0  0  0  0
  -10.9412    3.9321   24.2588 C   0  0  0  0  0  0  0  0  0  0  0  0
  -10.8667    4.8721   25.1739 N   0  0  0  0  0  0  0  0  0  0  0  0
  -11.8768    3.9513   23.3394 N   0  0  0  0  0  0  0  0  0  0  0  0
   -6.9521    2.8000   27.2967 C   0  0  0  0  0  0  0  0  0  0  0  0
   -5.8220    2.9132   27.9309 N   0  0  0  0  0  0  0  0  0  0  0  0
   -5.0087    1.7984   28.0385 C   0  0  0  0  0  0  0  0  0  0  0  0
   -5.4589    0.5662   27.7107 C   0  0  0  0  0  0  0  0  0  0  0  0
   -7.3263    1.5148   27.0463 N   0  0  0  0  0  0  0  0  0  0  0  0
   -6.7166    0.4348   27.2141 C   0  0  0  0  0  0  0  0  0  0  0  0
   -4.6182   -0.6178   28.0208 C   0  0  0  0  0  0  0  0  0  0  0  0
   -3.5667   -0.6050   28.5715 C   0  0  0  0  0  0  0  0  0  0  0  0
   -2.7143   -1.7442   28.8411 C   0  0  0  0  0  0  0  0  0  0  0  0
   -3.2532   -2.9611   28.4990 C   0  0  0  0  0  0  0  0  0  0  0  0
   -5.0970   -1.9261   27.7366 C   0  0  0  0  0  0  0  0  0  0  0  0
   -4.4223   -3.0186   27.9370 C   0  0  0  0  0  0  0  0  0  0  0  0
  -13.1355    4.1640   23.3749 C   0  0  0  0  0  0  0  0  0  0  0  0
  -13.7374    4.2091   24.5592 C   0  0  0  0  0  0  0  0  0  0  0  0
  -15.1234    4.5872   24.6988 C   0  0  0  0  0  0  0  0  0  0  0  0
  -15.7698    4.6484   25.9720 C   0  0  0  0  0  0  0  0  0  0  0  0
  -15.0022    4.3935   27.1406 C   0  0  0  0  0  0  0  0  0  0  0  0
  -13.6389    4.0637   27.0217 C   0  0  0  0  0  0  0  0  0  0  0  0
  -13.0775    3.9939   25.8853 C   0  0  0  0  0  0  0  0  0  0  0  0
  -13.8397    4.3879   22.3637 O   0  0  0  0  0  0  0  0  0  0  0  0
  -10.2798    1.6511   23.4310 C   0  0  0  0  0  0  0  0  0  0  0  0
   -9.9377    1.6778   22.4149 C   0  0  0  0  0  0  0  0  0  0  0  0
   -9.9609    0.5608   21.4253 C   0  0  0  0  0  0  0  0  0  0  0  0
  -10.5447   -0.5936   21.8902 C   0  0  0  0  0  0  0  0  0  0  0  0
  -11.0641   -0.6259   23.1529 C   0  0  0  0  0  0  0  0  0  0  0  0
  -10.8925    0.4583   24.0302 C   0  0  0  0  0  0  0  0  0  0  0  0
  9 11  1  0
  1 12  1  0
 15 18  1  0
 11 24  1  0
 24 25  1  0
 24 31  2  0
  8 32  1  0
 25 26  2  0
 26 27  1  0
 27 28  2  0
 28 29  1  0
 29 30  2  0
 30 25  1  0
 32 33  2  0
 33 34  1  0
 34 35  2  0
 35 36  1  0
 36 37  2  0
 37 32  1  0
  3  4  2  0
  4  8  1  0
  8  9  2  0
  9 10  1  0
 10  6  2  0
 12 13  2  0
 13 14  1  0
 14 15  2  0
 15 17  1  0
 17 16  2  0
 16 12  1  0
 18 19  2  0
 19 20  1  0
 20 21  2  0
 21 23  1  0
 23 22  2  0
 22 18  1  0
  1  2  2  0
  2  5  1  0
  5  7  2  0
  7  6  1  0
  6  3  1  0
  3  1  1  0
M  END
$$$$
