No_1122-complexes_sdf/6BKW-FPZ/2024-09-17-14-21-01/
     RDKit          3D

 31 35  0  0  0  0  0  0  0  0999 V2000
   -7.2496    3.8871   27.4508 C   0  0  0  0  0  0  0  0  0  0  0  0
   -8.5096    4.0291   27.2770 C   0  0  2  0  0  0  0  0  0  0  0  0
   -9.2677    5.1714   27.5773 C   0  0  1  0  0  0  0  0  0  0  0  0
   -9.3517    2.7730   27.3663 C   0  0  0  0  0  0  0  0  0  0  0  0
  -10.5955    2.9149   27.5392 C   0  0  0  0  0  0  0  0  0  0  0  0
   -8.4901    6.4176   27.4779 C   0  0  0  0  0  0  0  0  0  0  0  0
  -11.4383    1.7436   27.6238 C   0  0  0  0  0  0  0  0  0  0  0  0
  -10.8099    0.5218   27.4253 C   0  0  0  0  0  0  0  0  0  0  0  0
   -8.7121    1.4561   27.3168 C   0  0  0  0  0  0  0  0  0  0  0  0
   -9.4501    0.3802   27.2875 C   0  0  0  0  0  0  0  0  0  0  0  0
  -10.6533    5.2071   27.6387 C   0  0  0  0  0  0  0  0  0  0  0  0
  -11.3373    4.1245   27.7463 C   0  0  1  0  0  0  0  0  0  0  0  0
  -12.7921    4.1863   27.9089 C   0  0  0  0  0  0  0  0  0  0  0  0
  -13.6541    4.4075   26.8396 C   0  0  0  0  0  0  0  0  0  0  0  0
  -14.8577    4.9875   27.0196 C   0  0  0  0  0  0  0  0  0  0  0  0
  -15.3514    5.1697   28.3727 C   0  0  0  0  0  0  0  0  0  0  0  0
  -14.5653    4.8507   29.4410 C   0  0  0  0  0  0  0  0  0  0  0  0
  -13.2759    4.4336   29.2466 C   0  0  0  0  0  0  0  0  0  0  0  0
  -11.6646   -0.7220   27.5484 C   0  0  2  0  0  0  0  0  0  0  0  0
  -11.5615   -1.4595   28.4059 C   0  0  0  0  0  0  0  0  0  0  0  0
  -11.9878   -1.9380   29.2061 C   0  0  0  0  0  0  0  0  0  0  0  0
  -11.9190   -2.6535   30.2256 C   0  0  0  0  0  0  0  0  0  0  0  0
  -10.5548   -3.0849   30.4972 C   0  0  0  0  0  0  0  0  0  0  0  0
   -9.5939   -2.6687   29.6485 C   0  0  0  0  0  0  0  0  0  0  0  0
   -9.9272   -1.7969   28.6717 C   0  0  0  0  0  0  0  0  0  0  0  0
   -8.8935   -0.9166   27.8810 C   0  0  0  0  0  0  0  0  0  0  0  0
   -8.6283    7.4778   26.6123 N   0  0  0  0  0  0  0  0  0  0  0  0
   -7.5473    6.6448   28.4009 O   0  0  0  0  0  0  0  0  0  0  0  0
  -11.5250   -1.2610   26.1416 C   0  0  0  0  0  0  0  0  0  0  0  0
  -13.1852   -0.1671   27.6230 C   0  0  0  0  0  0  0  0  0  0  0  0
  -11.8769   -1.7712   25.2673 C   0  0  0  0  0  0  0  0  0  0  0  0
  2  1  1  1
  2  3  1  0
  2  4  1  0
  3  6  1  6
  3 11  1  0
  5 12  1  0
 11 12  1  0
 12 13  1  6
  8 19  1  0
 19 20  1  0
 10 26  1  0
 25 26  1  0
  6 27  1  0
  6 28  2  0
 19 29  1  0
 19 30  1  6
 29 31  3  0
  4  5  2  0
  5  7  1  0
  7  8  2  0
  8 10  1  0
 10  9  2  0
  9  4  1  0
 20 21  2  0
 21 22  1  0
 22 23  2  0
 23 24  1  0
 24 25  2  0
 25 20  1  0
 13 14  2  0
 14 15  1  0
 15 16  2  0
 16 17  1  0
 17 18  2  0
 18 13  1  0
M  END
$$$$
