No_1971-complexes_sdf/6BKW-FPZ/2024-09-17-14-21-01/
     RDKit          3D

 14 16  0  0  0  0  0  0  0  0999 V2000
   -7.9040    3.9820   27.1177 C   0  0  0  0  0  0  0  0  0  0  0  0
   -7.8663    4.8694   27.9238 C   0  0  0  0  0  0  0  0  0  0  0  0
   -9.0501    3.8017   26.2617 C   0  0  0  0  0  0  0  0  0  0  0  0
   -9.1826    2.7026   25.3575 C   0  0  0  0  0  0  0  0  0  0  0  0
   -8.6940    6.0131   27.8614 C   0  0  0  0  0  0  0  0  0  0  0  0
  -10.1138    4.6733   26.4644 C   0  0  0  0  0  0  0  0  0  0  0  0
   -9.8579    5.8496   27.1764 C   0  0  0  0  0  0  0  0  0  0  0  0
   -8.6820    1.4638   25.6980 C   0  0  0  0  0  0  0  0  0  0  0  0
  -10.4284    2.6773   24.6348 C   0  0  0  0  0  0  0  0  0  0  0  0
  -10.4030    1.8914   23.4832 C   0  0  0  0  0  0  0  0  0  0  0  0
   -8.6591    0.4638   24.6926 C   0  0  0  0  0  0  0  0  0  0  0  0
   -9.6482    0.6009   23.6405 C   0  0  0  0  0  0  0  0  0  0  0  0
  -11.1796    4.5982   25.5676 C   0  0  0  0  0  0  0  0  0  0  0  0
  -11.2660    3.7075   24.5755 C   0  0  0  0  0  0  0  0  0  0  0  0
  3  4  2  0
  9 14  2  0
 14 13  1  0
 13  6  2  0
  4  8  1  0
  8 11  2  0
 11 12  1  0
 12 10  2  0
 10  9  1  0
  9  4  1  0
  1  2  2  0
  2  5  1  0
  5  7  2  0
  7  6  1  0
  6  3  1  0
  3  1  1  0
M  END
$$$$
