No_166-complexes_sdf/6BKW-FPZ/2024-09-17-14-21-01/
     RDKit          3D

 28 30  0  0  0  0  0  0  0  0999 V2000
   -7.9040    3.9820   27.1177 C   0  0  0  0  0  0  0  0  0  0  0  0
   -8.2057    2.8231   26.8733 C   0  0  0  0  0  0  0  0  0  0  0  0
   -9.2962    2.4021   26.1155 C   0  0  0  0  0  0  0  0  0  0  0  0
   -6.8682    4.5169   28.0704 C   0  0  0  0  0  0  0  0  0  0  0  0
  -10.0578    3.3688   25.5520 C   0  0  0  0  0  0  0  0  0  0  0  0
   -9.6997    4.7480   25.6981 C   0  0  0  0  0  0  0  0  0  0  0  0
   -8.6783    5.1111   26.5262 C   0  0  0  0  0  0  0  0  0  0  0  0
  -11.1704    3.0677   24.6150 C   0  0  0  0  0  0  0  0  0  0  0  0
  -11.2492    3.6669   23.4645 C   0  0  0  0  0  0  0  0  0  0  0  0
  -12.3144    3.4338   22.5189 C   0  0  0  0  0  0  0  0  0  0  0  0
  -13.2668    2.4927   22.8705 C   0  0  0  0  0  0  0  0  0  0  0  0
  -12.1550    2.1651   24.8978 C   0  0  0  0  0  0  0  0  0  0  0  0
  -13.1795    1.9114   24.0857 C   0  0  0  0  0  0  0  0  0  0  0  0
   -7.0302    5.6411   28.6810 N   0  0  0  0  0  0  0  0  0  0  0  0
   -5.7841    3.8545   28.0221 O   0  0  0  0  0  0  0  0  0  0  0  0
  -14.2506    0.9205   24.4344 C   0  0  0  0  0  0  0  0  0  0  0  0
  -15.1062    0.5692   23.8492 C   0  0  0  0  0  0  0  0  0  0  0  0
  -15.3275    1.1635   22.5724 C   0  0  0  0  0  0  0  0  0  0  0  0
  -14.3946    2.2133   22.0582 C   0  0  0  0  0  0  0  0  0  0  0  0
  -16.4481    0.8534   21.6433 C   0  0  0  0  0  0  0  0  0  0  0  0
  -17.5750    0.7768   21.9065 O   0  0  0  0  0  0  0  0  0  0  0  0
  -16.0486    0.5880   20.3139 N   0  0  0  0  0  0  0  0  0  0  0  0
  -16.5391    0.2507   19.4616 C   0  0  0  0  0  0  0  0  0  0  0  0
  -16.3626   -0.3421   18.5402 C   0  0  0  0  0  0  0  0  0  0  0  0
  -16.2197   -1.6839   18.5952 C   0  0  0  0  0  0  0  0  0  0  0  0
  -16.0117   -2.5623   17.4363 C   0  0  0  0  0  0  0  0  0  0  0  0
  -15.8774   -1.9119   16.2337 C   0  0  0  0  0  0  0  0  0  0  0  0
  -15.9915   -0.5895   16.0741 C   0  0  0  0  0  0  0  0  0  0  0  0
  1  4  1  0
  5  8  1  0
  4 14  1  0
  4 15  2  0
 18 20  1  0
 20 21  2  0
 20 22  1  0
 22 23  1  0
 23 24  2  3
 24 25  1  0
 25 26  2  3
 26 27  1  0
 27 28  2  0
 13 16  1  0
 16 17  2  0
 17 18  1  0
 18 19  2  0
 19 11  1  0
  8  9  2  0
  9 10  1  0
 10 11  2  0
 11 13  1  0
 13 12  2  0
 12  8  1  0
  1  2  2  0
  2  3  1  0
  3  5  2  0
  5  6  1  0
  6  7  2  0
  7  1  1  0
M  END
$$$$
