No_1635-complexes_sdf/6BKW-FPZ/2024-09-17-14-21-01/
     RDKit          3D

 13 13  0  0  0  0  0  0  0  0999 V2000
   -7.7129    4.2099   27.0854 C   0  0  0  0  0  0  0  0  0  0  0  0
   -8.9133    4.4736   27.0998 C   0  0  0  0  0  0  0  0  0  0  0  0
   -9.8363    3.8127   27.2418 C   0  0  0  0  0  0  0  0  0  0  0  0
   -7.2995    2.8520   27.3808 C   0  0  0  0  0  0  0  0  0  0  0  0
   -5.9719    2.4237   27.5059 C   0  0  0  0  0  0  0  0  0  0  0  0
   -9.6377    2.3570   27.5375 C   0  0  0  0  0  0  0  0  0  0  0  0
   -8.3201    1.9228   27.6137 C   0  0  0  0  0  0  0  0  0  0  0  0
   -5.5780    1.1540   27.5212 N   0  0  0  0  0  0  0  0  0  0  0  0
   -4.3023    0.8875   27.9045 C   0  0  0  0  0  0  0  0  0  0  0  0
   -4.1221   -0.3134   28.4926 C   0  0  0  0  0  0  0  0  0  0  0  0
   -4.2245   -1.3434   28.2240 C   0  0  0  0  0  0  0  0  0  0  0  0
   -4.8287   -1.4795   26.8842 C   0  0  0  0  0  0  0  0  0  0  0  0
   -5.9249   -0.8323   26.3386 C   0  0  0  0  0  0  0  0  0  0  0  0
  4  5  1  0
  5  8  2  3
  8  9  1  0
  9 10  1  0
 10 11  2  3
 11 12  1  0
 12 13  2  0
  1  2  2  0
  2  3  1  0
  3  6  2  0
  6  7  1  0
  7  4  2  0
  4  1  1  0
M  END
$$$$
