No_1658-complexes_sdf/6BKW-FPZ/2024-09-17-14-21-01/
     RDKit          3D

 25 27  0  0  0  0  0  0  0  0999 V2000
   -7.2496    3.8871   27.4508 C   0  0  0  0  0  0  0  0  0  0  0  0
   -7.6161    2.7143   27.1523 C   0  0  0  0  0  0  0  0  0  0  0  0
   -6.9719    1.5838   27.5324 C   0  0  0  0  0  0  0  0  0  0  0  0
   -5.6316    1.7305   27.9933 C   0  0  0  0  0  0  0  0  0  0  0  0
   -8.0192    5.1128   27.1337 C   0  0  0  0  0  0  0  0  0  0  0  0
   -7.6458    6.4118   27.6522 C   0  0  0  0  0  0  0  0  0  0  0  0
   -4.8895    0.5541   28.3726 C   0  0  0  0  0  0  0  0  0  0  0  0
   -9.1420    5.0124   26.2666 C   0  0  0  0  0  0  0  0  0  0  0  0
   -5.4469   -0.6924   28.2796 C   0  0  0  0  0  0  0  0  0  0  0  0
   -7.4292    0.2587   27.3641 C   0  0  0  0  0  0  0  0  0  0  0  0
   -6.7318   -0.8327   27.7575 C   0  0  0  0  0  0  0  0  0  0  0  0
   -9.5250    3.7578   25.7849 C   0  0  0  0  0  0  0  0  0  0  0  0
   -8.7800    2.6081   26.2307 C   0  0  0  0  0  0  0  0  0  0  0  0
   -3.5141    0.7538   28.9380 C   0  0  0  0  0  0  0  0  0  0  0  0
   -2.9127    1.6058   28.4950 F   0  0  0  0  0  0  0  0  0  0  0  0
   -2.8613   -0.4911   28.9115 F   0  0  0  0  0  0  0  0  0  0  0  0
   -3.7210    0.9351   30.3281 F   0  0  0  0  0  0  0  0  0  0  0  0
   -8.3142    7.4925   27.2048 N   0  0  0  0  0  0  0  0  0  0  0  0
  -10.5929    3.6322   24.8679 C   0  0  0  0  0  0  0  0  0  0  0  0
  -11.8971    3.7531   25.2414 C   0  0  0  0  0  0  0  0  0  0  0  0
  -10.3044    3.3785   23.4833 C   0  0  0  0  0  0  0  0  0  0  0  0
  -12.9278    3.6561   24.3403 C   0  0  0  0  0  0  0  0  0  0  0  0
  -11.2692    3.3807   22.5314 C   0  0  0  0  0  0  0  0  0  0  0  0
  -12.6342    3.5459   22.9799 C   0  0  0  0  0  0  0  0  0  0  0  0
   -6.6910    6.5230   28.4060 O   0  0  0  0  0  0  0  0  0  0  0  0
  2  3  1  0
  5  6  1  0
  7 14  1  0
 14 15  1  0
 14 16  1  0
 14 17  1  0
  6 18  1  0
 12 19  1  0
  6 25  2  0
  3  4  2  0
  4  7  1  0
  7  9  2  0
  9 11  1  0
 11 10  2  0
 10  3  1  0
 19 20  2  0
 20 22  1  0
 22 24  2  0
 24 23  1  0
 23 21  2  0
 21 19  1  0
  1  2  2  0
  2 13  1  0
 13 12  2  0
 12  8  1  0
  8  5  2  0
  5  1  1  0
M  END
$$$$
