No_1222-complexes_sdf/6BKW-FPZ/2024-09-17-14-21-01/
     RDKit          3D

 26 29  0  0  0  0  0  0  0  0999 V2000
   -7.9040    3.9820   27.1177 C   0  0  0  0  0  0  0  0  0  0  0  0
   -8.2057    2.8231   26.8733 C   0  0  0  0  0  0  0  0  0  0  0  0
   -8.7695    5.0740   26.7916 C   0  0  0  0  0  0  0  0  0  0  0  0
   -9.9618    4.7598   26.1630 C   0  0  0  0  0  0  0  0  0  0  0  0
   -9.4200    2.4524   26.2849 C   0  0  0  0  0  0  0  0  0  0  0  0
  -10.2590    3.4815   25.9250 C   0  0  0  0  0  0  0  0  0  0  0  0
   -8.2841    6.8625   27.1684 Br  0  0  0  0  0  0  0  0  0  0  0  0
   -7.2609    1.6840   27.2728 C   0  0  0  0  0  0  0  0  0  0  0  0
   -7.5335    0.3384   27.1721 C   0  0  0  0  0  0  0  0  0  0  0  0
   -6.6383   -0.5904   27.6319 C   0  0  0  0  0  0  0  0  0  0  0  0
   -5.4060   -0.1415   28.1902 C   0  0  0  0  0  0  0  0  0  0  0  0
   -5.1234    1.2251   28.2622 C   0  0  0  0  0  0  0  0  0  0  0  0
   -5.9638    2.0933   27.8325 C   0  0  0  0  0  0  0  0  0  0  0  0
   -4.4494   -1.1758   28.7233 C   0  0  0  0  0  0  0  0  0  0  0  0
   -4.3328   -2.2224   28.4660 C   0  0  0  0  0  0  0  0  0  0  0  0
   -3.3317   -3.1506   29.0319 C   0  0  0  0  0  0  0  0  0  0  0  0
   -2.3931   -2.6538   29.9412 C   0  0  0  0  0  0  0  0  0  0  0  0
   -3.4652   -0.4671   29.7243 C   0  0  0  0  0  0  0  0  0  0  0  0
   -2.5082   -1.2761   30.2996 C   0  0  0  0  0  0  0  0  0  0  0  0
  -11.5155    3.2056   25.1752 C   0  0  0  0  0  0  0  0  0  0  0  0
  -11.6004    2.1045   24.4365 C   0  0  0  0  0  0  0  0  0  0  0  0
  -12.7800    1.8315   23.6863 C   0  0  0  0  0  0  0  0  0  0  0  0
  -12.8636    0.6745   22.9041 C   0  0  0  0  0  0  0  0  0  0  0  0
  -11.7237   -0.1665   22.7993 C   0  0  0  0  0  0  0  0  0  0  0  0
  -10.5433    0.1041   23.4267 C   0  0  0  0  0  0  0  0  0  0  0  0
  -10.4561    1.2919   24.2062 C   0  0  0  0  0  0  0  0  0  0  0  0
  3  7  1  0
  2  8  1  0
 11 14  1  0
  6 20  1  0
 20 21  1  0
 14 15  2  0
 15 16  1  0
 16 17  2  0
 17 19  1  0
 19 18  2  0
 18 14  1  0
  8  9  2  0
  9 10  1  0
 10 11  2  0
 11 12  1  0
 12 13  2  0
 13  8  1  0
  1  2  2  0
  2  5  1  0
  5  6  2  0
  6  4  1  0
  4  3  2  0
  3  1  1  0
 21 22  2  0
 22 23  1  0
 23 24  2  0
 24 25  1  0
 25 26  2  0
 26 21  1  0
M  END
$$$$
