No_1032-complexes_sdf/6BKW-FPZ/2024-09-17-14-21-01/
     RDKit          3D

 17 18  0  0  0  0  0  0  0  0999 V2000
   -7.9040    3.9820   27.1177 C   0  0  0  0  0  0  0  0  0  0  0  0
   -7.8663    4.8694   27.9238 C   0  0  0  0  0  0  0  0  0  0  0  0
   -9.0501    3.8017   26.2617 C   0  0  0  0  0  0  0  0  0  0  0  0
   -9.1826    2.7026   25.3575 C   0  0  0  0  0  0  0  0  0  0  0  0
   -8.6940    6.0131   27.8614 C   0  0  0  0  0  0  0  0  0  0  0  0
  -10.1138    4.6733   26.4644 C   0  0  0  0  0  0  0  0  0  0  0  0
   -9.8579    5.8496   27.1764 C   0  0  0  0  0  0  0  0  0  0  0  0
   -9.9730    2.8641   24.3147 N   0  0  0  0  0  0  0  0  0  0  0  0
  -10.0383    1.8328   23.4208 C   0  0  0  0  0  0  0  0  0  0  0  0
   -8.7853    1.5557   25.6593 N   0  0  0  0  0  0  0  0  0  0  0  0
   -7.9848    1.2778   26.8152 C   0  0  0  0  0  0  0  0  0  0  0  0
   -8.0612   -0.1559   27.2187 C   0  0  0  0  0  0  0  0  0  0  0  0
   -9.0352    0.6917   24.6030 C   0  0  0  0  0  0  0  0  0  0  0  0
   -6.8703   -0.6775   27.4872 C   0  0  0  0  0  0  0  0  0  0  0  0
   -6.8010   -2.0198   27.9724 C   0  0  0  0  0  0  0  0  0  0  0  0
   -9.6143    0.7807   23.5026 C   0  0  0  0  0  0  0  0  0  0  0  0
   -9.7057   -0.2934   22.5273 C   0  0  0  0  0  0  0  0  0  0  0  0
  3  4  1  0
  4  8  2  0
  8  9  1  0
  4 10  1  0
 10 11  1  0
 11 12  1  0
  9 13  1  0
 10 13  1  0
 12 14  1  0
 14 15  2  0
  9 16  1  0
 16 17  1  0
  1  2  2  0
  2  5  1  0
  5  7  2  0
  7  6  1  0
  6  3  2  0
  3  1  1  0
M  END
$$$$
