No_1654-complexes_sdf/6BKW-FPZ/2024-09-17-14-21-01/
     RDKit          3D

 13 14  0  0  0  0  0  0  0  0999 V2000
   -7.9040    3.9820   27.1177 C   0  0  0  0  0  0  0  0  0  0  0  0
   -9.0711    4.3164   27.0630 C   0  0  0  0  0  0  0  0  0  0  0  0
   -9.5294    5.4517   27.7215 C   0  0  0  0  0  0  0  0  0  0  0  0
   -6.9328    4.7309   27.8881 C   0  0  0  0  0  0  0  0  0  0  0  0
   -7.3377    5.8421   28.5537 C   0  0  0  0  0  0  0  0  0  0  0  0
   -8.6411    6.2609   28.3972 C   0  0  0  0  0  0  0  0  0  0  0  0
  -10.0467    3.4917   26.2630 C   0  0  0  0  0  0  0  0  0  0  0  0
  -10.6901    2.6509   26.7331 C   0  0  0  0  0  0  0  0  0  0  0  0
  -10.5676    2.3700   28.2205 C   0  0  0  0  0  0  0  0  0  0  0  0
  -11.5654    1.6690   26.0584 C   0  0  0  0  0  0  0  0  0  0  0  0
  -12.2785    0.9599   26.4878 C   0  0  0  0  0  0  0  0  0  0  0  0
  -11.5138    1.3816   28.8149 C   0  0  0  0  0  0  0  0  0  0  0  0
  -12.2975    0.6355   27.9564 C   0  0  0  0  0  0  0  0  0  0  0  0
  2  7  1  0
  7  8  1  0
  1  2  2  0
  2  3  1  0
  3  6  2  0
  6  5  1  0
  5  4  2  0
  4  1  1  0
  8  9  2  0
  9 12  1  0
 12 13  2  0
 13 11  1  0
 11 10  2  0
 10  8  1  0
M  END
$$$$
