No_156-complexes_sdf/6BKW-FPZ/2024-09-17-14-21-01/
     RDKit          3D

 40 44  0  0  0  0  0  0  0  0999 V2000
   -7.2496    3.8871   27.4508 C   0  0  0  0  0  0  0  0  0  0  0  0
   -7.9379    4.9063   27.8518 C   0  0  0  0  0  0  0  0  0  0  0  0
   -9.3376    4.8647   27.7795 C   0  0  0  0  0  0  0  0  0  0  0  0
   -7.8544    2.6294   27.0414 C   0  0  0  0  0  0  0  0  0  0  0  0
   -9.2852    2.6570   27.0666 C   0  0  0  0  0  0  0  0  0  0  0  0
  -10.0126    3.7528   27.4890 C   0  0  0  0  0  0  0  0  0  0  0  0
   -9.9609    1.3640   26.7239 C   0  0  0  0  0  0  0  0  0  0  0  0
   -9.5398    0.4290   26.1345 C   0  0  0  0  0  0  0  0  0  0  0  0
   -8.2891    0.5312   25.5731 C   0  0  0  0  0  0  0  0  0  0  0  0
   -7.3748    1.6317   26.1679 C   0  0  0  0  0  0  0  0  0  0  0  0
  -11.4499    3.6702   27.6901 C   0  0  0  0  0  0  0  0  0  0  0  0
  -11.9602    4.1858   28.6223 C   0  0  0  0  0  0  0  0  0  0  0  0
  -13.4631    4.1985   28.8322 C   0  0  0  0  0  0  0  0  0  0  0  0
  -14.2090    3.7319   27.7840 C   0  0  0  0  0  0  0  0  0  0  0  0
  -12.3302    3.2426   26.6489 C   0  0  0  0  0  0  0  0  0  0  0  0
  -13.6280    3.2932   26.6836 C   0  0  0  0  0  0  0  0  0  0  0  0
   -7.2870    5.9786   28.2572 F   0  0  0  0  0  0  0  0  0  0  0  0
  -10.2923   -0.7475   25.7102 C   0  0  0  0  0  0  0  0  0  0  0  0
  -10.3103   -1.8706   26.5948 C   0  0  0  0  0  0  0  0  0  0  0  0
  -11.1270   -2.8216   26.4274 C   0  0  0  0  0  0  0  0  0  0  0  0
  -11.0831   -0.7915   24.6163 C   0  0  0  0  0  0  0  0  0  0  0  0
  -11.9543   -1.8583   24.3789 C   0  0  0  0  0  0  0  0  0  0  0  0
  -11.9468   -2.9025   25.2912 C   0  0  0  0  0  0  0  0  0  0  0  0
  -12.7887   -3.9160   25.0219 O   0  0  0  0  0  0  0  0  0  0  0  0
  -14.4467    2.7874   25.5561 C   0  0  0  0  0  0  0  0  0  0  0  0
  -15.0320    1.8199   25.6098 O   0  0  0  0  0  0  0  0  0  0  0  0
  -14.3046    3.3982   24.4242 F   0  0  0  0  0  0  0  0  0  0  0  0
  -12.9041   -4.9644   25.7333 C   0  0  0  0  0  0  0  0  0  0  0  0
  -12.2943   -5.1399   26.6790 C   0  0  0  0  0  0  0  0  0  0  0  0
  -11.2589   -4.0727   27.2580 C   0  0  0  0  0  0  0  0  0  0  0  0
  -13.8508   -5.9394   25.2742 C   0  0  0  0  0  0  0  0  0  0  0  0
  -14.0344   -6.9639   25.7616 N   0  0  0  0  0  0  0  0  0  0  0  0
  -14.7547   -5.5598   24.3967 O   0  0  0  0  0  0  0  0  0  0  0  0
  -14.7031   -7.9904   25.5175 C   0  0  0  0  0  0  0  0  0  0  0  0
   -9.3908   -1.7842   27.8403 C   0  0  0  0  0  0  0  0  0  0  0  0
   -8.0829   -2.3229   27.7805 C   0  0  0  0  0  0  0  0  0  0  0  0
   -7.3011   -2.0958   28.8558 C   0  0  0  0  0  0  0  0  0  0  0  0
   -5.8961   -2.0265   28.8326 C   0  0  0  0  0  0  0  0  0  0  0  0
   -5.2836   -2.4698   27.6641 C   0  0  0  0  0  0  0  0  0  0  0  0
   -3.8991   -2.4103   27.5938 C   0  0  0  0  0  0  0  0  0  0  0  0
  6 11  1  0
  2 17  1  0
  8 18  1  0
 23 24  1  0
 16 25  1  0
 25 26  2  0
 25 27  1  0
 24 28  1  0
 28 29  2  0
 20 30  1  0
 29 30  1  0
 28 31  1  0
 31 32  1  0
 31 33  2  0
 32 34  1  0
 19 35  1  0
 35 36  1  0
 36 37  2  3
 37 38  1  0
 38 39  2  3
 39 40  1  0
 18 19  2  0
 19 20  1  0
 20 23  2  0
 23 22  1  0
 22 21  2  0
 21 18  1  0
  5  7  2  0
  7  8  1  0
  8  9  2  0
  9 10  1  0
 10  4  2  0
  1  2  2  0
  2  3  1  0
  3  6  2  0
  6  5  1  0
  5  4  1  0
  4  1  1  0
 11 12  2  0
 12 13  1  0
 13 14  2  0
 14 16  1  0
 16 15  2  0
 15 11  1  0
M  END
$$$$
