No_1337-complexes_sdf/6BKW-FPZ/2024-09-17-14-21-01/
     RDKit          3D

 26 29  0  0  0  0  0  0  0  0999 V2000
   -7.7129    4.2099   27.0854 C   0  0  0  0  0  0  0  0  0  0  0  0
   -8.2112    3.0637   26.9225 C   0  0  0  0  0  0  0  0  0  0  0  0
   -9.4446    2.8304   26.1868 C   0  0  0  0  0  0  0  0  0  0  0  0
   -8.4697    5.3956   26.7238 C   0  0  0  0  0  0  0  0  0  0  0  0
   -9.6172    5.2111   25.9513 C   0  0  0  0  0  0  0  0  0  0  0  0
  -10.0424    3.9782   25.6873 C   0  0  0  0  0  0  0  0  0  0  0  0
   -7.5056    1.8167   27.4088 C   0  0  0  0  0  0  0  0  0  0  0  0
   -8.0829    0.6212   27.3227 N   0  0  0  0  0  0  0  0  0  0  0  0
   -6.1971    1.8986   27.7575 N   0  0  0  0  0  0  0  0  0  0  0  0
   -9.2700    0.2600   27.0486 C   0  0  0  0  0  0  0  0  0  0  0  0
   -9.7753   -0.6881   27.0149 C   0  0  0  0  0  0  0  0  0  0  0  0
  -10.1960    1.4426   26.4959 C   0  0  0  0  0  0  0  0  0  0  0  0
  -11.2875    3.8151   24.8913 C   0  0  0  0  0  0  0  0  0  0  0  0
  -12.4405    3.6826   25.5008 C   0  0  0  0  0  0  0  0  0  0  0  0
  -11.1635    3.7466   23.4851 C   0  0  0  0  0  0  0  0  0  0  0  0
  -13.6110    3.5747   24.7311 C   0  0  0  0  0  0  0  0  0  0  0  0
  -12.2605    3.7455   22.6876 C   0  0  0  0  0  0  0  0  0  0  0  0
  -13.4977    3.6292   23.3362 C   0  0  0  0  0  0  0  0  0  0  0  0
   -5.4341    0.8360   28.1289 C   0  0  0  0  0  0  0  0  0  0  0  0
   -5.3332   -0.1795   27.9083 C   0  0  0  0  0  0  0  0  0  0  0  0
   -4.4139   -1.1177   28.4962 C   0  0  0  0  0  0  0  0  0  0  0  0
   -4.3074    1.2877   28.8895 N   0  0  0  0  0  0  0  0  0  0  0  0
   -3.4919    0.3972   29.3733 C   0  0  0  0  0  0  0  0  0  0  0  0
   -3.4435   -0.8812   29.2155 C   0  0  0  0  0  0  0  0  0  0  0  0
  -10.8728   -1.1902   26.7160 C   0  0  0  0  0  0  0  0  0  0  0  0
  -11.4191   -2.5332   26.8014 C   0  0  0  0  0  0  0  0  0  0  0  0
  7  9  1  0
  6 13  1  0
  9 19  1  0
 11 25  1  0
 25 26  2  0
 11 10  1  0
 13 14  2  0
 14 16  1  0
 16 18  2  0
 18 17  1  0
 17 15  2  0
 15 13  1  0
  1  2  2  0
  3  6  2  0
  6  5  1  0
  5  4  2  0
  4  1  1  0
  2  3  1  0
  3 12  1  0
 12 10  2  0
 10  8  1  0
  8  7  2  0
  7  2  1  0
 19 20  2  0
 20 21  1  0
 21 24  2  0
 24 23  1  0
 23 22  2  0
 22 19  1  0
M  END
$$$$
