No_1058-complexes_sdf/6BKW-FPZ/2024-09-17-14-21-01/
     RDKit          3D

 11 11  0  0  0  0  0  0  0  0999 V2000
   -7.2496    3.8871   27.4508 C   0  0  0  0  0  0  0  0  0  0  0  0
   -7.6161    2.7143   27.1523 C   0  0  0  0  0  0  0  0  0  0  0  0
   -7.1619    1.8631   27.5232 C   0  0  0  0  0  0  0  0  0  0  0  0
   -8.0036    5.1085   27.2100 C   0  0  0  0  0  0  0  0  0  0  0  0
   -9.0764    5.1562   26.4023 C   0  0  0  0  0  0  0  0  0  0  0  0
   -9.5423    3.9741   25.8512 C   0  0  0  0  0  0  0  0  0  0  0  0
   -8.8464    2.7352   26.2619 C   0  0  0  0  0  0  0  0  0  0  0  0
   -7.5925    0.4293   27.3760 C   0  0  0  0  0  0  0  0  0  0  0  0
   -6.7978   -0.6492   27.7299 C   0  0  0  0  0  0  0  0  0  0  0  0
   -5.5627   -0.3980   28.2969 C   0  0  0  0  0  0  0  0  0  0  0  0
   -5.0113    0.8883   28.3837 C   0  0  0  0  0  0  0  0  0  0  0  0
  1  2  1  0
  2  3  2  3
  1  4  1  0
  4  5  1  0
  5  6  1  0
  2  7  1  0
  6  7  1  0
  3  8  1  0
  8  9  1  0
  9 10  2  3
 10 11  1  0
M  END
$$$$
