No_1307-complexes_sdf/6BKW-FPZ/2024-09-17-14-21-01/
     RDKit          3D

 13 14  0  0  0  0  0  0  0  0999 V2000
   -7.2496    3.8871   27.4508 C   0  0  0  0  0  0  0  0  0  0  0  0
   -7.6161    2.7143   27.1523 C   0  0  0  0  0  0  0  0  0  0  0  0
   -7.1618    1.8631   27.5232 C   0  0  0  0  0  0  0  0  0  0  0  0
   -8.0384    5.0866   27.3232 C   0  0  0  0  0  0  0  0  0  0  0  0
   -9.1224    5.1097   26.4856 C   0  0  0  0  0  0  0  0  0  0  0  0
   -8.8783    2.5973   26.4116 C   0  0  0  0  0  0  0  0  0  0  0  0
   -9.5900    3.8077   26.0949 C   0  0  0  0  0  0  0  0  0  0  0  0
   -5.8195    1.8673   28.0353 N   0  0  0  0  0  0  0  0  0  0  0  0
   -4.9464    0.6888   28.1611 C   0  0  0  0  0  0  0  0  0  0  0  0
   -5.5497   -0.4801   28.0599 C   0  0  0  0  0  0  0  0  0  0  0  0
   -7.3338    0.3538   27.3211 C   0  0  0  0  0  0  0  0  0  0  0  0
   -6.7362   -0.6616   27.6381 C   0  0  0  0  0  0  0  0  0  0  0  0
   -7.5336    6.2893   27.7466 F   0  0  0  0  0  0  0  0  0  0  0  0
  2  3  1  0
  4 13  1  0
  3  8  2  0
  8  9  1  0
  9 10  2  0
 10 12  1  0
 12 11  2  0
 11  3  1  0
  1  2  2  0
  2  6  1  0
  6  7  2  0
  7  5  1  0
  5  4  2  0
  4  1  1  0
M  END
$$$$
