No_1791-complexes_sdf/6BKW-FPZ/2024-09-17-14-21-01/
     RDKit          3D

 10 10  0  0  0  0  0  0  0  0999 V2000
   -7.2496    3.8871   27.4508 C   0  0  0  0  0  0  0  0  0  0  0  0
   -7.6161    2.7143   27.1523 C   0  0  0  0  0  0  0  0  0  0  0  0
   -8.6212    2.2239   26.4073 C   0  0  0  0  0  0  0  0  0  0  0  0
   -8.2540    4.9237   27.1711 C   0  0  0  0  0  0  0  0  0  0  0  0
   -9.3729    4.5806   26.4433 C   0  0  0  0  0  0  0  0  0  0  0  0
   -9.5830    3.2969   26.1026 C   0  0  0  0  0  0  0  0  0  0  0  0
   -7.9454    6.2273   27.5101 N   0  0  0  0  0  0  0  0  0  0  0  0
   -8.8657    0.8930   26.0612 C   0  0  0  0  0  0  0  0  0  0  0  0
   -9.2252    0.0310   26.9890 C   0  0  0  0  0  0  0  0  0  0  0  0
   -9.4685   -1.3653   26.7531 C   0  0  0  0  0  0  0  0  0  0  0  0
  4  7  1  0
  3  8  1  0
  8  9  2  3
  9 10  1  0
  1  2  2  0
  2  3  1  0
  3  6  2  0
  6  5  1  0
  5  4  2  0
  4  1  1  0
M  END
$$$$
