No_1305-complexes_sdf/6BKW-FPZ/2024-09-17-14-21-01/
     RDKit          3D

 29 31  0  0  0  0  0  0  0  0999 V2000
   -7.9040    3.9820   27.1177 C   0  0  0  0  0  0  0  0  0  0  0  0
   -8.2057    2.8231   26.8733 C   0  0  0  0  0  0  0  0  0  0  0  0
   -8.7695    5.0740   26.7916 C   0  0  0  0  0  0  0  0  0  0  0  0
   -9.9618    4.7598   26.1630 C   0  0  0  0  0  0  0  0  0  0  0  0
   -9.4200    2.4524   26.2849 C   0  0  0  0  0  0  0  0  0  0  0  0
  -10.2590    3.4815   25.9250 C   0  0  0  0  0  0  0  0  0  0  0  0
   -8.3840    6.4693   27.0829 C   0  0  0  0  0  0  0  0  0  0  0  0
   -8.8815    7.3355   26.4985 F   0  0  0  0  0  0  0  0  0  0  0  0
   -8.5475    6.6598   28.4698 F   0  0  0  0  0  0  0  0  0  0  0  0
   -6.9650    6.5759   27.0431 F   0  0  0  0  0  0  0  0  0  0  0  0
   -7.2688    1.6772   27.2925 C   0  0  0  0  0  0  0  0  0  0  0  0
   -6.0647    1.9544   27.7471 N   0  0  0  0  0  0  0  0  0  0  0  0
   -5.2439    0.8834   28.1066 C   0  0  0  0  0  0  0  0  0  0  0  0
   -7.5242    0.3499   27.1521 C   0  0  0  0  0  0  0  0  0  0  0  0
   -6.7922   -0.6516   27.5367 C   0  0  0  0  0  0  0  0  0  0  0  0
   -5.5582   -0.3496   28.0880 C   0  0  0  0  0  0  0  0  0  0  0  0
   -3.9503    1.3645   28.6344 N   0  0  0  0  0  0  0  0  0  0  0  0
  -11.4976    3.1930   25.1728 C   0  0  0  0  0  0  0  0  0  0  0  0
  -11.4016    2.7385   23.9870 C   0  0  0  0  0  0  0  0  0  0  0  0
  -12.5644    2.4714   23.1815 C   0  0  0  0  0  0  0  0  0  0  0  0
  -13.7949    2.8568   23.6548 C   0  0  0  0  0  0  0  0  0  0  0  0
  -12.7870    3.4894   25.7616 C   0  0  0  0  0  0  0  0  0  0  0  0
  -13.8867    3.3911   24.9896 C   0  0  0  0  0  0  0  0  0  0  0  0
   -4.6269   -1.3667   28.5888 C   0  0  0  0  0  0  0  0  0  0  0  0
   -3.1427   -1.0480   29.1232 P   0  0  0  0  0  0  0  0  0  0  0  0
   -2.4634   -1.7184   29.7852 O   0  0  0  0  0  0  0  0  0  0  0  0
   -2.1810   -0.6688   27.9449 O   0  0  0  0  0  0  0  0  0  0  0  0
   -3.1137    0.3298   30.0893 O   0  0  0  0  0  0  0  0  0  0  0  0
   -3.3246    2.2980   28.5834 O   0  0  0  0  0  0  0  0  0  0  0  0
  3  7  1  0
  7  8  1  0
  7  9  1  0
  7 10  1  0
  2 11  1  0
 13 17  1  0
  6 18  1  0
 16 24  1  0
 24 25  1  0
 25 26  1  0
 25 27  2  0
 25 28  1  0
 17 29  2  0
 18 19  2  0
 19 20  1  0
 20 21  2  0
 21 23  1  0
 23 22  2  0
 22 18  1  0
  1  2  2  0
  2  5  1  0
  5  6  2  0
  6  4  1  0
  4  3  2  0
  3  1  1  0
 11 12  2  0
 12 13  1  0
 13 16  2  0
 16 15  1  0
 15 14  2  0
 14 11  1  0
M  END
$$$$
