No_1207-complexes_sdf/6BKW-FPZ/2024-09-17-14-21-01/
     RDKit          3D

 40 44  0  0  0  0  0  0  0  0999 V2000
   -7.2496    3.8871   27.4508 C   0  0  0  0  0  0  0  0  0  0  0  0
   -7.6161    2.7143   27.1523 C   0  0  0  0  0  0  0  0  0  0  0  0
   -8.8302    2.4659   26.5056 C   0  0  0  0  0  0  0  0  0  0  0  0
   -8.1584    5.0090   27.3234 C   0  0  0  0  0  0  0  0  0  0  0  0
   -7.8138    6.3406   27.7108 C   0  0  0  0  0  0  0  0  0  0  0  0
   -9.7360    3.4989   26.3532 C   0  0  0  0  0  0  0  0  0  0  0  0
   -9.3942    4.8432   26.7521 C   0  0  0  0  0  0  0  0  0  0  0  0
   -9.1857    1.0968   26.1448 C   0  0  0  0  0  0  0  0  0  0  0  0
   -9.1439    0.7658   24.9721 C   0  0  0  0  0  0  0  0  0  0  0  0
   -9.4250   -0.5928   24.5035 C   0  0  0  0  0  0  0  0  0  0  0  0
  -10.3353    0.5566   26.8801 C   0  0  0  0  0  0  0  0  0  0  0  0
  -10.6860    0.9445   28.1320 C   0  0  0  0  0  0  0  0  0  0  0  0
  -10.8627   -0.7489   26.5209 C   0  0  0  0  0  0  0  0  0  0  0  0
  -10.5109   -1.2214   25.2318 C   0  0  0  0  0  0  0  0  0  0  0  0
   -8.5417    7.3862   27.2668 N   0  0  0  0  0  0  0  0  0  0  0  0
  -11.9994    1.6628   28.2061 C   0  0  0  0  0  0  0  0  0  0  0  0
  -12.9128    1.1503   28.4471 C   0  0  0  0  0  0  0  0  0  0  0  0
  -14.2405    1.8656   28.5274 C   0  0  0  0  0  0  0  0  0  0  0  0
  -14.1860    3.2782   28.4874 C   0  0  0  0  0  0  0  0  0  0  0  0
  -12.9893    3.8917   28.2605 C   0  0  0  0  0  0  0  0  0  0  0  0
  -11.8570    3.1760   28.2175 C   0  0  0  0  0  0  0  0  0  0  0  0
   -6.6533    1.5784   27.3944 C   0  0  0  0  0  0  0  0  0  0  0  0
   -6.9814    0.2522   27.6328 C   0  0  0  0  0  0  0  0  0  0  0  0
   -5.9857   -0.6722   28.0198 C   0  0  0  0  0  0  0  0  0  0  0  0
   -4.6909   -0.1961   28.2570 C   0  0  0  0  0  0  0  0  0  0  0  0
   -4.3614    1.1321   28.1092 C   0  0  0  0  0  0  0  0  0  0  0  0
   -5.2684    2.0189   27.7814 C   0  0  0  0  0  0  0  0  0  0  0  0
   -3.6872   -1.2177   28.7631 C   0  0  2  0  0  0  0  0  0  0  0  0
   -3.0790   -1.1495   29.7460 C   0  0  0  0  0  0  0  0  0  0  0  0
   -3.4110   -0.0639   30.8348 C   0  0  0  0  0  0  0  0  0  0  0  0
   -3.2620   -0.5163   32.1958 C   0  0  0  0  0  0  0  0  0  0  0  0
   -2.2454   -1.4239   32.5487 C   0  0  0  0  0  0  0  0  0  0  0  0
   -1.7809   -2.2799   31.5320 C   0  0  0  0  0  0  0  0  0  0  0  0
   -2.1944   -2.1725   30.2704 C   0  0  0  0  0  0  0  0  0  0  0  0
   -2.8611   -1.5478   27.5696 C   0  0  0  0  0  0  0  0  0  0  0  0
   -1.8539   -1.5331   33.9715 C   0  0  0  0  0  0  0  0  0  0  0  0
   -2.6183   -1.2620   34.7680 O   0  0  0  0  0  0  0  0  0  0  0  0
   -0.5552   -1.8566   34.2420 N   0  0  0  0  0  0  0  0  0  0  0  0
   -0.0817   -1.8989   35.6186 C   0  0  0  0  0  0  0  0  0  0  0  0
    1.0374   -2.2342   35.6679 C   0  0  0  0  0  0  0  0  0  0  0  0
  4  5  1  0
  3  8  1  0
 11 12  1  0
  5 15  1  0
 12 16  1  0
  2 22  1  0
 25 28  1  0
 28 35  1  6
 32 36  1  0
 36 37  2  0
 36 38  1  0
 38 39  1  0
 39 40  2  0
 28 29  1  0
  1  2  2  0
  2  3  1  0
  3  6  2  0
  6  7  1  0
  7  4  2  0
  4  1  1  0
 22 23  2  0
 23 24  1  0
 24 25  2  0
 25 26  1  0
 26 27  2  0
 27 22  1  0
  8  9  2  0
  9 10  1  0
 10 14  2  0
 14 13  1  0
 13 11  2  0
 11  8  1  0
 29 30  2  0
 30 31  1  0
 31 32  2  0
 32 33  1  0
 33 34  2  0
 34 29  1  0
 16 17  2  0
 17 18  1  0
 18 19  2  0
 19 20  1  0
 20 21  2  0
 21 16  1  0
M  END
$$$$
