No_1904-complexes_sdf/6BKW-FPZ/2024-09-17-14-21-01/
     RDKit          3D

 22 23  0  0  0  0  0  0  0  0999 V2000
   -7.7129    4.2099   27.0854 C   0  0  0  0  0  0  0  0  0  0  0  0
   -8.2112    3.0637   26.9225 C   0  0  0  0  0  0  0  0  0  0  0  0
   -8.4224    5.2106   27.8516 C   0  0  0  0  0  0  0  0  0  0  0  0
   -9.5628    2.7160   27.4089 C   0  0  0  0  0  0  0  0  0  0  0  0
  -10.2639    3.7034   28.1156 C   0  0  0  0  0  0  0  0  0  0  0  0
   -9.7059    4.9514   28.3169 C   0  0  0  0  0  0  0  0  0  0  0  0
  -11.6346    3.5858   28.6624 C   0  0  0  0  0  0  0  0  0  0  0  0
  -12.6525    3.2070   27.9441 C   0  0  0  0  0  0  0  0  0  0  0  0
  -13.9121    3.0012   28.5108 C   0  0  0  0  0  0  0  0  0  0  0  0
  -14.0639    3.0895   29.9029 C   0  0  0  0  0  0  0  0  0  0  0  0
  -13.0045    3.3527   30.6973 C   0  0  0  0  0  0  0  0  0  0  0  0
  -11.7547    3.5717   30.1423 C   0  0  0  0  0  0  0  0  0  0  0  0
  -10.1065    1.3830   27.2596 C   0  0  0  0  0  0  0  0  0  0  0  0
   -9.3893    0.4210   27.5936 N   0  0  0  0  0  0  0  0  0  0  0  0
   -9.8460   -0.8729   27.8140 C   0  0  0  0  0  0  0  0  0  0  0  0
  -11.2302   -0.9429   27.8971 C   0  0  0  0  0  0  0  0  0  0  0  0
  -11.8348   -2.1516   28.2265 C   0  0  0  0  0  0  0  0  0  0  0  0
  -11.2652    1.2320   26.9442 O   0  0  0  0  0  0  0  0  0  0  0  0
   -7.7909    6.5668   27.9766 C   0  0  0  0  0  0  0  0  0  0  0  0
  -13.2727   -2.1970   28.2833 C   0  0  0  0  0  0  0  0  0  0  0  0
  -13.9948   -1.0318   27.9626 C   0  0  0  0  0  0  0  0  0  0  0  0
  -13.3596    0.1157   27.5943 C   0  0  0  0  0  0  0  0  0  0  0  0
  5  7  1  0
  4 13  1  0
 13 14  1  0
 14 15  1  0
 15 16  1  0
 16 17  2  3
 13 18  2  0
  3 19  1  0
 17 20  1  0
 20 21  2  3
 21 22  1  0
  1  2  2  0
  2  4  1  0
  4  5  2  0
  5  6  1  0
  6  3  2  0
  3  1  1  0
  7  8  2  0
  8  9  1  0
  9 10  2  0
 10 11  1  0
 11 12  2  0
 12  7  1  0
M  END
$$$$
