No_1607-complexes_sdf/6BKW-FPZ/2024-09-17-14-21-01/
     RDKit          3D

 15 15  0  0  0  0  0  0  0  0999 V2000
   -7.9040    3.9820   27.1177 C   0  0  0  0  0  0  0  0  0  0  0  0
   -8.2057    2.8231   26.8733 C   0  0  0  0  0  0  0  0  0  0  0  0
   -8.7695    5.0740   26.7916 C   0  0  0  0  0  0  0  0  0  0  0  0
   -9.9618    4.7598   26.1630 C   0  0  0  0  0  0  0  0  0  0  0  0
   -9.4200    2.4524   26.2849 C   0  0  0  0  0  0  0  0  0  0  0  0
  -10.2590    3.4815   25.9250 C   0  0  0  0  0  0  0  0  0  0  0  0
   -8.3837    6.4702   27.0872 C   0  0  0  0  0  0  0  0  0  0  0  0
   -7.9910    7.5367   27.0318 N   0  0  0  0  0  0  0  0  0  0  0  0
   -7.1137    1.7934   27.3661 C   0  0  0  0  0  0  0  0  0  0  0  0
   -6.1438    2.2205   27.8395 F   0  0  0  0  0  0  0  0  0  0  0  0
   -7.3555    0.5679   27.1087 F   0  0  0  0  0  0  0  0  0  0  0  0
  -11.5170    3.1520   25.2061 C   0  0  0  0  0  0  0  0  0  0  0  0
  -11.5541    2.0945   24.4043 C   0  0  0  0  0  0  0  0  0  0  0  0
  -11.3718    1.0461   24.5805 C   0  0  0  0  0  0  0  0  0  0  0  0
  -11.2875    0.0188   24.0195 C   0  0  0  0  0  0  0  0  0  0  0  0
  3  7  1  0
  7  8  3  0
  2  9  1  0
  9 10  1  0
  9 11  1  0
  6 12  1  0
 12 13  1  0
 13 14  2  3
 14 15  1  0
  1  2  2  0
  2  5  1  0
  5  6  2  0
  6  4  1  0
  4  3  2  0
  3  1  1  0
M  END
$$$$
