No_1784-complexes_sdf/6BKW-FPZ/2024-09-17-14-21-01/
     RDKit          3D

 37 41  0  0  0  0  0  0  0  0999 V2000
   -7.2496    3.8871   27.4508 C   0  0  0  0  0  0  0  0  0  0  0  0
   -7.9379    4.9063   27.8518 C   0  0  0  0  0  0  0  0  0  0  0  0
   -9.3460    4.8223   27.8695 C   0  0  0  0  0  0  0  0  0  0  0  0
   -7.8628    2.6163   27.1065 C   0  0  0  0  0  0  0  0  0  0  0  0
   -9.2787    2.5744   27.1970 C   0  0  0  0  0  0  0  0  0  0  0  0
  -10.0108    3.6770   27.6340 C   0  0  0  0  0  0  0  0  0  0  0  0
  -11.4855    3.5731   27.7420 C   0  0  0  0  0  0  0  0  0  0  0  0
  -12.0293    2.8456   27.0189 C   0  0  0  0  0  0  0  0  0  0  0  0
  -11.4468    1.6320   26.6182 C   0  0  0  0  0  0  0  0  0  0  0  0
   -9.9972    1.4902   26.7102 N   0  0  0  0  0  0  0  0  0  0  0  0
   -9.3236    0.3401   26.2112 C   0  0  2  0  0  0  0  0  0  0  0  0
   -8.9218    0.3205   25.1253 C   0  0  0  0  0  0  0  0  0  0  0  0
   -7.9601   -0.4077   24.5249 C   0  0  0  0  0  0  0  0  0  0  0  0
   -7.4858   -0.2034   23.1442 C   0  0  0  0  0  0  0  0  0  0  0  0
   -8.1747    0.6352   22.3025 C   0  0  0  0  0  0  0  0  0  0  0  0
   -9.2229    1.4281   22.8732 C   0  0  0  0  0  0  0  0  0  0  0  0
   -9.5532    1.3303   24.1491 C   0  0  0  0  0  0  0  0  0  0  0  0
  -10.1648   -0.8787   26.6339 C   0  0  0  0  0  0  0  0  0  0  0  0
  -11.1184   -1.3592   26.2469 C   0  0  0  0  0  0  0  0  0  0  0  0
   -9.2481   -1.7284   27.6419 C   0  0  0  0  0  0  0  0  0  0  0  0
   -8.0079   -1.3484   28.1906 C   0  0  0  0  0  0  0  0  0  0  0  0
   -7.3669   -2.0682   29.1014 C   0  0  0  0  0  0  0  0  0  0  0  0
   -7.9706   -3.1871   29.6587 C   0  0  0  0  0  0  0  0  0  0  0  0
   -9.8048   -2.8723   28.2235 C   0  0  0  0  0  0  0  0  0  0  0  0
   -9.3129   -3.3956   29.1197 C   0  0  0  0  0  0  0  0  0  0  0  0
   -9.8509    2.3917   21.9276 C   0  0  0  0  0  0  0  0  0  0  0  0
  -10.1089    3.6575   22.3820 C   0  0  0  0  0  0  0  0  0  0  0  0
   -9.9505    4.0495   23.7332 C   0  0  0  0  0  0  0  0  0  0  0  0
  -10.3250    5.3649   24.2067 C   0  0  0  0  0  0  0  0  0  0  0  0
  -10.6496    4.6853   21.4980 C   0  0  0  0  0  0  0  0  0  0  0  0
  -10.9885    5.9493   22.0461 C   0  0  0  0  0  0  0  0  0  0  0  0
  -10.7394    6.2408   23.3450 C   0  0  0  0  0  0  0  0  0  0  0  0
   -7.3095    6.0515   28.2154 O   0  0  0  0  0  0  0  0  0  0  0  0
  -12.3107   -1.3687   26.8775 C   0  0  0  0  0  0  0  0  0  0  0  0
  -13.5285   -1.8297   26.3648 C   0  0  0  0  0  0  0  0  0  0  0  0
  -13.4391   -2.3542   25.0898 C   0  0  0  0  0  0  0  0  0  0  0  0
  -12.2721   -2.3904   24.3303 C   0  0  0  0  0  0  0  0  0  0  0  0
  6  7  1  0
  8  9  1  0
  5 10  1  0
  9 10  1  0
 11 10  1  6
 11 12  1  0
 11 18  1  0
 18 19  2  3
 18 20  1  0
 16 26  1  0
 26 27  1  0
  2 33  1  0
 19 34  1  0
 34 35  1  0
 35 36  1  0
 36 37  2  0
  7  8  1  0
 12 13  2  0
 13 14  1  0
 14 15  2  0
 15 16  1  0
 16 17  2  0
 17 12  1  0
  1  2  2  0
  2  3  1  0
  3  6  2  0
  6  5  1  0
  5  4  2  0
  4  1  1  0
 20 21  2  0
 21 22  1  0
 22 23  2  0
 23 25  1  0
 25 24  2  0
 24 20  1  0
 27 28  2  0
 28 29  1  0
 29 32  2  0
 32 31  1  0
 31 30  2  0
 30 27  1  0
M  END
$$$$
