No_1278-complexes_sdf/6BKW-FPZ/2024-09-17-14-21-01/
     RDKit          3D

 20 22  0  0  0  0  0  0  0  0999 V2000
   -7.2496    3.8871   27.4508 C   0  0  0  0  0  0  0  0  0  0  0  0
   -7.9379    4.9063   27.8518 C   0  0  0  0  0  0  0  0  0  0  0  0
   -9.3376    4.8647   27.7795 C   0  0  0  0  0  0  0  0  0  0  0  0
   -7.8544    2.6294   27.0414 C   0  0  0  0  0  0  0  0  0  0  0  0
   -9.2665    2.6175   27.0340 C   0  0  0  0  0  0  0  0  0  0  0  0
   -9.9836    3.7042   27.4150 C   0  0  0  0  0  0  0  0  0  0  0  0
   -7.1365    1.6095   26.7726 F   0  0  0  0  0  0  0  0  0  0  0  0
  -11.4637    3.6187   27.4650 C   0  0  0  0  0  0  0  0  0  0  0  0
  -12.1651    4.1198   26.6526 C   0  0  0  0  0  0  0  0  0  0  0  0
  -13.6077    4.2466   26.7691 C   0  0  0  0  0  0  0  0  0  0  0  0
  -14.3887    4.9895   25.8248 C   0  0  0  0  0  0  0  0  0  0  0  0
  -12.0606    2.6223   28.3068 C   0  0  0  0  0  0  0  0  0  0  0  0
  -13.4085    2.5935   28.5724 C   0  0  0  0  0  0  0  0  0  0  0  0
  -14.1906    3.3648   27.6990 C   0  0  0  0  0  0  0  0  0  0  0  0
  -15.3803    4.6327   25.1489 C   0  0  0  0  0  0  0  0  0  0  0  0
  -16.0257    5.4756   24.2034 C   0  0  0  0  0  0  0  0  0  0  0  0
  -15.4313    6.6859   23.9428 C   0  0  0  0  0  0  0  0  0  0  0  0
  -14.3423    7.1476   24.6479 C   0  0  0  0  0  0  0  0  0  0  0  0
  -13.8129    6.3914   25.5177 C   0  0  0  0  0  0  0  0  0  0  0  0
   -7.3127    6.0195   28.1688 F   0  0  0  0  0  0  0  0  0  0  0  0
  4  7  1  0
  6  8  1  0
 10 11  1  0
  2 20  1  0
  8  9  2  0
  9 10  1  0
 10 14  2  0
 14 13  1  0
 13 12  2  0
 12  8  1  0
  1  2  2  0
  2  3  1  0
  3  6  2  0
  6  5  1  0
  5  4  2  0
  4  1  1  0
 11 15  2  0
 15 16  1  0
 16 17  2  0
 17 18  1  0
 18 19  2  0
 19 11  1  0
M  END
$$$$
