No_1558-complexes_sdf/6BKW-FPZ/2024-09-17-14-21-01/
     RDKit          3D

 40 44  0  0  0  0  0  0  0  0999 V2000
   -7.2496    3.8871   27.4508 C   0  0  0  0  0  0  0  0  0  0  0  0
   -8.5096    4.0291   27.2770 C   0  0  0  0  0  0  0  0  0  0  0  0
   -9.3451    2.8786   26.9046 C   0  0  0  0  0  0  0  0  0  0  0  0
  -10.6709    3.0505   26.6789 C   0  0  0  0  0  0  0  0  0  0  0  0
   -6.6727    2.6274   27.4797 N   0  0  0  0  0  0  0  0  0  0  0  0
   -7.3915    1.5417   27.2567 C   0  0  0  0  0  0  0  0  0  0  0  0
   -8.7202    1.6904   27.0096 C   0  0  0  0  0  0  0  0  0  0  0  0
   -9.1073    5.3644   27.2063 C   0  0  0  0  0  0  0  0  0  0  0  0
  -11.3765    4.1586   27.5019 C   0  0  0  0  0  0  0  0  0  0  0  0
   -8.3191    6.5407   27.3285 C   0  0  0  0  0  0  0  0  0  0  0  0
  -10.5960    5.3838   27.3716 C   0  0  0  0  0  0  0  0  0  0  0  0
   -6.6527    0.2930   27.2353 C   0  0  0  0  0  0  0  0  0  0  0  0
   -5.3576    0.2258   27.8659 C   0  0  0  0  0  0  0  0  0  0  0  0
   -4.6515   -0.9710   27.9056 C   0  0  0  0  0  0  0  0  0  0  0  0
   -5.2218   -2.0712   27.3546 C   0  0  0  0  0  0  0  0  0  0  0  0
   -6.8975   -0.9909   26.7785 C   0  0  0  0  0  0  0  0  0  0  0  0
   -6.3268   -2.0863   26.7583 C   0  0  0  0  0  0  0  0  0  0  0  0
   -8.2855    7.5408   26.2468 C   0  0  0  0  0  0  0  0  0  0  0  0
   -3.2961   -0.9006   28.6204 C   0  0  0  0  0  0  0  0  0  0  0  0
   -3.0870   -0.0297   29.4037 O   0  0  0  0  0  0  0  0  0  0  0  0
   -2.2401   -1.3998   27.9126 N   0  0  0  0  0  0  0  0  0  0  0  0
   -0.8486   -1.2702   28.3941 C   0  0  0  0  0  0  0  0  0  0  0  0
   -2.2430   -2.2930   26.7806 C   0  0  0  0  0  0  0  0  0  0  0  0
   -7.1877    6.5437   28.2377 C   0  0  0  0  0  0  0  0  0  0  0  0
   -0.3141   -2.3867   29.0929 C   0  0  0  0  0  0  0  0  0  0  0  0
   -0.5940   -2.4100   30.4101 C   0  0  0  0  0  0  0  0  0  0  0  0
   -1.4269   -3.3441   30.7454 C   0  0  0  0  0  0  0  0  0  0  0  0
   -2.5426   -3.2080   31.3400 C   0  0  0  0  0  0  0  0  0  0  0  0
   -2.9668   -1.8517   31.8195 C   0  0  0  0  0  0  0  0  0  0  0  0
   -1.9513   -0.9806   32.2453 C   0  0  0  0  0  0  0  0  0  0  0  0
   -0.8403   -1.4674   32.5819 C   0  0  0  0  0  0  0  0  0  0  0  0
   -0.0322   -1.5088   31.3630 C   0  0  0  0  0  0  0  0  0  0  0  0
   -2.6596   -0.2330   33.5397 C   0  0  0  0  0  0  0  0  0  0  0  0
   -1.9034   -0.2709   34.5671 N   0  0  0  0  0  0  0  0  0  0  0  0
   -2.5046   -0.2910   35.8449 C   0  0  0  0  0  0  0  0  0  0  0  0
   -1.6600   -0.1189   37.0050 C   0  0  0  0  0  0  0  0  0  0  0  0
   -2.1698    0.2767   38.2240 C   0  0  0  0  0  0  0  0  0  0  0  0
   -3.6317    0.3679   38.3336 C   0  0  0  0  0  0  0  0  0  0  0  0
   -4.4081    0.2281   37.2199 C   0  0  0  0  0  0  0  0  0  0  0  0
   -3.8431   -0.0283   36.0000 C   0  0  0  0  0  0  0  0  0  0  0  0
  8 10  1  0
  6 12  1  0
 10 18  1  0
 14 19  1  0
 19 20  2  0
 19 21  1  0
 21 22  1  0
 21 23  1  0
 10 24  1  0
 22 25  1  0
 25 26  1  0
 26 27  1  0
 27 28  2  0
 28 29  1  0
 29 30  2  0
 30 31  1  0
 26 32  1  0
 31 32  2  0
 30 33  1  0
 33 34  1  0
 34 35  1  0
 12 13  2  0
 13 14  1  0
 14 15  2  0
 15 17  1  0
 17 16  2  0
 16 12  1  0
  1  2  2  0
  3  7  2  0
  7  6  1  0
  6  5  2  0
  5  1  1  0
  2  3  1  0
  3  4  1  0
  4  9  2  0
  9 11  1  0
 11  8  2  0
  8  2  1  0
 35 36  2  0
 36 37  1  0
 37 38  2  0
 38 39  1  0
 39 40  2  0
 40 35  1  0
M  END
$$$$
