No_1201-complexes_sdf/6BKW-FPZ/2024-09-17-14-21-01/
     RDKit          3D

 32 36  0  0  0  0  0  0  0  0999 V2000
   -7.9040    3.9820   27.1177 C   0  0  0  0  0  0  0  0  0  0  0  0
   -7.8663    4.8694   27.9238 C   0  0  0  0  0  0  0  0  0  0  0  0
   -9.0501    3.8017   26.2617 C   0  0  0  0  0  0  0  0  0  0  0  0
   -9.1826    2.7026   25.3575 C   0  0  0  0  0  0  0  0  0  0  0  0
   -8.6940    6.0131   27.8614 C   0  0  0  0  0  0  0  0  0  0  0  0
   -9.9755    4.8547   26.2361 C   0  0  0  0  0  0  0  0  0  0  0  0
   -9.7463    5.9398   27.0364 C   0  0  0  0  0  0  0  0  0  0  0  0
  -10.1245    1.8871   25.7330 C   0  0  0  0  0  0  0  0  0  0  0  0
  -10.1275    0.7205   25.0793 C   0  0  0  0  0  0  0  0  0  0  0  0
  -10.6688   -0.3473   25.7208 C   0  0  0  0  0  0  0  0  0  0  0  0
  -10.9230    1.9252   26.8840 C   0  0  0  0  0  0  0  0  0  0  0  0
  -11.5588    0.8684   27.5123 C   0  0  0  0  0  0  0  0  0  0  0  0
  -11.4620   -0.3406   26.8454 C   0  0  0  0  0  0  0  0  0  0  0  0
   -7.0535    2.9476   27.2122 F   0  0  0  0  0  0  0  0  0  0  0  0
  -12.2831    0.9510   28.8070 C   0  0  0  0  0  0  0  0  0  0  0  0
  -13.6107    1.4675   28.7072 C   0  0  0  0  0  0  0  0  0  0  0  0
  -14.0010    2.2707   28.1814 C   0  0  0  0  0  0  0  0  0  0  0  0
  -13.1716    3.2357   27.3826 C   0  0  2  0  0  0  0  0  0  0  0  0
  -12.0436    2.8401   26.5413 C   0  0  2  0  0  0  0  0  0  0  0  0
  -12.5243    3.0362   25.1103 C   0  0  0  0  0  0  0  0  0  0  0  0
  -13.4304    3.9891   24.7742 C   0  0  0  0  0  0  0  0  0  0  0  0
  -13.2785    4.6396   27.6326 C   0  0  0  0  0  0  0  0  0  0  0  0
  -12.1214    2.1766   24.0716 C   0  0  0  0  0  0  0  0  0  0  0  0
  -12.6865    2.4360   22.8119 C   0  0  0  0  0  0  0  0  0  0  0  0
  -13.8795    4.3165   23.5506 C   0  0  0  0  0  0  0  0  0  0  0  0
  -12.2729    1.5538   21.6755 C   0  0  0  0  0  0  0  0  0  0  0  0
  -13.4817    3.4885   22.5653 C   0  0  0  0  0  0  0  0  0  0  0  0
  -11.0052    1.4880   21.3436 C   0  0  0  0  0  0  0  0  0  0  0  0
  -10.4037    0.3282   20.7983 C   0  0  0  0  0  0  0  0  0  0  0  0
  -11.2237   -0.5212   20.0306 C   0  0  0  0  0  0  0  0  0  0  0  0
  -13.1734    0.6122   21.2292 C   0  0  0  0  0  0  0  0  0  0  0  0
  -12.6321   -0.4824   20.4115 C   0  0  0  0  0  0  0  0  0  0  0  0
  3  4  1  0
  4  8  1  0
  1 14  1  0
 12 15  1  0
 15 16  1  0
 16 17  2  0
 17 18  1  0
 11 19  1  0
 18 19  1  0
 19 20  1  6
 18 22  1  1
 24 26  1  0
 26 28  2  0
 28 29  1  0
 29 30  2  0
 30 32  1  0
 32 31  2  0
 31 26  1  0
  8  9  2  0
  9 10  1  0
 10 13  2  0
 13 12  1  0
 12 11  2  0
 11  8  1  0
 20 21  2  0
 21 25  1  0
 25 27  2  0
 27 24  1  0
 24 23  2  0
 23 20  1  0
  1  2  2  0
  2  5  1  0
  5  7  2  0
  7  6  1  0
  6  3  2  0
  3  1  1  0
M  END
$$$$
