No_106-complexes_sdf/6BKW-FPZ/2024-09-17-14-21-01/
     RDKit          3D

 28 30  0  0  0  0  0  0  0  0999 V2000
   -7.7129    4.2099   27.0854 C   0  0  0  0  0  0  0  0  0  0  0  0
   -8.2112    3.0637   26.9225 C   0  0  0  0  0  0  0  0  0  0  0  0
   -8.4224    5.2106   27.8516 C   0  0  0  0  0  0  0  0  0  0  0  0
   -9.5628    2.7160   27.4089 C   0  0  0  0  0  0  0  0  0  0  0  0
  -10.2428    3.7496   28.1155 C   0  0  0  0  0  0  0  0  0  0  0  0
   -9.6677    4.9738   28.3232 C   0  0  0  0  0  0  0  0  0  0  0  0
   -7.8012    6.3713   28.0255 F   0  0  0  0  0  0  0  0  0  0  0  0
  -10.1131    1.3955   27.2092 C   0  0  0  0  0  0  0  0  0  0  0  0
  -10.8434    1.2104   26.2440 N   0  0  0  0  0  0  0  0  0  0  0  0
  -11.3516    0.1882   25.8197 C   0  0  0  0  0  0  0  0  0  0  0  0
  -12.1482    0.1002   24.6815 C   0  0  0  0  0  0  0  0  0  0  0  0
  -12.1586    1.3680   24.1196 C   0  0  0  0  0  0  0  0  0  0  0  0
  -11.5865    2.5305   24.4336 C   0  0  2  0  0  0  0  0  0  0  0  0
  -10.8225    2.4592   25.6157 C   0  0  0  0  0  0  0  0  0  0  0  0
   -9.4255    0.5916   27.9653 O   0  0  0  0  0  0  0  0  0  0  0  0
  -13.0290    1.3881   22.7477 C   0  0  0  0  0  0  0  0  0  0  0  0
  -14.0027    2.2884   22.6522 C   0  0  0  0  0  0  0  0  0  0  0  0
  -14.2368    3.1953   23.7687 C   0  0  0  0  0  0  0  0  0  0  0  0
  -13.2274    3.9903   24.3301 C   0  0  0  0  0  0  0  0  0  0  0  0
  -12.1840    3.7845   24.1487 C   0  0  0  0  0  0  0  0  0  0  0  0
  -11.1586   -1.3333   26.6793 Cl  0  0  0  0  0  0  0  0  0  0  0  0
  -11.7908    3.4421   28.7202 Cl  0  0  0  0  0  0  0  0  0  0  0  0
  -15.6978    3.4280   24.0870 C   0  0  0  0  0  0  0  0  0  0  0  0
  -16.1024    4.2623   24.4841 O   0  0  0  0  0  0  0  0  0  0  0  0
  -16.2923    2.2288   24.2613 O   0  0  0  0  0  0  0  0  0  0  0  0
  -12.8630    0.3006   21.8931 C   0  0  0  0  0  0  0  0  0  0  0  0
  -11.9982   -0.2231   21.4358 F   0  0  0  0  0  0  0  0  0  0  0  0
  -14.0660   -0.2393   21.5545 F   0  0  0  0  0  0  0  0  0  0  0  0
  3  7  1  0
  4  8  1  0
  8  9  1  0
  9 10  1  0
 11 12  1  0
 12 13  1  0
  9 14  1  0
  8 15  2  0
 12 16  1  0
 16 17  2  0
 17 18  1  0
 18 19  2  0
 13 20  1  1
 19 20  1  0
 10 21  1  0
  5 22  1  0
 18 23  1  0
 23 24  2  0
 23 25  1  0
 16 26  1  0
 26 27  1  0
 26 28  1  0
 10 11  1  0
 13 14  1  0
  1  2  2  0
  2  4  1  0
  4  5  2  0
  5  6  1  0
  6  3  2  0
  3  1  1  0
M  END
$$$$
