No_1183-complexes_sdf/6BKW-FPZ/2024-09-17-14-21-01/
     RDKit          3D

 12 12  0  0  0  0  0  0  0  0999 V2000
   -7.9040    3.9820   27.1177 C   0  0  0  0  0  0  0  0  0  0  0  0
   -7.8663    4.8694   27.9238 C   0  0  0  0  0  0  0  0  0  0  0  0
   -9.0501    3.8017   26.2617 C   0  0  0  0  0  0  0  0  0  0  0  0
  -10.0189    4.7608   26.3707 C   0  0  0  0  0  0  0  0  0  0  0  0
   -8.6770    5.9780   27.9222 C   0  0  0  0  0  0  0  0  0  0  0  0
   -9.8040    5.8752   27.0958 C   0  0  0  0  0  0  0  0  0  0  0  0
   -9.1434    2.6226   25.4210 C   0  0  0  0  0  0  0  0  0  0  0  0
  -10.1282    1.8348   25.6605 C   0  0  0  0  0  0  0  0  0  0  0  0
   -9.9855    0.7652   24.9903 F   0  0  0  0  0  0  0  0  0  0  0  0
  -10.0489    1.4750   26.9883 F   0  0  0  0  0  0  0  0  0  0  0  0
  -11.3681    2.3012   25.4589 F   0  0  0  0  0  0  0  0  0  0  0  0
   -7.0079    2.9681   27.2028 F   0  0  0  0  0  0  0  0  0  0  0  0
  3  7  1  0
  7  8  1  0
  8  9  1  0
  8 10  1  0
  8 11  1  0
  1 12  1  0
  1  2  2  0
  2  5  1  0
  5  6  2  0
  6  4  1  0
  4  3  2  0
  3  1  1  0
M  END
$$$$
