No_1124-complexes_sdf/6BKW-FPZ/2024-09-17-14-21-01/
     RDKit          3D

 12 13  0  0  0  0  0  0  0  0999 V2000
   -7.7129    4.2099   27.0854 C   0  0  0  0  0  0  0  0  0  0  0  0
   -7.7814    5.1722   27.8972 C   0  0  0  0  0  0  0  0  0  0  0  0
   -8.8998    3.8713   26.3707 C   0  0  0  0  0  0  0  0  0  0  0  0
   -9.1401    2.5906   25.9433 C   0  0  0  0  0  0  0  0  0  0  0  0
   -8.7789    6.1060   27.7310 N   0  0  0  0  0  0  0  0  0  0  0  0
   -9.8920    5.8891   27.0946 C   0  0  0  0  0  0  0  0  0  0  0  0
   -9.9766    4.6960   26.4402 C   0  0  0  0  0  0  0  0  0  0  0  0
   -9.6032    2.2166   24.6950 C   0  0  0  0  0  0  0  0  0  0  0  0
   -9.6961    0.9506   24.1823 C   0  0  0  0  0  0  0  0  0  0  0  0
   -9.1455   -0.1017   24.9408 C   0  0  0  0  0  0  0  0  0  0  0  0
   -8.5804    1.3533   26.6373 C   0  0  0  0  0  0  0  0  0  0  0  0
   -8.6043    0.1494   26.2177 C   0  0  0  0  0  0  0  0  0  0  0  0
  3  4  1  0
  4  8  2  0
  8  9  1  0
  9 10  2  0
 10 12  1  0
 12 11  2  0
 11  4  1  0
  1  2  2  0
  2  5  1  0
  5  6  2  0
  6  7  1  0
  7  3  2  0
  3  1  1  0
M  END
$$$$
