No_123-complexes_sdf/6BKW-FPZ/2024-09-17-14-21-01/
     RDKit          3D

 28 30  0  0  0  0  0  0  0  0999 V2000
   -7.9040    3.9820   27.1177 C   0  0  0  0  0  0  0  0  0  0  0  0
   -9.0711    4.3164   27.0630 C   0  0  0  0  0  0  0  0  0  0  0  0
   -9.5182    5.5541   27.5777 C   0  0  0  0  0  0  0  0  0  0  0  0
   -7.4468    2.6843   26.6499 C   0  0  0  0  0  0  0  0  0  0  0  0
   -8.3856    1.7878   26.2216 C   0  0  0  0  0  0  0  0  0  0  0  0
   -9.6812    2.2328   26.0889 C   0  0  0  0  0  0  0  0  0  0  0  0
  -10.0147    3.4312   26.5259 C   0  0  0  0  0  0  0  0  0  0  0  0
   -7.9143    0.4677   25.8109 C   0  0  0  0  0  0  0  0  0  0  0  0
   -8.0689    0.0509   24.7032 N   0  0  0  0  0  0  0  0  0  0  0  0
   -8.4957    0.7064   23.6914 C   0  0  0  0  0  0  0  0  0  0  0  0
   -8.6235    0.1710   22.3528 C   0  0  0  0  0  0  0  0  0  0  0  0
   -7.5658   -1.2521   24.2764 C   0  0  0  0  0  0  0  0  0  0  0  0
   -7.6102   -1.8406   23.0446 C   0  0  0  0  0  0  0  0  0  0  0  0
   -8.1629   -1.0190   22.0610 C   0  0  0  0  0  0  0  0  0  0  0  0
   -7.3536   -0.1594   26.8201 O   0  0  0  0  0  0  0  0  0  0  0  0
   -8.9033    6.6080   27.1651 F   0  0  0  0  0  0  0  0  0  0  0  0
  -10.8664    5.8540   27.2327 F   0  0  0  0  0  0  0  0  0  0  0  0
   -9.4337    5.5600   28.9152 F   0  0  0  0  0  0  0  0  0  0  0  0
   -8.3203   -1.6086   20.4639 Cl  0  0  0  0  0  0  0  0  0  0  0  0
   -6.8846    4.6790   27.7685 O   0  0  0  0  0  0  0  0  0  0  0  0
  -10.5859    1.4172   25.5318 O   0  0  0  0  0  0  0  0  0  0  0  0
  -11.6968    1.8241   25.0000 C   0  0  0  0  0  0  0  0  0  0  0  0
  -12.3076    0.8822   24.2739 C   0  0  0  0  0  0  0  0  0  0  0  0
  -12.1815   -0.4283   24.4820 C   0  0  0  0  0  0  0  0  0  0  0  0
  -12.5913   -1.4352   23.5668 C   0  0  0  0  0  0  0  0  0  0  0  0
  -13.2494   -1.0001   22.4365 C   0  0  0  0  0  0  0  0  0  0  0  0
  -13.4233    0.3428   22.1673 C   0  0  0  0  0  0  0  0  0  0  0  0
  -12.9178    1.3217   23.0446 C   0  0  0  0  0  0  0  0  0  0  0  0
  2  3  1  0
  5  8  1  0
  8  9  1  0
  9 10  1  0
  9 12  1  0
 11 14  1  0
 13 14  1  0
  8 15  2  0
  3 16  1  0
  3 17  1  0
  3 18  1  0
 14 19  1  0
  1 20  1  0
  6 21  1  0
 21 22  1  0
 22 23  1  0
 10 11  1  0
 13 12  1  0
  1  2  2  0
  2  7  1  0
  7  6  2  0
  6  5  1  0
  5  4  2  0
  4  1  1  0
 23 24  2  0
 24 25  1  0
 25 26  2  0
 26 27  1  0
 27 28  2  0
 28 23  1  0
M  END
$$$$
