No_1214-complexes_sdf/6BKW-FPZ/2024-09-17-14-21-01/
     RDKit          3D

 17 18  0  0  0  0  0  0  0  0999 V2000
   -7.9040    3.9820   27.1177 C   0  0  0  0  0  0  0  0  0  0  0  0
   -7.8663    4.8694   27.9238 C   0  0  0  0  0  0  0  0  0  0  0  0
   -9.0491    3.8523   26.2542 C   0  0  0  0  0  0  0  0  0  0  0  0
   -8.7661    5.9491   27.9690 C   0  0  0  0  0  0  0  0  0  0  0  0
   -9.9295    4.8502   26.2323 C   0  0  0  0  0  0  0  0  0  0  0  0
   -9.8077    5.9288   27.0933 C   0  0  0  0  0  0  0  0  0  0  0  0
   -6.8002    2.6256   27.2024 Cl  0  0  0  0  0  0  0  0  0  0  0  0
   -9.1359    2.5242   25.1295 Cl  0  0  0  0  0  0  0  0  0  0  0  0
  -10.8650    4.6913   25.2479 O   0  0  0  0  0  0  0  0  0  0  0  0
  -11.8195    3.8403   25.2970 C   0  0  0  0  0  0  0  0  0  0  0  0
  -12.6328    3.8681   24.2126 C   0  0  0  0  0  0  0  0  0  0  0  0
  -12.3326    4.1411   22.9759 C   0  0  0  0  0  0  0  0  0  0  0  0
  -13.1934    4.3440   21.9006 C   0  0  0  0  0  0  0  0  0  0  0  0
  -14.5813    4.1994   22.1525 C   0  0  0  0  0  0  0  0  0  0  0  0
  -15.0076    3.9479   23.4157 C   0  0  0  0  0  0  0  0  0  0  0  0
  -14.1138    3.8403   24.4862 C   0  0  0  0  0  0  0  0  0  0  0  0
  -12.2337    3.3944   26.4458 O   0  0  0  0  0  0  0  0  0  0  0  0
  1  7  1  0
  3  8  1  0
  5  9  1  0
  9 10  1  0
 10 11  1  0
 10 17  2  0
 11 12  2  0
 12 13  1  0
 13 14  2  0
 14 15  1  0
 15 16  2  0
 16 11  1  0
  1  2  2  0
  2  4  1  0
  4  6  2  0
  6  5  1  0
  5  3  2  0
  3  1  1  0
M  END
$$$$
