No_1153-complexes_sdf/6BKW-FPZ/2024-09-17-14-21-01/
     RDKit          3D

 29 31  0  0  0  0  0  0  0  0999 V2000
   -7.9040    3.9820   27.1177 C   0  0  2  0  0  0  0  0  0  0  0  0
   -9.0711    4.3164   27.0630 C   0  0  0  0  0  0  0  0  0  0  0  0
   -9.5294    5.4517   27.7215 C   0  0  0  0  0  0  0  0  0  0  0  0
   -7.4336    2.7132   26.5681 C   0  0  0  0  0  0  0  0  0  0  0  0
   -8.3353    1.8569   26.0442 C   0  0  0  0  0  0  0  0  0  0  0  0
   -9.6477    2.2853   25.9146 C   0  0  0  0  0  0  0  0  0  0  0  0
  -10.0346    3.4497   26.4483 C   0  0  2  0  0  0  0  0  0  0  0  0
   -7.8750    0.5509   25.5918 C   0  0  0  0  0  0  0  0  0  0  0  0
   -7.8485    0.5094   24.3561 F   0  0  0  0  0  0  0  0  0  0  0  0
   -8.8046   -0.3425   26.0235 F   0  0  0  0  0  0  0  0  0  0  0  0
   -6.7311    0.2311   25.8520 F   0  0  0  0  0  0  0  0  0  0  0  0
   -6.9013    4.5854   27.8494 F   0  0  0  0  0  0  0  0  0  0  0  0
  -11.4227    3.8698   26.1624 C   0  0  0  0  0  0  0  0  0  0  0  0
  -12.4383    2.9965   26.3863 C   0  0  0  0  0  0  0  0  0  0  0  0
  -13.6387    3.4045   26.2081 C   0  0  0  0  0  0  0  0  0  0  0  0
  -14.5519    3.3410   27.1306 C   0  0  0  0  0  0  0  0  0  0  0  0
  -14.3295    2.4209   28.2300 C   0  0  0  0  0  0  0  0  0  0  0  0
  -15.1127    2.2566   29.2916 C   0  0  2  0  0  0  0  0  0  0  0  0
  -13.0364    1.7826   28.2308 C   0  0  0  0  0  0  0  0  0  0  0  0
  -12.0067    2.2247   27.4399 C   0  0  0  0  0  0  0  0  0  0  0  0
  -15.0824    2.2782   30.3273 C   0  0  0  0  0  0  0  0  0  0  0  0
  -13.7365    2.7710   30.9553 C   0  0  0  0  0  0  0  0  0  0  0  0
  -13.7266    3.2757   32.3072 C   0  0  0  0  0  0  0  0  0  0  0  0
  -14.5539    2.7642   33.2230 C   0  0  0  0  0  0  0  0  0  0  0  0
  -15.7485    2.1738   32.7301 C   0  0  0  0  0  0  0  0  0  0  0  0
  -15.9183    1.9813   31.4490 C   0  0  0  0  0  0  0  0  0  0  0  0
  -16.4701    1.7154   28.7326 C   0  0  0  0  0  0  0  0  0  0  0  0
  -16.7677    0.6773   28.4846 C   0  0  0  0  0  0  0  0  0  0  0  0
  -18.0450    0.3054   27.9604 C   0  0  0  0  0  0  0  0  0  0  0  0
  1  2  1  0
  2  3  2  0
  1  4  1  0
  4  5  1  0
  5  6  1  0
  2  7  1  0
  6  7  1  0
  5  8  1  0
  8  9  1  0
  8 10  1  0
  8 11  1  0
  1 12  1  1
  7 13  1  6
 13 14  1  0
 18 17  1  1
 18 27  1  0
 27 28  2  3
 28 29  1  0
 18 21  1  0
 14 15  2  0
 15 16  1  0
 16 17  2  0
 17 19  1  0
 19 20  2  0
 20 14  1  0
 21 22  2  0
 22 23  1  0
 23 24  2  0
 24 25  1  0
 25 26  2  0
 26 21  1  0
M  END
$$$$
