No_1415-complexes_sdf/6BKW-FPZ/2024-09-17-14-21-01/
     RDKit          3D

 21 23  0  0  0  0  0  0  0  0999 V2000
   -7.2496    3.8871   27.4508 C   0  0  0  0  0  0  0  0  0  0  0  0
   -8.5096    4.0291   27.2770 C   0  0  0  0  0  0  0  0  0  0  0  0
   -9.3451    2.8786   26.9046 C   0  0  0  0  0  0  0  0  0  0  0  0
   -8.7138    1.7135   26.7541 C   0  0  0  0  0  0  0  0  0  0  0  0
   -6.3951    5.0209   27.9628 C   0  0  0  0  0  0  0  0  0  0  0  0
   -7.3247    1.5526   27.0783 C   0  0  0  0  0  0  0  0  0  0  0  0
   -6.5681    2.6436   27.5102 C   0  0  0  0  0  0  0  0  0  0  0  0
   -9.3434    5.2088   27.4130 C   0  0  0  0  0  0  0  0  0  0  0  0
   -8.6392    6.5122   27.1604 C   0  0  0  0  0  0  0  0  0  0  0  0
   -7.2000    6.4714   27.8380 C   0  0  0  0  0  0  0  0  0  0  0  0
   -6.6488    0.2436   27.0217 C   0  0  0  0  0  0  0  0  0  0  0  0
   -5.6079   -0.0062   27.6135 O   0  0  0  0  0  0  0  0  0  0  0  0
   -7.2040   -0.7229   26.2724 N   0  0  0  0  0  0  0  0  0  0  0  0
   -6.6204   -2.0213   26.1009 C   0  0  0  0  0  0  0  0  0  0  0  0
  -10.7572    2.9044   26.6162 C   0  0  0  0  0  0  0  0  0  0  0  0
  -11.5530    2.4262   27.3609 C   0  0  0  0  0  0  0  0  0  0  0  0
  -12.2077    2.5841   28.1333 C   0  0  0  0  0  0  0  0  0  0  0  0
  -13.1206    1.7503   29.0814 C   0  0  0  0  0  0  0  0  0  0  0  0
  -12.9419    0.4264   28.9026 C   0  0  0  0  0  0  0  0  0  0  0  0
  -12.0602   -0.0582   28.0073 C   0  0  0  0  0  0  0  0  0  0  0  0
  -11.2900    0.7835   27.2529 C   0  0  0  0  0  0  0  0  0  0  0  0
  1  5  1  0
  2  8  1  0
  8  9  1  0
  5 10  1  0
  9 10  1  0
  6 11  1  0
 11 12  2  0
 11 13  1  0
 13 14  1  0
  3 15  1  0
 15 16  1  0
  1  2  2  0
  2  3  1  0
  3  4  2  0
  4  6  1  0
  6  7  2  0
  7  1  1  0
 16 17  2  0
 17 18  1  0
 18 19  2  0
 19 20  1  0
 20 21  2  0
 21 16  1  0
M  END
$$$$
