No_1723-complexes_sdf/6BKW-FPZ/2024-09-17-14-21-01/
     RDKit          3D

 28 31  0  0  0  0  0  0  0  0999 V2000
   -7.9040    3.9820   27.1177 C   0  0  0  0  0  0  0  0  0  0  0  0
   -9.0711    4.3164   27.0630 C   0  0  0  0  0  0  0  0  0  0  0  0
  -10.0395    3.8218   27.1938 C   0  0  0  0  0  0  0  0  0  0  0  0
   -7.6424    2.5858   27.3610 C   0  0  0  0  0  0  0  0  0  0  0  0
   -8.7741    1.7889   27.4566 C   0  0  0  0  0  0  0  0  0  0  0  0
  -10.0155    2.3581   27.4300 C   0  0  0  0  0  0  0  0  0  0  0  0
   -9.1463    5.9504   26.8742 C   0  0  0  0  0  0  0  0  0  0  0  0
   -9.5938    6.4793   27.8490 F   0  0  0  0  0  0  0  0  0  0  0  0
   -7.8479    6.4754   26.6637 F   0  0  0  0  0  0  0  0  0  0  0  0
   -9.7269    6.1661   25.6781 F   0  0  0  0  0  0  0  0  0  0  0  0
   -6.1028    1.8875   27.3524 Cl  0  0  0  0  0  0  0  0  0  0  0  0
  -11.4244    1.4736   27.6955 Cl  0  0  0  0  0  0  0  0  0  0  0  0
   -8.6172    0.0725   27.7507 Cl  0  0  0  0  0  0  0  0  0  0  0  0
  -11.3390    4.3383   27.2519 O   0  0  0  0  0  0  0  0  0  0  0  0
  -12.2880    4.0870   26.3822 C   0  0  2  0  0  0  0  0  0  0  0  0
  -13.5763    4.2980   26.9257 C   0  0  0  0  0  0  0  0  0  0  0  0
  -13.7882    4.5517   28.2359 C   0  0  0  0  0  0  0  0  0  0  0  0
  -15.0315    4.8756   28.8017 C   0  0  0  0  0  0  0  0  0  0  0  0
  -16.0995    4.9434   27.9305 C   0  0  0  0  0  0  0  0  0  0  0  0
  -14.7198    4.5240   26.0454 C   0  0  0  0  0  0  0  0  0  0  0  0
  -15.9416    4.8031   26.5710 C   0  0  0  0  0  0  0  0  0  0  0  0
  -14.3472    4.2403   24.6450 C   0  0  0  0  0  0  0  0  0  0  0  0
  -14.6825    4.9806   23.8149 C   0  0  0  0  0  0  0  0  0  0  0  0
  -14.3093    4.8603   22.3814 C   0  0  0  0  0  0  0  0  0  0  0  0
  -13.4170    3.8620   22.0989 C   0  0  0  0  0  0  0  0  0  0  0  0
  -12.9579    3.0386   23.0731 C   0  0  0  0  0  0  0  0  0  0  0  0
  -13.3625    3.2463   24.4002 C   0  0  0  0  0  0  0  0  0  0  0  0
  -12.0763    3.6321   25.2260 C   0  0  0  0  0  0  0  0  0  0  0  0
  2  7  1  0
  7  8  1  0
  7  9  1  0
  7 10  1  0
  4 11  1  0
  6 12  1  0
  5 13  1  0
  3 14  1  0
 15 14  1  1
 15 16  1  0
 20 22  1  0
 15 28  1  0
 27 28  1  0
 22 23  2  0
 23 24  1  0
 24 25  2  0
 25 26  1  0
 26 27  2  0
 27 22  1  0
  1  2  2  0
  2  3  1  0
  3  6  2  0
  6  5  1  0
  5  4  2  0
  4  1  1  0
 16 17  2  0
 17 18  1  0
 18 19  2  0
 19 21  1  0
 21 20  2  0
 20 16  1  0
M  END
$$$$
