No_1182-complexes_sdf/6BKW-FPZ/2024-09-17-14-21-01/
     RDKit          3D

 18 19  0  0  0  0  0  0  0  0999 V2000
   -7.9040    3.9820   27.1177 C   0  0  0  0  0  0  0  0  0  0  0  0
   -9.0711    4.3164   27.0630 C   0  0  0  0  0  0  0  0  0  0  0  0
   -9.8698    3.9665   25.9495 C   0  0  1  0  0  0  0  0  0  0  0  0
   -7.0332    4.5030   28.2025 C   0  0  0  0  0  0  0  0  0  0  0  0
  -10.9909    4.7237   25.5958 C   0  0  0  0  0  0  0  0  0  0  0  0
   -7.4989    5.5573   28.9524 C   0  0  0  0  0  0  0  0  0  0  0  0
  -11.7350    4.2316   24.5284 C   0  0  0  0  0  0  0  0  0  0  0  0
  -11.3710    3.5124   23.9025 C   0  0  0  0  0  0  0  0  0  0  0  0
  -10.2241    2.7128   23.9449 C   0  0  0  0  0  0  0  0  0  0  0  0
   -9.4303    3.0505   25.0632 C   0  0  0  0  0  0  0  0  0  0  0  0
   -9.4929    5.4103   27.9362 C   0  0  0  0  0  0  0  0  0  0  0  0
   -8.7211    5.9883   28.8402 C   0  0  0  0  0  0  0  0  0  0  0  0
   -9.7715    1.6340   23.0541 C   0  0  2  0  0  0  0  0  0  0  0  0
   -8.8607    0.7320   23.4513 C   0  0  0  0  0  0  0  0  0  0  0  0
  -10.2161    1.6551   21.7115 C   0  0  0  0  0  0  0  0  0  0  0  0
   -9.1114   -0.4402   23.7066 C   0  0  0  0  0  0  0  0  0  0  0  0
   -8.1766   -1.3617   24.2193 C   0  0  0  0  0  0  0  0  0  0  0  0
   -8.3282   -2.5201   24.6494 C   0  0  0  0  0  0  0  0  0  0  0  0
  3  5  1  0
  5  7  1  0
  7  8  1  0
  8  9  1  0
  3 10  1  0
  9 10  1  0
  9 13  1  0
 13 14  1  0
 13 15  1  6
 14 16  2  3
 16 17  1  0
 17 18  2  0
  3  2  1  6
  1  2  2  0
  2 11  1  0
 11 12  2  0
 12  6  1  0
  6  4  2  0
  4  1  1  0
M  END
$$$$
