No_1640-complexes_sdf/6BKW-FPZ/2024-09-17-14-21-01/
     RDKit          3D

  8  8  0  0  0  0  0  0  0  0999 V2000
   -7.9040    3.9820   27.1177 C   0  0  0  0  0  0  0  0  0  0  0  0
   -7.8663    4.8694   27.9238 C   0  0  0  0  0  0  0  0  0  0  0  0
   -7.4547    2.7080   27.4594 C   0  0  0  0  0  0  0  0  0  0  0  0
   -8.7044    6.0412   27.8492 C   0  0  0  0  0  0  0  0  0  0  0  0
   -7.9501    1.5743   26.8848 C   0  0  0  0  0  0  0  0  0  0  0  0
   -8.8773    1.7289   25.8707 C   0  0  0  0  0  0  0  0  0  0  0  0
   -9.3595    2.9624   25.5238 C   0  0  0  0  0  0  0  0  0  0  0  0
   -9.0069    4.0555   26.2453 C   0  0  0  0  0  0  0  0  0  0  0  0
  1  2  1  0
  2  4  2  0
  1  3  2  0
  3  5  1  0
  5  6  2  0
  6  7  1  0
  7  8  2  0
  8  1  1  0
M  END
$$$$
