No_1220-complexes_sdf/6BKW-FPZ/2024-09-17-14-21-01/
     RDKit          3D

 34 36  0  0  0  0  0  0  0  0999 V2000
   -7.7129    4.2099   27.0854 C   0  0  0  0  0  0  0  0  0  0  0  0
   -8.2112    3.0637   26.9225 C   0  0  0  0  0  0  0  0  0  0  0  0
   -9.4446    2.8304   26.1868 C   0  0  0  0  0  0  0  0  0  0  0  0
   -8.4697    5.3956   26.7238 C   0  0  0  0  0  0  0  0  0  0  0  0
   -9.6172    5.2111   25.9513 C   0  0  0  0  0  0  0  0  0  0  0  0
  -10.0424    3.9782   25.6873 C   0  0  0  0  0  0  0  0  0  0  0  0
   -7.5056    1.8167   27.4088 C   0  0  0  0  0  0  0  0  0  0  0  0
   -6.1365    1.8782   27.7502 C   0  0  0  0  0  0  0  0  0  0  0  0
   -5.4402    0.7398   28.2080 C   0  0  0  0  0  0  0  0  0  0  0  0
   -6.0836   -0.4843   28.1647 C   0  0  0  0  0  0  0  0  0  0  0  0
   -8.0402    0.5377   27.3754 C   0  0  0  0  0  0  0  0  0  0  0  0
   -7.4090   -0.5410   27.8089 C   0  0  0  0  0  0  0  0  0  0  0  0
   -7.9636    6.7380   27.0471 C   0  0  0  0  0  0  0  0  0  0  0  0
   -7.1120    6.8091   27.9662 O   0  0  0  0  0  0  0  0  0  0  0  0
   -8.3761    7.8421   26.4466 N   0  0  0  0  0  0  0  0  0  0  0  0
   -4.1717    0.9083   28.5811 F   0  0  0  0  0  0  0  0  0  0  0  0
  -11.2415    3.8240   24.8278 C   0  0  0  0  0  0  0  0  0  0  0  0
  -11.1227    3.0238   23.7315 C   0  0  0  0  0  0  0  0  0  0  0  0
  -10.0692    2.1873   23.5555 C   0  0  0  0  0  0  0  0  0  0  0  0
   -9.8422    1.1558   23.5550 C   0  0  0  0  0  0  0  0  0  0  0  0
   -8.5853    0.4168   23.2018 C   0  0  0  0  0  0  0  0  0  0  0  0
  -10.8803    0.0991   23.9623 C   0  0  0  0  0  0  0  0  0  0  0  0
  -10.5457   -1.1849   24.0270 C   0  0  0  0  0  0  0  0  0  0  0  0
   -8.4392   -0.8246   23.3439 C   0  0  0  0  0  0  0  0  0  0  0  0
   -9.3672   -1.7152   23.7134 C   0  0  0  0  0  0  0  0  0  0  0  0
  -12.1088    3.1144   22.8581 C   0  0  0  0  0  0  0  0  0  0  0  0
  -11.8383    3.3609   21.6018 C   0  0  0  0  0  0  0  0  0  0  0  0
  -13.4798    2.9571   23.1993 C   0  0  0  0  0  0  0  0  0  0  0  0
   -9.1131   -3.3998   23.8390 Cl  0  0  0  0  0  0  0  0  0  0  0  0
  -13.9878    2.9817   24.2875 C   0  0  0  0  0  0  0  0  0  0  0  0
  -15.3969    2.8269   24.6110 C   0  0  0  0  0  0  0  0  0  0  0  0
  -15.9038    2.8304   25.9244 C   0  0  0  0  0  0  0  0  0  0  0  0
  -15.0139    3.1252   26.9815 C   0  0  0  0  0  0  0  0  0  0  0  0
  -13.6709    3.3464   26.8218 C   0  0  0  0  0  0  0  0  0  0  0  0
  2  7  1  0
  4 13  1  0
 13 14  2  0
 13 15  1  0
  9 16  1  0
  6 17  1  0
 17 18  2  3
 18 19  1  0
 18 26  1  0
 26 27  1  0
 26 28  1  0
 25 29  1  0
 28 30  2  3
 30 31  1  0
 31 32  2  3
 32 33  1  0
 33 34  2  0
 19 20  1  0
  7  8  2  0
  8  9  1  0
  9 10  2  0
 10 12  1  0
 12 11  2  0
 11  7  1  0
 20 21  2  0
 21 24  1  0
 24 25  2  0
 25 23  1  0
 23 22  2  0
 22 20  1  0
  1  2  2  0
  2  3  1  0
  3  6  2  0
  6  5  1  0
  5  4  2  0
  4  1  1  0
M  END
$$$$
