No_1069-complexes_sdf/6BKW-FPZ/2024-09-17-14-21-01/
     RDKit          3D

 29 34  0  0  0  0  0  0  0  0999 V2000
   -7.7129    4.2099   27.0854 C   0  0  0  0  0  0  0  0  0  0  0  0
   -8.2112    3.0637   26.9225 C   0  0  0  0  0  0  0  0  0  0  0  0
   -9.5629    2.7997   27.0678 C   0  0  0  0  0  0  0  0  0  0  0  0
   -6.4184    4.5977   27.5404 C   0  0  0  0  0  0  0  0  0  0  0  0
  -10.4239    3.8616   27.0537 C   0  0  0  0  0  0  0  0  0  0  0  0
   -9.9609    5.1129   27.3327 C   0  0  0  0  0  0  0  0  0  0  0  0
   -8.6281    5.3763   27.4401 C   0  0  2  0  0  0  0  0  0  0  0  0
   -8.2029    6.5493   27.6871 F   0  0  0  0  0  0  0  0  0  0  0  0
  -10.0840    1.4066   26.7376 C   0  0  0  0  0  0  0  0  0  0  0  0
   -9.3283    0.4944   26.3738 C   0  0  0  0  0  0  0  0  0  0  0  0
   -9.7690   -0.8688   26.1399 C   0  0  0  0  0  0  0  0  0  0  0  0
  -11.1123   -1.1123   26.4299 C   0  0  0  0  0  0  0  0  0  0  0  0
  -11.9160   -0.1621   27.0042 C   0  0  0  0  0  0  0  0  0  0  0  0
  -11.4368    1.1222   27.2526 C   0  0  1  0  0  0  0  0  0  0  0  0
  -13.2997   -0.5129   27.4239 C   0  0  0  0  0  0  0  0  0  0  0  0
  -13.9830    0.2653   28.2698 C   0  0  0  0  0  0  0  0  0  0  0  0
  -13.3995    1.5839   28.4996 C   0  0  0  0  0  0  0  0  0  0  0  0
  -12.2189    2.0178   28.1011 C   0  0  0  0  0  0  0  0  0  0  0  0
   -8.8843   -1.8514   25.5430 C   0  0  0  0  0  0  0  0  0  0  0  0
   -7.7409   -1.5537   25.4372 C   0  0  0  0  0  0  0  0  0  0  0  0
   -7.1387   -0.1891   25.6202 C   0  0  0  0  0  0  0  0  0  0  0  0
   -7.9262    0.7176   26.0408 C   0  0  0  0  0  0  0  0  0  0  0  0
   -7.4625    2.1025   26.3905 C   0  0  0  0  0  0  0  0  0  0  0  0
  -14.2577    2.5052   29.4531 C   0  0  1  0  0  0  0  0  0  0  0  0
  -13.9536    2.6544   30.6635 C   0  0  0  0  0  0  0  0  0  0  0  0
  -14.2631    3.7750   31.4574 C   0  0  0  0  0  0  0  0  0  0  0  0
  -15.1288    4.7483   30.8296 C   0  0  0  0  0  0  0  0  0  0  0  0
  -15.4135    4.6025   29.5118 C   0  0  0  0  0  0  0  0  0  0  0  0
  -14.8933    3.5593   28.7202 C   0  0  0  0  0  0  0  0  0  0  0  0
  1  2  2  0
  2  3  1  0
  1  4  1  0
  3  5  2  0
  5  6  1  0
  1  7  1  0
  6  7  1  0
  7  8  1  6
  3  9  1  0
  9 10  2  0
 10 11  1  0
 11 12  2  0
 12 13  1  0
  9 14  1  0
 13 14  1  0
 13 15  1  0
 15 16  2  0
 16 17  1  0
 14 18  1  1
 17 18  2  0
 11 19  1  0
 19 20  2  0
 20 21  1  0
 10 22  1  0
 21 22  2  0
  2 23  1  0
 22 23  1  0
 24 17  1  6
 24 25  1  0
 25 26  2  0
 26 27  1  0
 27 28  2  0
 24 29  1  0
 28 29  1  0
M  END
$$$$
