No_183-complexes_sdf/6BKW-FPZ/2024-09-17-14-21-01/
     RDKit          3D

 22 24  0  0  0  0  0  0  0  0999 V2000
   -7.9040    3.9820   27.1177 C   0  0  0  0  0  0  0  0  0  0  0  0
   -8.2057    2.8231   26.8733 C   0  0  0  0  0  0  0  0  0  0  0  0
   -8.7695    5.0740   26.7916 C   0  0  0  0  0  0  0  0  0  0  0  0
   -8.4337    6.4678   27.0913 C   0  0  0  0  0  0  0  0  0  0  0  0
   -9.3742    2.4311   26.2346 C   0  0  0  0  0  0  0  0  0  0  0  0
  -10.2395    3.4267   25.8887 C   0  0  0  0  0  0  0  0  0  0  0  0
   -9.9567    4.7548   26.1374 C   0  0  0  0  0  0  0  0  0  0  0  0
   -8.0651    6.7859   28.2044 O   0  0  0  0  0  0  0  0  0  0  0  0
   -8.3766    7.3358   26.1162 O   0  0  0  0  0  0  0  0  0  0  0  0
   -7.2530    1.6758   27.2930 C   0  0  0  0  0  0  0  0  0  0  0  0
   -7.5489    0.3217   27.1952 C   0  0  0  0  0  0  0  0  0  0  0  0
   -6.5885   -0.5585   27.5357 C   0  0  0  0  0  0  0  0  0  0  0  0
   -6.8147   -1.9558   27.5241 C   0  0  0  0  0  0  0  0  0  0  0  0
   -5.2867   -0.0311   28.0315 C   0  0  0  0  0  0  0  0  0  0  0  0
   -5.0274    1.3135   28.0836 C   0  0  0  0  0  0  0  0  0  0  0  0
   -5.9177    2.1511   27.7277 C   0  0  0  0  0  0  0  0  0  0  0  0
   -7.9398   -2.4354   27.5796 C   0  0  0  0  0  0  0  0  0  0  0  0
   -9.0033   -1.6874   28.0514 C   0  0  0  0  0  0  0  0  0  0  0  0
   -8.9189   -0.1927   27.6066 C   0  0  0  0  0  0  0  0  0  0  0  0
   -4.2062   -0.9891   28.4465 C   0  0  0  0  0  0  0  0  0  0  0  0
   -3.1309   -0.5026   28.4410 C   0  0  0  0  0  0  0  0  0  0  0  0
   -2.6495    0.8300   28.2851 C   0  0  0  0  0  0  0  0  0  0  0  0
  3  4  1  0
  4  8  1  0
  4  9  2  0
  2 10  1  0
 14 20  1  0
 20 21  1  0
 21 22  2  0
 12 13  2  0
 13 17  1  0
 17 18  2  0
 18 19  1  0
 19 11  2  0
 10 11  1  0
 11 12  1  0
 12 14  1  0
 14 15  2  0
 15 16  1  0
 16 10  2  0
  1  2  2  0
  2  5  1  0
  5  6  2  0
  6  7  1  0
  7  3  2  0
  3  1  1  0
M  END
$$$$
