No_1416-complexes_sdf/6BKW-FPZ/2024-09-17-14-21-01/
     RDKit          3D

 23 25  0  0  0  0  0  0  0  0999 V2000
   -7.9040    3.9820   27.1177 C   0  0  0  0  0  0  0  0  0  0  0  0
   -9.0711    4.3164   27.0630 C   0  0  0  0  0  0  0  0  0  0  0  0
   -9.5182    5.5541   27.5777 C   0  0  0  0  0  0  0  0  0  0  0  0
   -6.9424    4.7983   27.8424 C   0  0  0  0  0  0  0  0  0  0  0  0
   -7.3526    5.9739   28.3909 C   0  0  0  0  0  0  0  0  0  0  0  0
   -8.6479    6.3742   28.2169 C   0  0  0  0  0  0  0  0  0  0  0  0
  -10.0793    3.4689   26.3368 C   0  0  0  0  0  0  0  0  0  0  0  0
  -10.8065    3.4472   25.6317 C   0  0  0  0  0  0  0  0  0  0  0  0
  -11.3972    2.6177   24.8146 C   0  0  0  0  0  0  0  0  0  0  0  0
  -10.9992    1.2821   25.0124 C   0  0  0  0  0  0  0  0  0  0  0  0
   -9.5277    1.9981   26.2836 C   0  0  0  0  0  0  0  0  0  0  0  0
  -10.0584    1.0241   25.7377 C   0  0  0  0  0  0  0  0  0  0  0  0
   -9.5416   -0.3942   25.9366 C   0  0  0  0  0  0  0  0  0  0  0  0
   -9.9870   -1.2291   26.3205 C   0  0  0  0  0  0  0  0  0  0  0  0
  -11.4354   -1.1211   26.8679 C   0  0  0  0  0  0  0  0  0  0  0  0
  -11.9827   -0.2836   27.2178 C   0  0  0  0  0  0  0  0  0  0  0  0
  -12.7276    0.1656   27.8511 C   0  0  0  0  0  0  0  0  0  0  0  0
  -13.4258    1.4492   27.8619 C   0  0  0  0  0  0  0  0  0  0  0  0
  -14.1543    1.9949   28.4649 C   0  0  0  0  0  0  0  0  0  0  0  0
  -14.6365    3.3977   28.2925 C   0  0  0  0  0  0  0  0  0  0  0  0
  -14.2014    4.0062   27.1320 C   0  0  0  0  0  0  0  0  0  0  0  0
  -13.3438    3.3988   26.3464 C   0  0  0  0  0  0  0  0  0  0  0  0
  -12.8372    2.1762   26.6155 C   0  0  0  0  0  0  0  0  0  0  0  0
  2  7  1  0
 12 13  1  0
 13 14  2  3
 14 15  1  0
 15 16  1  0
 16 17  2  3
 17 18  1  0
  7  8  2  0
  8  9  1  0
  9 10  2  0
 10 12  1  0
 12 11  2  0
 11  7  1  0
  1  2  2  0
  2  3  1  0
  3  6  2  0
  6  5  1  0
  5  4  2  0
  4  1  1  0
 18 19  2  0
 19 20  1  0
 20 21  2  0
 21 22  1  0
 22 23  2  0
 23 18  1  0
M  END
$$$$
