No_1736-complexes_sdf/6BKW-FPZ/2024-09-17-14-21-01/
     RDKit          3D

 29 33  0  0  0  0  0  0  0  0999 V2000
   -7.9040    3.9820   27.1177 C   0  0  0  0  0  0  0  0  0  0  0  0
   -7.8663    4.8694   27.9238 C   0  0  0  0  0  0  0  0  0  0  0  0
   -9.0501    3.8017   26.2617 C   0  0  0  0  0  0  0  0  0  0  0  0
  -10.0189    4.7608   26.3707 C   0  0  0  0  0  0  0  0  0  0  0  0
   -8.6770    5.9780   27.9222 C   0  0  0  0  0  0  0  0  0  0  0  0
   -9.8040    5.8752   27.0958 C   0  0  0  0  0  0  0  0  0  0  0  0
   -9.1317    2.6414   25.4147 C   0  0  0  0  0  0  0  0  0  0  0  0
   -8.6458    1.4431   25.8429 C   0  0  0  0  0  0  0  0  0  0  0  0
   -8.6287    0.3531   25.0209 C   0  0  0  0  0  0  0  0  0  0  0  0
   -9.2518    0.4986   23.7634 C   0  0  0  0  0  0  0  0  0  0  0  0
   -9.7826    1.7133   23.3129 C   0  0  0  0  0  0  0  0  0  0  0  0
   -9.6792    2.7905   24.1308 C   0  0  0  0  0  0  0  0  0  0  0  0
  -10.3714    2.0200   22.0041 C   0  0  0  0  0  0  0  0  0  0  0  0
  -10.3732    3.1859   21.5702 N   0  0  0  0  0  0  0  0  0  0  0  0
  -10.2619    4.2139   22.1900 C   0  0  0  0  0  0  0  0  0  0  0  0
   -9.9778    4.1002   23.5906 N   0  0  0  0  0  0  0  0  0  0  0  0
  -10.3165    0.9127   21.1229 N   0  0  0  0  0  0  0  0  0  0  0  0
  -11.3899    0.5794   20.4460 C   0  0  0  0  0  0  0  0  0  0  0  0
  -12.2128    1.1225   20.2175 C   0  0  0  0  0  0  0  0  0  0  0  0
  -11.0839   -0.8000   19.7597 C   0  0  0  0  0  0  0  0  0  0  0  0
  -13.3417    0.7185   19.3509 C   0  0  0  0  0  0  0  0  0  0  0  0
   -9.9455   -1.6242   20.0305 C   0  0  0  0  0  0  0  0  0  0  0  0
  -13.1606   -0.5156   18.7367 C   0  0  0  0  0  0  0  0  0  0  0  0
  -12.0663   -1.2561   18.9349 C   0  0  0  0  0  0  0  0  0  0  0  0
   -9.1438   -1.8022   20.6044 C   0  0  0  0  0  0  0  0  0  0  0  0
   -8.0473   -2.7233   20.4531 C   0  0  0  0  0  0  0  0  0  0  0  0
   -8.0075   -3.4342   19.2815 C   0  0  0  0  0  0  0  0  0  0  0  0
   -9.7427   -2.5122   18.7164 C   0  0  0  0  0  0  0  0  0  0  0  0
   -8.8050   -3.2666   18.4625 C   0  0  0  0  0  0  0  0  0  0  0  0
  3  7  1  0
 13 17  1  0
 17 18  1  0
 20 22  1  0
 12 16  2  0
 16 15  1  0
 15 14  2  0
 14 13  1  0
 13 11  2  0
 22 25  2  0
 25 26  1  0
 26 27  2  0
 27 29  1  0
 29 28  2  0
 28 22  1  0
 18 19  2  0
 19 21  1  0
 21 23  2  0
 23 24  1  0
 24 20  2  0
 20 18  1  0
  7  8  2  0
  8  9  1  0
  9 10  2  0
 10 11  1  0
 11 12  1  0
 12  7  1  0
  1  2  2  0
  2  5  1  0
  5  6  2  0
  6  4  1  0
  4  3  2  0
  3  1  1  0
M  END
$$$$
