No_1973-complexes_sdf/6BKW-FPZ/2024-09-17-14-21-01/
     RDKit          3D

 19 21  0  0  0  0  0  0  0  0999 V2000
   -7.9040    3.9820   27.1177 C   0  0  0  0  0  0  0  0  0  0  0  0
   -7.8663    4.8694   27.9238 C   0  0  0  0  0  0  0  0  0  0  0  0
   -9.0953    3.1697   27.0532 C   0  0  0  0  0  0  0  0  0  0  0  0
  -10.1313    3.4052   27.8871 C   0  0  0  0  0  0  0  0  0  0  0  0
   -8.9489    5.3814   28.6671 C   0  0  0  0  0  0  0  0  0  0  0  0
  -10.1039    4.5714   28.7102 C   0  0  0  0  0  0  0  0  0  0  0  0
   -9.0505    1.9437   26.1963 C   0  0  0  0  0  0  0  0  0  0  0  0
   -8.3625    0.8150   26.4195 C   0  0  0  0  0  0  0  0  0  0  0  0
   -8.2822   -0.1917   25.5346 C   0  0  0  0  0  0  0  0  0  0  0  0
   -9.7311    2.0851   24.9615 C   0  0  0  0  0  0  0  0  0  0  0  0
   -9.6536    1.1094   23.9944 C   0  0  0  0  0  0  0  0  0  0  0  0
   -8.9074   -0.0386   24.3167 C   0  0  0  0  0  0  0  0  0  0  0  0
  -11.3219    2.5834   27.9130 C   0  0  1  0  0  0  0  0  0  0  0  0
  -12.4928    2.9499   27.2424 C   0  0  0  0  0  0  0  0  0  0  0  0
  -13.5084    3.0437   27.9460 C   0  0  0  0  0  0  0  0  0  0  0  0
  -13.8061    2.2038   29.0580 C   0  0  0  0  0  0  0  0  0  0  0  0
  -12.6148    1.5419   29.5745 C   0  0  0  0  0  0  0  0  0  0  0  0
  -11.0444    1.1925   28.1504 C   0  0  0  0  0  0  0  0  0  0  0  0
  -11.6483    0.8066   29.1405 C   0  0  0  0  0  0  0  0  0  0  0  0
  3  7  1  0
 13  4  1  6
 13 14  1  0
 14 15  1  0
 15 16  2  0
 16 17  1  0
 13 18  1  0
 17 19  1  0
 18 19  2  0
  1  2  2  0
  2  5  1  0
  5  6  2  0
  6  4  1  0
  4  3  2  0
  3  1  1  0
  7  8  2  0
  8  9  1  0
  9 12  2  0
 12 11  1  0
 11 10  2  0
 10  7  1  0
M  END
$$$$
