No_1828-complexes_sdf/6BKW-FPZ/2024-09-17-14-21-01/
     RDKit          3D

 21 22  0  0  0  0  0  0  0  0999 V2000
   -7.9040    3.9820   27.1177 C   0  0  0  0  0  0  0  0  0  0  0  0
   -8.2057    2.8231   26.8733 C   0  0  0  0  0  0  0  0  0  0  0  0
   -7.0130    4.3706   28.1140 C   0  0  0  0  0  0  0  0  0  0  0  0
   -7.4093    1.7370   27.3857 C   0  0  0  0  0  0  0  0  0  0  0  0
   -6.1712    2.1248   28.0064 C   0  0  0  0  0  0  0  0  0  0  0  0
   -5.9514    3.4407   28.3034 C   0  0  0  0  0  0  0  0  0  0  0  0
   -8.9085    5.0926   26.7182 C   0  0  0  0  0  0  0  0  0  0  0  0
   -9.5320    4.9761   25.4502 C   0  0  0  0  0  0  0  0  0  0  0  0
   -5.2418    1.0587   28.3881 C   0  0  0  0  0  0  0  0  0  0  0  0
   -4.5513    0.4462   27.6641 C   0  0  0  0  0  0  0  0  0  0  0  0
   -3.5495   -0.5450   28.0818 C   0  0  0  0  0  0  0  0  0  0  0  0
   -3.3758   -0.7936   29.4296 C   0  0  0  0  0  0  0  0  0  0  0  0
   -4.2086   -0.0585   30.3180 C   0  0  0  0  0  0  0  0  0  0  0  0
   -5.0276    0.9127   29.8202 C   0  0  0  0  0  0  0  0  0  0  0  0
   -8.9305    6.3660   27.3400 C   0  0  0  0  0  0  0  0  0  0  0  0
   -4.0337   -0.1585   31.6208 F   0  0  0  0  0  0  0  0  0  0  0  0
  -10.3319    3.9175   25.1599 C   0  0  0  0  0  0  0  0  0  0  0  0
  -10.7776    3.7343   23.8004 C   0  0  0  0  0  0  0  0  0  0  0  0
  -11.4445    2.5900   23.3833 C   0  0  0  0  0  0  0  0  0  0  0  0
  -11.7144    1.6380   24.3228 C   0  0  0  0  0  0  0  0  0  0  0  0
  -11.3577    1.7765   25.6316 C   0  0  0  0  0  0  0  0  0  0  0  0
  1  7  1  0
  7  8  2  3
  5  9  1  0
  7 15  1  0
 13 16  1  0
  8 17  1  0
 17 18  2  3
 18 19  1  0
 19 20  2  3
 20 21  1  0
  1  2  2  0
  2  4  1  0
  4  5  2  0
  5  6  1  0
  6  3  2  0
  3  1  1  0
  9 10  2  0
 10 11  1  0
 11 12  2  0
 12 13  1  0
 13 14  2  0
 14  9  1  0
M  END
$$$$
