No_1752-complexes_sdf/6BKW-FPZ/2024-09-17-14-21-01/
     RDKit          3D

 17 18  0  0  0  0  0  0  0  0999 V2000
   -7.9040    3.9820   27.1177 C   0  0  0  0  0  0  0  0  0  0  0  0
   -9.0711    4.3164   27.0630 C   0  0  0  0  0  0  0  0  0  0  0  0
   -9.9692    3.7224   26.1073 C   0  0  0  0  0  0  0  0  0  0  0  0
   -7.4776    2.6994   26.6283 C   0  0  0  0  0  0  0  0  0  0  0  0
   -8.4406    1.9440   25.9776 C   0  0  0  0  0  0  0  0  0  0  0  0
   -9.6379    2.5001   25.6881 C   0  0  0  0  0  0  0  0  0  0  0  0
   -6.7701    4.7886   28.1891 Cl  0  0  0  0  0  0  0  0  0  0  0  0
  -10.5973    1.7372   24.8197 C   0  0  0  0  0  0  0  0  0  0  0  0
  -10.2488    1.3637   23.7034 C   0  0  0  0  0  0  0  0  0  0  0  0
   -8.8625    1.6368   23.2129 C   0  0  0  0  0  0  0  0  0  0  0  0
  -11.1134    0.6398   22.7187 C   0  0  0  0  0  0  0  0  0  0  0  0
  -10.8009    0.1579   21.6884 C   0  0  0  0  0  0  0  0  0  0  0  0
   -9.3833    0.3465   21.1575 C   0  0  0  0  0  0  0  0  0  0  0  0
   -8.5017    1.0361   21.9344 C   0  0  0  0  0  0  0  0  0  0  0  0
  -11.8818    1.5513   25.3661 C   0  0  0  0  0  0  0  0  0  0  0  0
  -12.8562    2.3229   25.2693 C   0  0  0  0  0  0  0  0  0  0  0  0
  -14.1560    2.1142   25.8662 C   0  0  0  0  0  0  0  0  0  0  0  0
  1  7  1  0
  6  8  1  0
  8 15  1  0
 15 16  2  3
 16 17  1  0
  8  9  1  0
  1  2  2  0
  2  3  1  0
  3  6  2  0
  6  5  1  0
  5  4  2  0
  4  1  1  0
  9 10  2  0
 10 14  1  0
 14 13  2  0
 13 12  1  0
 12 11  2  0
 11  9  1  0
M  END
$$$$
