No_1376-complexes_sdf/6BKW-FPZ/2024-09-17-14-21-01/
     RDKit          3D

 34 38  0  0  0  0  0  0  0  0999 V2000
   -7.2496    3.8871   27.4508 C   0  0  0  0  0  0  0  0  0  0  0  0
   -7.9379    4.9063   27.8518 C   0  0  0  0  0  0  0  0  0  0  0  0
   -9.3460    4.8223   27.8695 C   0  0  0  0  0  0  0  0  0  0  0  0
   -7.8628    2.6163   27.1065 C   0  0  0  0  0  0  0  0  0  0  0  0
   -9.2787    2.5744   27.1970 C   0  0  0  0  0  0  0  0  0  0  0  0
  -10.0108    3.6770   27.6340 C   0  0  0  0  0  0  0  0  0  0  0  0
  -11.4834    3.5674   27.7432 C   0  0  0  0  0  0  0  0  0  0  0  0
  -11.9395    2.6434   28.4995 C   0  0  0  0  0  0  0  0  0  0  0  0
  -13.3550    2.4593   28.7913 C   0  0  0  0  0  0  0  0  0  0  0  0
  -14.1867    3.4420   28.2483 C   0  0  0  0  0  0  0  0  0  0  0  0
  -13.6865    4.4698   27.4825 C   0  0  0  0  0  0  0  0  0  0  0  0
  -12.3085    4.6362   27.2712 C   0  0  0  0  0  0  0  0  0  0  0  0
   -7.1846    1.5864   26.7847 F   0  0  0  0  0  0  0  0  0  0  0  0
   -7.3222    6.0845   28.0905 O   0  0  0  0  0  0  0  0  0  0  0  0
  -15.6812    3.3326   28.4376 C   0  0  2  0  0  0  0  0  0  0  0  0
  -16.2203    2.8709   29.3584 C   0  0  0  0  0  0  0  0  0  0  0  0
  -17.6646    2.7536   29.5123 C   0  0  0  0  0  0  0  0  0  0  0  0
  -18.2991    2.2005   30.6251 C   0  0  0  0  0  0  0  0  0  0  0  0
  -17.4648    1.6854   31.6555 C   0  0  0  0  0  0  0  0  0  0  0  0
  -16.1054    1.7066   31.6128 C   0  0  0  0  0  0  0  0  0  0  0  0
  -15.4637    2.3038   30.4974 C   0  0  0  0  0  0  0  0  0  0  0  0
  -16.2940    2.9795   27.0259 C   0  0  0  0  0  0  0  0  0  0  0  0
  -16.1951    1.9083   26.4161 C   0  0  0  0  0  0  0  0  0  0  0  0
  -16.5237    1.5677   25.4577 C   0  0  0  0  0  0  0  0  0  0  0  0
  -16.4982    4.2126   26.2920 C   0  0  0  0  0  0  0  0  0  0  0  0
  -17.0172    3.9655   24.9624 C   0  0  0  0  0  0  0  0  0  0  0  0
  -17.0144    2.6604   24.5135 C   0  0  0  0  0  0  0  0  0  0  0  0
  -17.5035    2.3718   23.2894 O   0  0  0  0  0  0  0  0  0  0  0  0
  -17.8565    3.1582   22.4337 C   0  0  0  0  0  0  0  0  0  0  0  0
  -18.1983    2.6612   21.2527 C   0  0  0  0  0  0  0  0  0  0  0  0
  -18.6220    3.5343   20.1886 C   0  0  0  0  0  0  0  0  0  0  0  0
  -18.6027    4.9489   20.4091 C   0  0  0  0  0  0  0  0  0  0  0  0
  -18.1794    5.4203   21.6268 C   0  0  0  0  0  0  0  0  0  0  0  0
  -17.7993    4.6138   22.6304 C   0  0  0  0  0  0  0  0  0  0  0  0
  6  7  1  0
  4 13  1  0
  2 14  1  0
 15 10  1  6
 15 22  1  0
 27 28  1  0
 28 29  1  0
 15 16  1  0
  1  2  2  0
  2  3  1  0
  3  6  2  0
  6  5  1  0
  5  4  2  0
  4  1  1  0
  7  8  2  0
  8  9  1  0
  9 10  2  0
 10 11  1  0
 11 12  2  0
 12  7  1  0
 22 23  2  0
 23 24  1  0
 24 27  2  0
 27 26  1  0
 26 25  2  0
 25 22  1  0
 29 30  2  0
 30 31  1  0
 31 32  2  0
 32 33  1  0
 33 34  2  0
 34 29  1  0
 16 17  2  0
 17 18  1  0
 18 19  2  0
 19 20  1  0
 20 21  2  0
 21 16  1  0
M  END
$$$$
