No_1940-complexes_sdf/6BKW-FPZ/2024-09-17-14-21-01/
     RDKit          3D

 15 16  0  0  0  0  0  0  0  0999 V2000
   -7.2496    3.8871   27.4508 C   0  0  0  0  0  0  0  0  0  0  0  0
   -7.9379    4.9063   27.8518 C   0  0  0  0  0  0  0  0  0  0  0  0
   -9.3376    4.8647   27.7795 C   0  0  0  0  0  0  0  0  0  0  0  0
   -7.8544    2.6294   27.0414 C   0  0  0  0  0  0  0  0  0  0  0  0
   -9.2852    2.6570   27.0666 C   0  0  0  0  0  0  0  0  0  0  0  0
  -10.0126    3.7528   27.4890 C   0  0  0  0  0  0  0  0  0  0  0  0
  -11.8956    3.6700   27.5338 Br  0  0  0  0  0  0  0  0  0  0  0  0
   -7.1646    1.5943   26.7309 O   0  0  0  0  0  0  0  0  0  0  0  0
   -7.7059    0.5067   26.1835 C   0  0  0  0  0  0  0  0  0  0  0  0
   -7.9198   -0.5794   26.9506 C   0  0  0  0  0  0  0  0  0  0  0  0
   -7.3279   -0.6678   28.1858 C   0  0  0  0  0  0  0  0  0  0  0  0
   -7.4697   -1.8606   29.0179 C   0  0  0  0  0  0  0  0  0  0  0  0
   -8.4174   -2.8026   28.5576 C   0  0  0  0  0  0  0  0  0  0  0  0
   -9.0694   -2.6841   27.3802 C   0  0  0  0  0  0  0  0  0  0  0  0
   -8.8193   -1.5488   26.5637 C   0  0  0  0  0  0  0  0  0  0  0  0
  6  7  1  0
  4  8  1  0
  8  9  1  0
  9 10  1  0
  1  2  2  0
  2  3  1  0
  3  6  2  0
  6  5  1  0
  5  4  2  0
  4  1  1  0
 10 11  2  0
 11 12  1  0
 12 13  2  0
 13 14  1  0
 14 15  2  0
 15 10  1  0
M  END
$$$$
