No_1202-complexes_sdf/6BKW-FPZ/2024-09-17-14-21-01/
     RDKit          3D

 17 18  0  0  0  0  0  0  0  0999 V2000
   -7.2496    3.8871   27.4508 C   0  0  0  0  0  0  0  0  0  0  0  0
   -7.6161    2.7143   27.1523 C   0  0  0  0  0  0  0  0  0  0  0  0
   -8.8302    2.4659   26.5056 C   0  0  0  0  0  0  0  0  0  0  0  0
   -8.1584    5.0090   27.3234 C   0  0  0  0  0  0  0  0  0  0  0  0
   -9.3788    4.7965   26.7695 C   0  0  0  0  0  0  0  0  0  0  0  0
   -9.6929    3.6658   26.3395 C   0  0  0  0  0  0  0  0  0  0  0  0
   -6.7454    1.5496   27.3666 C   0  0  0  0  0  0  0  0  0  0  0  0
   -5.4920    1.7153   28.0617 C   0  0  0  0  0  0  0  0  0  0  0  0
   -4.6269    0.6257   28.2561 C   0  0  0  0  0  0  0  0  0  0  0  0
   -5.0509   -0.6436   27.9634 C   0  0  0  0  0  0  0  0  0  0  0  0
   -6.9605    0.1657   27.2380 C   0  0  0  0  0  0  0  0  0  0  0  0
   -6.2705   -0.8267   27.4783 C   0  0  0  0  0  0  0  0  0  0  0  0
   -7.7708    6.6227   27.9059 Cl  0  0  0  0  0  0  0  0  0  0  0  0
   -3.0646    0.9965   28.9759 Cl  0  0  0  0  0  0  0  0  0  0  0  0
  -10.9971    3.4177   25.6268 C   0  0  0  0  0  0  0  0  0  0  0  0
  -12.1098    3.3871   26.2151 C   0  0  0  0  0  0  0  0  0  0  0  0
  -13.3851    3.2876   25.5682 C   0  0  0  0  0  0  0  0  0  0  0  0
  2  7  1  0
  4 13  1  0
  9 14  1  0
  6 15  1  0
 15 16  2  3
 16 17  1  0
  7  8  2  0
  8  9  1  0
  9 10  2  0
 10 12  1  0
 12 11  2  0
 11  7  1  0
  1  2  2  0
  2  3  1  0
  3  6  2  0
  6  5  1  0
  5  4  2  0
  4  1  1  0
M  END
$$$$
