No_1822-complexes_sdf/6BKW-FPZ/2024-09-17-14-21-01/
     RDKit          3D

 31 33  0  0  0  0  0  0  0  0999 V2000
   -7.2496    3.8871   27.4508 C   0  0  0  0  0  0  0  0  0  0  0  0
   -7.9379    4.9063   27.8518 C   0  0  0  0  0  0  0  0  0  0  0  0
   -9.3376    4.8647   27.7795 C   0  0  0  0  0  0  0  0  0  0  0  0
   -7.8544    2.6294   27.0414 C   0  0  0  0  0  0  0  0  0  0  0  0
   -9.2852    2.6570   27.0666 C   0  0  0  0  0  0  0  0  0  0  0  0
  -10.0126    3.7528   27.4890 C   0  0  0  0  0  0  0  0  0  0  0  0
   -9.9609    1.3640   26.7239 C   0  0  0  0  0  0  0  0  0  0  0  0
  -10.7586    0.8639   27.5578 C   0  0  0  0  0  0  0  0  0  0  0  0
  -11.2814   -0.4340   27.5091 C   0  0  0  0  0  0  0  0  0  0  0  0
  -10.9059   -1.1595   26.4078 C   0  0  0  0  0  0  0  0  0  0  0  0
   -9.4071    0.5835   25.6899 C   0  0  0  0  0  0  0  0  0  0  0  0
   -9.9588   -0.6711   25.5003 C   0  0  0  0  0  0  0  0  0  0  0  0
   -7.3202    6.0857   28.1589 O   0  0  0  0  0  0  0  0  0  0  0  0
  -11.4853    3.6928   27.5474 C   0  0  0  0  0  0  0  0  0  0  0  0
  -12.1318    3.9981   28.7783 C   0  0  0  0  0  0  0  0  0  0  0  0
  -13.5476    4.0819   28.9155 C   0  0  0  0  0  0  0  0  0  0  0  0
  -14.2839    4.0534   27.7082 C   0  0  0  0  0  0  0  0  0  0  0  0
  -12.2751    3.9196   26.5383 C   0  0  0  0  0  0  0  0  0  0  0  0
  -13.6257    3.9993   26.5330 C   0  0  0  0  0  0  0  0  0  0  0  0
  -14.2024    4.1701   30.2459 C   0  0  0  0  0  0  0  0  0  0  0  0
  -15.1400    5.0573   30.5642 C   0  0  0  0  0  0  0  0  0  0  0  0
  -15.6326    5.3137   31.5768 C   0  0  0  0  0  0  0  0  0  0  0  0
  -15.2013    4.6019   32.7991 C   0  0  0  0  0  0  0  0  0  0  0  0
  -14.1926    3.6216   32.5982 C   0  0  0  0  0  0  0  0  0  0  0  0
  -13.5804    3.4346   31.3302 C   0  0  0  0  0  0  0  0  0  0  0  0
  -14.9160    3.3462   30.4258 O   0  0  0  0  0  0  0  0  0  0  0  0
  -12.5533    2.7845   31.2975 O   0  0  0  0  0  0  0  0  0  0  0  0
  -12.8369    3.6769   32.1957 Cl  0  0  0  0  0  0  0  0  0  0  0  0
  -13.7972    2.1406   30.7133 F   0  0  0  0  0  0  0  0  0  0  0  0
  -15.8579    2.6499   30.0263 C   0  0  0  0  0  0  0  0  0  0  0  0
  -14.4458    2.5753   33.5402 C   0  0  0  0  0  0  0  0  0  0  0  0
  5  7  1  0
  2 13  1  0
  6 14  1  0
 16 20  1  0
 20 21  2  3
 21 22  1  0
 22 23  2  3
 23 24  1  0
 24 25  2  3
 20 26  1  0
 25 27  1  0
 27 28  1  0
 25 29  1  0
 26 30  1  0
 24 31  1  0
  7  8  2  0
  8  9  1  0
  9 10  2  0
 10 12  1  0
 12 11  2  0
 11  7  1  0
 14 15  2  0
 15 16  1  0
 16 17  2  0
 17 19  1  0
 19 18  2  0
 18 14  1  0
  1  2  2  0
  2  3  1  0
  3  6  2  0
  6  5  1  0
  5  4  2  0
  4  1  1  0
M  END
$$$$
