No_1218-complexes_sdf/6BKW-FPZ/2024-09-17-14-21-01/
     RDKit          3D

 33 36  0  0  0  0  0  0  0  0999 V2000
   -7.9040    3.9820   27.1177 C   0  0  0  0  0  0  0  0  0  0  0  0
   -8.2057    2.8231   26.8733 C   0  0  0  0  0  0  0  0  0  0  0  0
   -8.7695    5.0740   26.7916 C   0  0  0  0  0  0  0  0  0  0  0  0
   -8.4337    6.4678   27.0913 C   0  0  0  0  0  0  0  0  0  0  0  0
   -9.3742    2.4311   26.2346 C   0  0  0  0  0  0  0  0  0  0  0  0
  -10.2395    3.4267   25.8887 C   0  0  0  0  0  0  0  0  0  0  0  0
   -9.9567    4.7548   26.1374 C   0  0  0  0  0  0  0  0  0  0  0  0
   -7.8881    6.8714   28.1602 N   0  0  0  0  0  0  0  0  0  0  0  0
   -8.8350    7.3552   26.2295 O   0  0  0  0  0  0  0  0  0  0  0  0
   -7.2545    1.6772   27.2877 C   0  0  0  0  0  0  0  0  0  0  0  0
   -6.0162    2.0054   27.8701 C   0  0  0  0  0  0  0  0  0  0  0  0
   -5.1254    0.9355   28.2179 C   0  0  0  0  0  0  0  0  0  0  0  0
   -5.5018   -0.3484   28.0745 C   0  0  0  0  0  0  0  0  0  0  0  0
   -7.5553    0.3247   27.1853 C   0  0  0  0  0  0  0  0  0  0  0  0
   -6.7901   -0.6290   27.6139 C   0  0  0  0  0  0  0  0  0  0  0  0
   -4.7500   -1.4957   28.5850 C   0  0  0  0  0  0  0  0  0  0  0  0
   -4.7824   -2.5234   28.4490 O   0  0  0  0  0  0  0  0  0  0  0  0
   -3.6602   -1.0512   29.4536 O   0  0  0  0  0  0  0  0  0  0  0  0
   -3.5071   -0.2770   30.1378 C   0  0  0  0  0  0  0  0  0  0  0  0
   -4.2329    0.0497   31.2153 C   0  0  0  0  0  0  0  0  0  0  0  0
   -4.2345   -0.7965   32.3285 C   0  0  0  0  0  0  0  0  0  0  0  0
   -4.9241   -1.4714   32.8219 C   0  0  0  0  0  0  0  0  0  0  0  0
   -6.3628   -1.6249   32.3155 C   0  0  0  0  0  0  0  0  0  0  0  0
   -7.2968   -2.4971   32.9232 C   0  0  0  0  0  0  0  0  0  0  0  0
   -6.9175   -3.0741   34.1401 C   0  0  0  0  0  0  0  0  0  0  0  0
   -7.9106   -3.9049   34.8012 C   0  0  0  0  0  0  0  0  0  0  0  0
   -4.8302   -2.1852   34.0969 C   0  0  0  0  0  0  0  0  0  0  0  0
   -5.7595   -2.9409   34.7237 C   0  0  0  0  0  0  0  0  0  0  0  0
   -2.7931   -0.8569   33.0010 C   0  0  0  0  0  0  0  0  0  0  0  0
   -2.1269   -0.1103   32.7796 F   0  0  0  0  0  0  0  0  0  0  0  0
   -2.5648   -1.7207   34.0707 C   0  0  0  0  0  0  0  0  0  0  0  0
   -3.5417   -2.2722   34.7104 C   0  0  0  0  0  0  0  0  0  0  0  0
   -8.7510   -4.4065   34.2841 O   0  0  0  0  0  0  0  0  0  0  0  0
  3  4  1  0
  4  8  1  0
  4  9  2  0
  2 10  1  0
 13 16  1  0
 16 17  2  0
 16 18  1  0
 18 19  1  0
 19 20  2  3
 20 21  1  0
 29 30  1  0
 26 33  2  0
 26 25  1  0
 10 11  2  0
 11 12  1  0
 12 13  2  0
 13 15  1  0
 15 14  2  0
 14 10  1  0
 21 22  1  0
 27 32  1  0
 32 31  2  0
 31 29  1  0
 29 21  2  0
  1  2  2  0
  2  5  1  0
  5  6  2  0
  6  7  1  0
  7  3  2  0
  3  1  1  0
 22 23  2  0
 23 24  1  0
 24 25  2  0
 25 28  1  0
 28 27  2  0
 27 22  1  0
M  END
$$$$
