No_1392-complexes_sdf/6BKW-FPZ/2024-09-17-14-21-01/
     RDKit          3D

 40 44  0  0  0  0  0  0  0  0999 V2000
   -7.2496    3.8871   27.4508 C   0  0  0  0  0  0  0  0  0  0  0  0
   -7.6161    2.7143   27.1523 C   0  0  0  0  0  0  0  0  0  0  0  0
   -8.6211    2.2239   26.4073 C   0  0  0  0  0  0  0  0  0  0  0  0
   -8.2540    4.9237   27.1711 C   0  0  0  0  0  0  0  0  0  0  0  0
   -9.3729    4.5806   26.4432 C   0  0  0  0  0  0  0  0  0  0  0  0
   -9.5830    3.2968   26.1025 C   0  0  0  0  0  0  0  0  0  0  0  0
   -8.1547    6.3411   27.5271 C   0  0  0  0  0  0  0  0  0  0  0  0
   -8.2721    7.2734   26.7918 N   0  0  0  0  0  0  0  0  0  0  0  0
   -8.8656    0.8842   26.0462 C   0  0  0  0  0  0  0  0  0  0  0  0
   -9.1275   -0.0490   26.8470 N   0  0  0  0  0  0  0  0  0  0  0  0
   -9.5138    0.0610   28.0066 C   0  0  0  0  0  0  0  0  0  0  0  0
   -8.8164   -1.4357   26.4339 C   0  0  0  0  0  0  0  0  0  0  0  0
   -8.5498    0.6532   24.7810 O   0  0  0  0  0  0  0  0  0  0  0  0
   -9.3383   -2.2191   26.0728 C   0  0  0  0  0  0  0  0  0  0  0  0
  -10.8741   -2.0778   26.1583 C   0  0  0  0  0  0  0  0  0  0  0  0
  -11.4911   -1.1234   25.9332 C   0  0  0  0  0  0  0  0  0  0  0  0
  -12.9935   -1.1620   25.8522 C   0  0  0  0  0  0  0  0  0  0  0  0
  -13.5793   -2.3725   26.0696 C   0  0  0  0  0  0  0  0  0  0  0  0
  -12.8734   -3.4936   26.2823 C   0  0  0  0  0  0  0  0  0  0  0  0
  -11.5359   -3.4376   26.2967 C   0  0  0  0  0  0  0  0  0  0  0  0
   -7.2496   -1.6119   26.6801 C   0  0  0  0  0  0  0  0  0  0  0  0
   -6.7854   -1.4967   27.9610 C   0  0  0  0  0  0  0  0  0  0  0  0
   -5.4059   -1.6325   28.2463 C   0  0  0  0  0  0  0  0  0  0  0  0
   -4.5130   -1.7961   27.2347 C   0  0  0  0  0  0  0  0  0  0  0  0
   -6.3728   -1.8078   25.6058 C   0  0  0  0  0  0  0  0  0  0  0  0
   -4.9902   -1.8846   25.8655 C   0  0  0  0  0  0  0  0  0  0  0  0
   -8.9419   -3.4479   25.3728 C   0  0  0  0  0  0  0  0  0  0  0  0
   -8.2680   -3.5284   24.3604 C   0  0  0  0  0  0  0  0  0  0  0  0
   -7.8206   -4.7468   23.7832 C   0  0  0  0  0  0  0  0  0  0  0  0
   -8.2790   -5.8776   24.4184 C   0  0  0  0  0  0  0  0  0  0  0  0
   -9.1705   -4.8967   25.8188 C   0  0  0  0  0  0  0  0  0  0  0  0
   -7.4103    6.5150   28.6944 O   0  0  0  0  0  0  0  0  0  0  0  0
   -7.0056   -4.8463   22.5862 C   0  0  0  0  0  0  0  0  0  0  0  0
   -7.3433   -4.7991   21.4951 N   0  0  0  0  0  0  0  0  0  0  0  0
   -6.6636   -4.5863   20.4326 C   0  0  0  0  0  0  0  0  0  0  0  0
   -5.7263   -5.0117   22.8927 O   0  0  0  0  0  0  0  0  0  0  0  0
   -6.8168   -4.0974   19.5309 C   0  0  0  0  0  0  0  0  0  0  0  0
   -8.1087   -3.3168   19.3596 C   0  0  0  0  0  0  0  0  0  0  0  0
   -8.9578   -3.4558   20.3472 C   0  0  0  0  0  0  0  0  0  0  0  0
   -8.6507   -4.0775   21.3819 C   0  0  0  0  0  0  0  0  0  0  0  0
  4  7  1  0
  7  8  1  0
  3  9  1  0
  9 10  1  0
 10 11  1  0
 10 12  1  0
  9 13  2  0
 12 14  2  3
 14 15  1  0
 12 21  1  0
 14 27  1  0
 27 28  2  0
 28 29  1  0
 29 30  2  0
 27 31  1  0
 30 31  1  0
  7 32  2  0
 29 33  1  0
 33 34  1  0
 34 35  1  0
 33 36  2  0
 37 38  1  0
 34 40  1  0
 39 40  1  0
 35 37  1  0
 38 39  1  0
 15 16  2  0
 16 17  1  0
 17 18  2  0
 18 19  1  0
 19 20  2  0
 20 15  1  0
 21 22  2  0
 22 23  1  0
 23 24  2  0
 24 26  1  0
 26 25  2  0
 25 21  1  0
  1  2  2  0
  2  3  1  0
  3  6  2  0
  6  5  1  0
  5  4  2  0
  4  1  1  0
M  END
$$$$
