No_1386-complexes_sdf/6BKW-FPZ/2024-09-17-14-21-01/
     RDKit          3D

 24 26  0  0  0  0  0  0  0  0999 V2000
   -7.9040    3.9820   27.1177 C   0  0  0  0  0  0  0  0  0  0  0  0
   -7.8663    4.8694   27.9238 C   0  0  0  0  0  0  0  0  0  0  0  0
   -9.0501    3.8017   26.2617 C   0  0  0  0  0  0  0  0  0  0  0  0
   -9.1826    2.7026   25.3575 C   0  0  0  0  0  0  0  0  0  0  0  0
   -8.6940    6.0131   27.8614 C   0  0  0  0  0  0  0  0  0  0  0  0
   -9.7382    4.9916   26.1006 C   0  0  0  0  0  0  0  0  0  0  0  0
   -9.6356    6.0254   26.9506 C   0  0  0  0  0  0  0  0  0  0  0  0
   -8.7538    1.4669   25.8136 C   0  0  0  0  0  0  0  0  0  0  0  0
   -9.8764    2.8449   24.1464 C   0  0  0  0  0  0  0  0  0  0  0  0
   -8.9133    0.3756   24.9760 C   0  0  0  0  0  0  0  0  0  0  0  0
  -10.0019    1.7297   23.3405 C   0  0  0  0  0  0  0  0  0  0  0  0
   -9.5017    0.5113   23.7538 C   0  0  0  0  0  0  0  0  0  0  0  0
   -9.6979   -0.6670   22.8397 C   0  0  0  0  0  0  0  0  0  0  0  0
  -10.2968   -0.5498   21.6935 C   0  0  0  0  0  0  0  0  0  0  0  0
  -10.4889   -1.6290   20.8081 C   0  0  0  0  0  0  0  0  0  0  0  0
   -9.8858   -2.8332   21.1386 C   0  0  0  0  0  0  0  0  0  0  0  0
   -9.0985   -1.9669   23.0492 C   0  0  0  0  0  0  0  0  0  0  0  0
   -9.2105   -2.9702   22.2658 C   0  0  0  0  0  0  0  0  0  0  0  0
  -10.1417   -3.9542   20.1400 C   0  0  0  0  0  0  0  0  0  0  0  0
   -9.7807   -5.0602   20.3764 N   0  0  0  0  0  0  0  0  0  0  0  0
  -10.7194   -3.7272   19.0024 O   0  0  0  0  0  0  0  0  0  0  0  0
   -9.9418   -6.2232   19.5271 C   0  0  0  0  0  0  0  0  0  0  0  0
  -10.1495   -6.4483   18.5332 C   0  0  0  0  0  0  0  0  0  0  0  0
  -10.3381   -5.3150   17.6037 C   0  0  0  0  0  0  0  0  0  0  0  0
  3  4  1  0
 12 13  1  0
 16 19  1  0
 19 20  1  0
 19 21  2  0
 20 22  1  0
 22 23  2  3
 23 24  1  0
  4  8  2  0
  8 10  1  0
 10 12  2  0
 12 11  1  0
 11  9  2  0
  9  4  1  0
 13 14  2  0
 14 15  1  0
 15 16  2  0
 16 18  1  0
 18 17  2  0
 17 13  1  0
  1  2  2  0
  2  5  1  0
  5  7  2  0
  7  6  1  0
  6  3  2  0
  3  1  1  0
M  END
$$$$
