No_1030-complexes_sdf/6BKW-FPZ/2024-09-17-14-21-01/
     RDKit          3D

 14 15  0  0  0  0  0  0  0  0999 V2000
   -7.9040    3.9820   27.1177 C   0  0  0  0  0  0  0  0  0  0  0  0
   -9.0711    4.3164   27.0630 C   0  0  0  0  0  0  0  0  0  0  0  0
   -9.8698    3.9665   25.9495 C   0  0  0  0  0  0  0  0  0  0  0  0
   -7.4046    2.7946   26.4568 C   0  0  0  0  0  0  0  0  0  0  0  0
   -8.3645    2.1023   25.7152 C   0  0  0  0  0  0  0  0  0  0  0  0
   -9.5483    2.7427   25.4386 C   0  0  0  0  0  0  0  0  0  0  0  0
   -6.7849    4.7014   28.3012 Cl  0  0  0  0  0  0  0  0  0  0  0  0
  -10.4412    2.1559   24.4055 C   0  0  0  0  0  0  0  0  0  0  0  0
   -9.9480    1.4336   23.4776 C   0  0  0  0  0  0  0  0  0  0  0  0
  -10.7321    0.8379   22.3917 C   0  0  0  0  0  0  0  0  0  0  0  0
  -12.0610    1.1378   22.3564 C   0  0  0  0  0  0  0  0  0  0  0  0
  -11.8148    2.5015   24.2894 C   0  0  0  0  0  0  0  0  0  0  0  0
  -12.6147    1.9734   23.2998 C   0  0  0  0  0  0  0  0  0  0  0  0
   -9.4932    5.7152   27.6755 C   0  0  0  0  0  0  0  0  0  0  0  0
  1  7  1  0
  6  8  1  0
  2 14  1  0
  1  2  2  0
  2  3  1  0
  3  6  2  0
  6  5  1  0
  5  4  2  0
  4  1  1  0
  8  9  2  0
  9 10  1  0
 10 11  2  0
 11 13  1  0
 13 12  2  0
 12  8  1  0
M  END
$$$$
