No_1141-complexes_sdf/6BKW-FPZ/2024-09-17-14-21-01/
     RDKit          3D

 19 21  0  0  0  0  0  0  0  0999 V2000
   -7.2496    3.8871   27.4508 C   0  0  0  0  0  0  0  0  0  0  0  0
   -8.5096    4.0291   27.2770 C   0  0  0  0  0  0  0  0  0  0  0  0
   -9.3451    2.8786   26.9046 C   0  0  0  0  0  0  0  0  0  0  0  0
   -8.7138    1.7135   26.7541 C   0  0  0  0  0  0  0  0  0  0  0  0
   -6.3951    5.0209   27.9628 C   0  0  0  0  0  0  0  0  0  0  0  0
   -7.3247    1.5526   27.0783 C   0  0  0  0  0  0  0  0  0  0  0  0
   -6.5681    2.6436   27.5102 C   0  0  0  0  0  0  0  0  0  0  0  0
   -9.0177    5.4058   27.3697 C   0  0  0  0  0  0  0  0  0  0  0  0
   -8.2680    6.5443   27.3897 C   0  0  0  0  0  0  0  0  0  0  0  0
   -7.0139    6.4891   27.2831 C   0  0  0  0  0  0  0  0  0  0  0  0
   -6.6710    0.2447   27.0519 C   0  0  0  0  0  0  0  0  0  0  0  0
   -6.8643   -0.6382   26.1724 C   0  0  0  0  0  0  0  0  0  0  0  0
   -7.8179   -0.3772   25.1111 C   0  0  0  0  0  0  0  0  0  0  0  0
   -8.2952    0.4895   24.9401 C   0  0  0  0  0  0  0  0  0  0  0  0
   -9.1674    1.0800   25.6828 C   0  0  0  0  0  0  0  0  0  0  0  0
  -10.7697    2.9514   27.2389 C   0  0  0  0  0  0  0  0  0  0  0  0
  -11.2426    3.3507   28.4498 C   0  0  0  0  0  0  0  0  0  0  0  0
  -12.6215    3.1999   28.7996 C   0  0  0  0  0  0  0  0  0  0  0  0
  -13.0940    3.6021   30.0475 C   0  0  0  0  0  0  0  0  0  0  0  0
  6 11  1  0
 11 12  2  0
 12 13  1  0
 13 14  2  0
  4 15  1  0
 14 15  1  0
  3 16  1  0
 16 17  1  0
 17 18  2  3
 18 19  1  0
  2  8  1  0
  8  9  2  0
  9 10  1  0
 10  5  2  0
  5  1  1  0
  1  2  1  0
  2  3  2  0
  3  4  1  0
  4  6  2  0
  6  7  1  0
  7  1  2  0
M  END
$$$$
