No_1312-complexes_sdf/6BKW-FPZ/2024-09-17-14-21-01/
     RDKit          3D

 11 11  0  0  0  0  0  0  0  0999 V2000
   -7.9040    3.9820   27.1177 C   0  0  0  0  0  0  0  0  0  0  0  0
   -7.8663    4.8694   27.9238 C   0  0  0  0  0  0  0  0  0  0  0  0
   -9.0953    3.1697   27.0532 C   0  0  0  0  0  0  0  0  0  0  0  0
  -10.1313    3.4052   27.8871 C   0  0  0  0  0  0  0  0  0  0  0  0
  -10.1178    4.5885   28.6885 C   0  0  0  0  0  0  0  0  0  0  0  0
   -8.9412    5.2994   28.7548 C   0  0  0  0  0  0  0  0  0  0  0  0
   -9.0660    1.9572   26.1818 C   0  0  1  0  0  0  0  0  0  0  0  0
   -9.4147    2.1748   24.8502 C   0  0  0  0  0  0  0  0  0  0  0  0
   -9.8565    3.4855   24.5046 C   0  0  0  0  0  0  0  0  0  0  0  0
   -8.6160    0.7305   26.6318 C   0  0  0  0  0  0  0  0  0  0  0  0
   -7.8586    0.5473   27.6940 C   0  0  0  0  0  0  0  0  0  0  0  0
  3  7  1  0
  7  8  1  6
  8  9  1  0
  7 10  1  0
 10 11  2  0
  1  2  2  0
  2  6  1  0
  6  5  2  0
  5  4  1  0
  4  3  2  0
  3  1  1  0
M  END
$$$$
