No_1306-complexes_sdf/6BKW-FPZ/2024-09-17-14-21-01/
     RDKit          3D

 24 24  0  0  0  0  0  0  0  0999 V2000
   -7.2496    3.8871   27.4508 C   0  0  0  0  0  0  0  0  0  0  0  0
   -8.5096    4.0291   27.2770 C   0  0  0  0  0  0  0  0  0  0  0  0
   -9.3502    2.8685   26.8763 C   0  0  0  0  0  0  0  0  0  0  0  0
   -6.6288    2.5513   27.4938 C   0  0  0  0  0  0  0  0  0  0  0  0
   -7.4365    1.4714   27.2032 C   0  0  0  0  0  0  0  0  0  0  0  0
   -8.7772    1.6579   26.9339 C   0  0  0  0  0  0  0  0  0  0  0  0
   -9.1119    5.3743   27.2229 C   0  0  0  0  0  0  0  0  0  0  0  0
   -8.3195    6.4988   26.9602 C   0  0  0  0  0  0  0  0  0  0  0  0
   -8.3104    7.6738   27.2068 C   0  0  0  0  0  0  0  0  0  0  0  0
   -6.6437    0.2061   27.2601 C   0  0  0  0  0  0  0  0  0  0  0  0
   -5.5201    0.0897   27.5796 N   0  0  0  0  0  0  0  0  0  0  0  0
   -4.8346   -0.4143   28.1562 C   0  0  0  0  0  0  0  0  0  0  0  0
   -4.0503   -0.4881   28.9396 C   0  0  0  0  0  0  0  0  0  0  0  0
   -5.2667   -2.0483   28.0015 C   0  0  0  0  0  0  0  0  0  0  0  0
   -3.4040    0.8061   29.2866 C   0  0  0  0  0  0  0  0  0  0  0  0
   -7.4508   -0.7934   26.9912 O   0  0  0  0  0  0  0  0  0  0  0  0
   -3.4726   -1.5409   29.8330 C   0  0  0  0  0  0  0  0  0  0  0  0
   -2.5481   -1.2605   30.8611 C   0  0  0  0  0  0  0  0  0  0  0  0
   -2.8317   -0.2977   31.8031 C   0  0  0  0  0  0  0  0  0  0  0  0
   -3.7585   -0.4944   32.6825 C   0  0  0  0  0  0  0  0  0  0  0  0
   -7.2433    8.5766   26.8019 C   0  0  0  0  0  0  0  0  0  0  0  0
   -4.0285   -1.7822   33.1831 C   0  0  0  0  0  0  0  0  0  0  0  0
   -5.0846   -1.8199   33.9043 F   0  0  0  0  0  0  0  0  0  0  0  0
   -3.7154   -2.8132   32.7205 F   0  0  0  0  0  0  0  0  0  0  0  0
  2  7  1  0
  7  8  1  0
  8  9  2  3
  5 10  1  0
 10 11  1  0
 11 12  1  0
 12 13  2  3
 12 14  1  0
 13 15  1  0
 10 16  2  0
 13 17  1  0
 17 18  1  0
 18 19  1  0
 19 20  2  3
  9 21  1  0
 20 22  1  0
 22 23  1  0
 22 24  1  0
  1  2  2  0
  2  3  1  0
  3  6  2  0
  6  5  1  0
  5  4  2  0
  4  1  1  0
M  END
$$$$
