No_1883-complexes_sdf/6BKW-FPZ/2024-09-17-14-21-01/
     RDKit          3D

 39 42  0  0  0  0  0  0  0  0999 V2000
   -7.7129    4.2099   27.0854 C   0  0  0  0  0  0  0  0  0  0  0  0
   -8.2112    3.0637   26.9225 C   0  0  0  0  0  0  0  0  0  0  0  0
   -8.5108    5.3904   26.9436 C   0  0  0  0  0  0  0  0  0  0  0  0
   -9.7256    5.1955   26.3518 C   0  0  0  0  0  0  0  0  0  0  0  0
   -9.4995    2.8258   26.4878 C   0  0  0  0  0  0  0  0  0  0  0  0
  -10.2542    3.9691   26.2055 C   0  0  0  0  0  0  0  0  0  0  0  0
   -7.9456    6.5695   27.1656 F   0  0  0  0  0  0  0  0  0  0  0  0
   -7.3632    1.8215   27.2517 C   0  0  0  0  0  0  0  0  0  0  0  0
   -6.0601    2.0021   27.7295 C   0  0  0  0  0  0  0  0  0  0  0  0
   -5.2596    0.8435   28.0589 C   0  0  0  0  0  0  0  0  0  0  0  0
   -5.7750   -0.4091   27.9325 C   0  0  0  0  0  0  0  0  0  0  0  0
   -7.6461    0.4552   27.1653 C   0  0  0  0  0  0  0  0  0  0  0  0
   -7.0153   -0.5550   27.4949 C   0  0  0  0  0  0  0  0  0  0  0  0
   -4.0167    1.1317   28.5280 F   0  0  0  0  0  0  0  0  0  0  0  0
  -11.6134    3.8329   25.6400 C   0  0  0  0  0  0  0  0  0  0  0  0
  -11.8107    3.8024   24.2778 C   0  0  0  0  0  0  0  0  0  0  0  0
  -11.7244    2.9717   23.6771 C   0  0  0  0  0  0  0  0  0  0  0  0
  -11.8245    2.9908   22.1385 C   0  0  0  0  0  0  0  0  0  0  0  0
  -11.5927    1.9169   21.3116 C   0  0  0  0  0  0  0  0  0  0  0  0
  -11.1447    0.7267   21.9015 C   0  0  0  0  0  0  0  0  0  0  0  0
  -10.9653    0.6153   23.2407 C   0  0  0  0  0  0  0  0  0  0  0  0
  -11.1514    1.6166   24.0544 C   0  0  0  0  0  0  0  0  0  0  0  0
  -12.6963    3.7450   26.5977 C   0  0  0  0  0  0  0  0  0  0  0  0
  -13.6167    4.5522   26.3436 F   0  0  0  0  0  0  0  0  0  0  0  0
  -12.2057    3.9844   27.8356 F   0  0  0  0  0  0  0  0  0  0  0  0
  -13.1606    2.4841   26.5955 F   0  0  0  0  0  0  0  0  0  0  0  0
  -10.4801   -0.7129   23.7535 C   0  0  0  0  0  0  0  0  0  0  0  0
  -10.5252   -1.0261   24.8737 O   0  0  0  0  0  0  0  0  0  0  0  0
   -9.6795   -1.3830   22.9824 O   0  0  0  0  0  0  0  0  0  0  0  0
   -7.5581   -1.9436   27.3370 C   0  0  0  0  0  0  0  0  0  0  0  0
   -8.7891   -2.2422   27.5252 N   0  0  0  0  0  0  0  0  0  0  0  0
   -9.2078   -2.9584   28.5458 C   0  0  0  0  0  0  0  0  0  0  0  0
  -10.6506   -3.0443   28.7567 C   0  0  0  0  0  0  0  0  0  0  0  0
  -11.3677   -2.4117   27.9515 N   0  0  0  0  0  0  0  0  0  0  0  0
  -12.4207   -1.8308   28.3930 C   0  0  0  0  0  0  0  0  0  0  0  0
  -12.9790   -2.1350   29.5652 C   0  0  0  0  0  0  0  0  0  0  0  0
  -12.2242   -2.8482   30.4983 C   0  0  0  0  0  0  0  0  0  0  0  0
  -10.9737   -3.2048   30.1690 C   0  0  0  0  0  0  0  0  0  0  0  0
   -8.3849   -3.4531   29.3414 O   0  0  0  0  0  0  0  0  0  0  0  0
  3  7  1  0
  2  8  1  0
 10 14  1  0
  6 15  1  0
 15 16  1  0
 15 23  1  0
 23 24  1  0
 23 25  1  0
 23 26  1  0
 21 27  1  0
 27 28  2  0
 27 29  1  0
 13 30  1  0
 30 31  1  0
 31 32  1  0
 32 33  1  0
 32 39  2  0
 16 17  1  0
 17 18  2  0
 18 19  1  0
 19 20  2  0
 20 21  1  0
 21 22  2  0
 22 17  1  0
 33 34  2  0
 34 35  1  0
 35 36  2  0
 36 37  1  0
 37 38  2  0
 38 33  1  0
  1  2  2  0
  2  5  1  0
  5  6  2  0
  6  4  1  0
  4  3  2  0
  3  1  1  0
  8  9  2  0
  9 10  1  0
 10 11  2  0
 11 13  1  0
 13 12  2  0
 12  8  1  0
M  END
$$$$
