No_1388-complexes_sdf/6BKW-FPZ/2024-09-17-14-21-01/
     RDKit          3D

 21 22  0  0  0  0  0  0  0  0999 V2000
   -7.2496    3.8871   27.4508 C   0  0  0  0  0  0  0  0  0  0  0  0
   -7.9379    4.9063   27.8518 C   0  0  0  0  0  0  0  0  0  0  0  0
   -9.3376    4.8647   27.7795 C   0  0  0  0  0  0  0  0  0  0  0  0
   -7.8544    2.6294   27.0414 C   0  0  0  0  0  0  0  0  0  0  0  0
   -9.2665    2.6175   27.0340 C   0  0  0  0  0  0  0  0  0  0  0  0
   -9.9836    3.7042   27.4150 C   0  0  0  0  0  0  0  0  0  0  0  0
   -9.9053    1.3367   26.6546 C   0  0  0  0  0  0  0  0  0  0  0  0
  -10.5454    0.7121   27.6210 C   0  0  0  0  0  0  0  0  0  0  0  0
   -9.7477    0.8420   25.3867 C   0  0  0  0  0  0  0  0  0  0  0  0
   -9.2215    1.6039   24.4214 C   0  0  0  0  0  0  0  0  0  0  0  0
  -10.5910   -0.6711   27.7831 C   0  0  0  0  0  0  0  0  0  0  0  0
  -10.4312   -1.3184   26.5272 C   0  0  0  0  0  0  0  0  0  0  0  0
  -10.0253   -0.5977   25.2484 C   0  0  0  0  0  0  0  0  0  0  0  0
   -7.3334    6.0756   28.1765 O   0  0  0  0  0  0  0  0  0  0  0  0
  -11.4697    3.6851   27.4824 C   0  0  0  0  0  0  0  0  0  0  0  0
  -12.1425    3.9841   28.6472 C   0  0  0  0  0  0  0  0  0  0  0  0
  -13.5373    4.0659   28.8058 C   0  0  0  0  0  0  0  0  0  0  0  0
  -14.1064    4.1451   30.0783 C   0  0  0  0  0  0  0  0  0  0  0  0
  -15.3797    4.5602   30.3229 C   0  0  0  0  0  0  0  0  0  0  0  0
  -16.1651    4.9059   29.1918 C   0  0  0  0  0  0  0  0  0  0  0  0
  -15.6280    4.9095   27.9398 C   0  0  0  0  0  0  0  0  0  0  0  0
  5  7  1  0
  9 10  1  0
  2 14  1  0
  6 15  1  0
 15 16  2  3
 16 17  1  0
 17 18  2  3
 18 19  1  0
 19 20  2  3
 20 21  1  0
  1  2  2  0
  2  3  1  0
  3  6  2  0
  6  5  1  0
  5  4  2  0
  4  1  1  0
  7  8  2  0
  8 11  1  0
 11 12  2  0
 12 13  1  0
 13  9  2  0
  9  7  1  0
M  END
$$$$
