No_1871-complexes_sdf/6BKW-FPZ/2024-09-17-14-21-01/
     RDKit          3D

  9  9  0  0  0  0  0  0  0  0999 V2000
   -7.9040    3.9820   27.1177 C   0  0  0  0  0  0  0  0  0  0  0  0
   -7.8663    4.8694   27.9238 C   0  0  0  0  0  0  0  0  0  0  0  0
   -9.0806    3.1428   27.1220 C   0  0  0  0  0  0  0  0  0  0  0  0
   -8.9544    1.8782   26.5467 C   0  0  0  0  0  0  0  0  0  0  0  0
   -8.9948    5.7403   28.1705 C   0  0  0  0  0  0  0  0  0  0  0  0
   -8.0286    1.1485   26.5020 C   0  0  0  0  0  0  0  0  0  0  0  0
  -10.2606    5.1379   27.9482 C   0  0  0  0  0  0  0  0  0  0  0  0
  -10.2495    3.8851   27.3436 C   0  0  0  0  0  0  0  0  0  0  0  0
   -7.9556   -0.1680   26.2300 C   0  0  0  0  0  0  0  0  0  0  0  0
  1  2  1  0
  1  3  1  0
  3  4  1  0
  2  5  1  0
  4  6  2  3
  5  7  1  0
  3  8  1  0
  7  8  1  0
  6  9  1  0
M  END
$$$$
