No_1891-complexes_sdf/6BKW-FPZ/2024-09-17-14-21-01/
     RDKit          3D

 28 30  0  0  0  0  0  0  0  0999 V2000
   -7.2496    3.8871   27.4508 C   0  0  0  0  0  0  0  0  0  0  0  0
   -8.5096    4.0291   27.2770 C   0  0  0  0  0  0  0  0  0  0  0  0
   -9.3451    2.8786   26.9046 C   0  0  0  0  0  0  0  0  0  0  0  0
   -6.6065    2.5680   27.5073 C   0  0  0  0  0  0  0  0  0  0  0  0
   -7.4233    1.4858   27.2402 C   0  0  0  0  0  0  0  0  0  0  0  0
   -8.7362    1.6525   26.9989 C   0  0  0  0  0  0  0  0  0  0  0  0
   -9.1023    5.3710   27.2131 C   0  0  2  0  0  0  0  0  0  0  0  0
   -8.3463    6.4776   26.8511 C   0  0  0  0  0  0  0  0  0  0  0  0
   -8.0710    7.5882   27.5432 C   0  0  0  0  0  0  0  0  0  0  0  0
   -7.2449    8.5639   26.8409 C   0  0  0  0  0  0  0  0  0  0  0  0
   -6.5964    0.2282   27.3146 C   0  0  0  0  0  0  0  0  0  0  0  0
   -7.0230   -0.8451   26.7257 C   0  0  0  0  0  0  0  0  0  0  0  0
   -5.3280    0.2353   27.9576 C   0  0  0  0  0  0  0  0  0  0  0  0
   -4.7599   -0.8410   28.4211 C   0  0  0  0  0  0  0  0  0  0  0  0
   -6.3722   -2.1025   27.0540 C   0  0  0  0  0  0  0  0  0  0  0  0
   -3.5423   -0.8231   29.2564 C   0  0  1  0  0  0  0  0  0  0  0  0
   -5.2189   -2.0439   27.8036 C   0  0  0  0  0  0  0  0  0  0  0  0
   -3.5884   -0.0412   30.3186 N   0  0  0  0  0  0  0  0  0  0  0  0
   -3.0318   -0.4498   31.5795 C   0  0  2  0  0  0  0  0  0  0  0  0
   -3.4615    0.3326   32.7925 C   0  0  0  0  0  0  0  0  0  0  0  0
   -2.1014   -1.4832   31.5751 C   0  0  0  0  0  0  0  0  0  0  0  0
   -1.8785   -2.1700   30.4026 C   0  0  0  0  0  0  0  0  0  0  0  0
   -3.0255   -2.1936   29.5370 C   0  0  0  0  0  0  0  0  0  0  0  0
   -2.3748   -0.0780   28.3143 C   0  0  0  0  0  0  0  0  0  0  0  0
   -4.6169    0.1236   33.1200 O   0  0  0  0  0  0  0  0  0  0  0  0
  -10.4892    5.5115   27.6066 C   0  0  0  0  0  0  0  0  0  0  0  0
   -2.4720    0.3998   33.7370 O   0  0  0  0  0  0  0  0  0  0  0  0
   -2.8893    0.8882   27.4298 C   0  0  0  0  0  0  0  0  0  0  0  0
  2  7  1  0
  7  8  1  0
  8  9  2  3
  9 10  1  0
  5 11  1  0
 14 16  1  0
 16 18  1  0
 18 19  1  0
 19 20  1  6
 19 21  1  0
 16 23  1  0
 22 23  1  0
 16 24  1  6
 20 25  2  0
  7 26  1  1
 20 27  1  0
 24 28  1  0
 21 22  1  0
 11 12  2  0
 12 15  1  0
 15 17  2  0
 17 14  1  0
 14 13  2  0
 13 11  1  0
  1  2  2  0
  2  3  1  0
  3  6  2  0
  6  5  1  0
  5  4  2  0
  4  1  1  0
M  END
$$$$
