No_1472-complexes_sdf/6BKW-FPZ/2024-09-17-14-21-01/
     RDKit          3D

 13 14  0  0  0  0  0  0  0  0999 V2000
   -7.2496    3.8871   27.4508 C   0  0  0  0  0  0  0  0  0  0  0  0
   -7.6161    2.7143   27.1523 C   0  0  0  0  0  0  0  0  0  0  0  0
   -7.1619    1.8631   27.5232 C   0  0  0  0  0  0  0  0  0  0  0  0
   -8.0036    5.1085   27.2100 C   0  0  2  0  0  0  0  0  0  0  0  0
   -9.0764    5.1562   26.4023 C   0  0  0  0  0  0  0  0  0  0  0  0
   -9.5423    3.9741   25.8512 C   0  0  0  0  0  0  0  0  0  0  0  0
   -8.8464    2.7352   26.2619 C   0  0  0  0  0  0  0  0  0  0  0  0
   -7.5925    0.4293   27.3761 C   0  0  0  0  0  0  0  0  0  0  0  0
   -8.8064    0.3083   26.6947 C   0  0  0  0  0  0  0  0  0  0  0  0
   -9.4560    1.4926   26.0294 C   0  0  0  0  0  0  0  0  0  0  0  0
   -7.4629    6.4105   27.8320 C   0  0  0  0  0  0  0  0  0  0  0  0
  -10.7527    1.2948   25.6498 C   0  0  0  0  0  0  0  0  0  0  0  0
  -11.8367    1.6193   26.3488 C   0  0  0  0  0  0  0  0  0  0  0  0
  1  2  1  0
  1  4  1  0
  4  5  1  0
  5  6  1  0
  6  7  1  0
  4 11  1  6
 10 12  1  0
 12 13  2  0
  2  3  2  0
  3  8  1  0
  8  9  2  0
  9 10  1  0
 10  7  2  0
  7  2  1  0
M  END
$$$$
