No_1890-complexes_sdf/6BKW-FPZ/2024-09-17-14-21-01/
     RDKit          3D

 23 25  0  0  0  0  0  0  0  0999 V2000
   -7.2496    3.8871   27.4508 C   0  0  0  0  0  0  0  0  0  0  0  0
   -7.9379    4.9063   27.8518 C   0  0  0  0  0  0  0  0  0  0  0  0
   -9.3460    4.8223   27.8695 C   0  0  0  0  0  0  0  0  0  0  0  0
   -7.8628    2.6163   27.1065 C   0  0  0  0  0  0  0  0  0  0  0  0
   -9.2787    2.5744   27.1970 C   0  0  0  0  0  0  0  0  0  0  0  0
  -10.0108    3.6770   27.6340 C   0  0  0  0  0  0  0  0  0  0  0  0
  -11.5178    3.7574   27.7698 C   0  0  0  0  0  0  0  0  0  0  0  0
  -12.2297    4.3986   26.9821 C   0  0  0  0  0  0  0  0  0  0  0  0
  -13.6570    4.5105   27.0489 C   0  0  0  0  0  0  0  0  0  0  0  0
  -12.1091    2.9208   28.7742 C   0  0  0  0  0  0  0  0  0  0  0  0
  -13.5103    2.9904   28.9573 C   0  0  0  0  0  0  0  0  0  0  0  0
  -14.2673    3.7867   28.0787 C   0  0  0  0  0  0  0  0  0  0  0  0
   -7.1825    1.5464   26.7904 N   0  0  0  0  0  0  0  0  0  0  0  0
   -7.1951    0.3761   27.4800 C   0  0  0  0  0  0  0  0  0  0  0  0
   -6.0735   -0.4695   27.3321 C   0  0  0  0  0  0  0  0  0  0  0  0
   -5.0794   -0.1273   27.2678 C   0  0  0  0  0  0  0  0  0  0  0  0
   -3.9305   -0.9808   26.9188 C   0  0  0  0  0  0  0  0  0  0  0  0
   -4.1697   -2.2652   26.6692 C   0  0  0  0  0  0  0  0  0  0  0  0
   -6.3748   -1.8465   27.0334 C   0  0  0  0  0  0  0  0  0  0  0  0
   -5.4261   -2.7150   26.7152 C   0  0  0  0  0  0  0  0  0  0  0  0
   -8.1260    0.1982   28.3460 O   0  0  0  0  0  0  0  0  0  0  0  0
   -7.3298    6.0616   28.1360 F   0  0  0  0  0  0  0  0  0  0  0  0
  -15.9769    3.7568   28.2709 Cl  0  0  0  0  0  0  0  0  0  0  0  0
  6  7  1  0
  4 13  1  0
 13 14  1  0
 14 15  1  0
 14 21  2  0
  2 22  1  0
 12 23  1  0
 15 16  2  0
 16 17  1  0
 17 18  2  0
 18 20  1  0
 20 19  2  0
 19 15  1  0
  1  2  2  0
  2  3  1  0
  3  6  2  0
  6  5  1  0
  5  4  2  0
  4  1  1  0
  7  8  2  0
  8  9  1  0
  9 12  2  0
 12 11  1  0
 11 10  2  0
 10  7  1  0
M  END
$$$$
