No_1787-complexes_sdf/6BKW-FPZ/2024-09-17-14-21-01/
     RDKit          3D

  8  7  0  0  0  0  0  0  0  0999 V2000
   -7.9040    3.9820   27.1177 C   0  0  0  0  0  0  0  0  0  0  0  0
   -9.0711    4.3164   27.0630 C   0  0  0  0  0  0  0  0  0  0  0  0
  -10.0168    3.7638   26.1653 C   0  0  0  0  0  0  0  0  0  0  0  0
   -6.9593    4.7015   28.0070 C   0  0  0  0  0  0  0  0  0  0  0  0
   -9.8970    3.9602   24.9642 C   0  0  0  0  0  0  0  0  0  0  0  0
   -7.6289    5.6463   28.7157 N   0  0  0  0  0  0  0  0  0  0  0  0
  -10.7591    3.4981   23.8702 C   0  0  0  0  0  0  0  0  0  0  0  0
   -8.8863    5.9137   28.4316 N   0  0  0  0  0  0  0  0  0  0  0  0
  1  2  3  0
  2  3  1  0
  1  4  1  0
  3  5  2  3
  4  6  1  0
  5  7  1  0
  6  8  2  0
M  END
$$$$
