No_1295-complexes_sdf/6BKW-FPZ/2024-09-17-14-21-01/
     RDKit          3D

 29 32  0  0  0  0  0  0  0  0999 V2000
   -7.9040    3.9820   27.1177 C   0  0  0  0  0  0  0  0  0  0  0  0
   -8.2057    2.8231   26.8733 C   0  0  0  0  0  0  0  0  0  0  0  0
   -8.7695    5.0740   26.7916 C   0  0  0  0  0  0  0  0  0  0  0  0
   -9.9618    4.7598   26.1630 C   0  0  0  0  0  0  0  0  0  0  0  0
   -9.4200    2.4524   26.2850 C   0  0  0  0  0  0  0  0  0  0  0  0
  -10.2590    3.4815   25.9250 C   0  0  0  0  0  0  0  0  0  0  0  0
   -8.3840    6.4693   27.0829 C   0  0  0  0  0  0  0  0  0  0  0  0
   -8.3637    6.7809   28.2310 F   0  0  0  0  0  0  0  0  0  0  0  0
   -7.1634    6.7737   26.4746 F   0  0  0  0  0  0  0  0  0  0  0  0
   -9.2723    7.3478   26.4443 F   0  0  0  0  0  0  0  0  0  0  0  0
   -7.2867    1.6775   27.3228 C   0  0  0  0  0  0  0  0  0  0  0  0
   -5.9891    1.9329   27.7979 C   0  0  0  0  0  0  0  0  0  0  0  0
   -5.1380    0.8692   28.1870 C   0  0  0  0  0  0  0  0  0  0  0  0
   -5.5761   -0.4092   28.1089 C   0  0  0  0  0  0  0  0  0  0  0  0
   -7.6577    0.3206   27.2513 C   0  0  0  0  0  0  0  0  0  0  0  0
   -6.8959   -0.6516   27.6818 C   0  0  0  0  0  0  0  0  0  0  0  0
   -4.7109   -1.4655   28.6282 C   0  0  0  0  0  0  0  0  0  0  0  0
   -4.8844   -2.0890   29.6257 C   0  0  0  0  0  0  0  0  0  0  0  0
   -5.9655   -1.6951   30.6383 C   0  0  0  0  0  0  0  0  0  0  0  0
   -6.0725   -2.3165   31.9243 C   0  0  0  0  0  0  0  0  0  0  0  0
   -5.1819   -3.3549   32.1796 C   0  0  0  0  0  0  0  0  0  0  0  0
   -4.2323   -3.7295   31.3285 C   0  0  0  0  0  0  0  0  0  0  0  0
   -4.0145   -3.1009   30.1556 C   0  0  0  0  0  0  0  0  0  0  0  0
   -3.6071   -1.6851   27.7220 C   0  0  0  0  0  0  0  0  0  0  0  0
   -3.5868   -2.7116   26.8284 C   0  0  0  0  0  0  0  0  0  0  0  0
   -2.4910   -2.8305   25.9662 C   0  0  0  0  0  0  0  0  0  0  0  0
   -1.3797   -1.9432   26.0468 C   0  0  0  0  0  0  0  0  0  0  0  0
   -2.4034   -0.8503   27.8638 C   0  0  0  0  0  0  0  0  0  0  0  0
   -1.3468   -0.9888   27.0625 C   0  0  0  0  0  0  0  0  0  0  0  0
  3  7  1  0
  7  8  1  0
  7  9  1  0
  7 10  1  0
  2 11  1  0
 14 17  1  0
 17 24  1  0
 17 18  1  0
 18 19  2  0
 19 20  1  0
 20 21  2  0
 21 22  1  0
 22 23  2  0
 23 18  1  0
 11 12  2  0
 12 13  1  0
 13 14  2  0
 14 16  1  0
 16 15  2  0
 15 11  1  0
 24 25  2  0
 25 26  1  0
 26 27  2  0
 27 29  1  0
 29 28  2  0
 28 24  1  0
  1  2  2  0
  2  5  1  0
  5  6  2  0
  6  4  1  0
  4  3  2  0
  3  1  1  0
M  END
$$$$
