No_1956-complexes_sdf/6BKW-FPZ/2024-09-17-14-21-01/
     RDKit          3D

 33 37  0  0  0  0  0  0  0  0999 V2000
   -7.9040    3.9820   27.1177 C   0  0  0  0  0  0  0  0  0  0  0  0
   -7.8663    4.8694   27.9238 C   0  0  0  0  0  0  0  0  0  0  0  0
   -9.0491    3.8523   26.2542 C   0  0  0  0  0  0  0  0  0  0  0  0
   -9.9827    3.2456   26.6451 C   0  0  0  0  0  0  0  0  0  0  0  0
   -6.6548    4.9048   28.7838 C   0  0  0  0  0  0  0  0  0  0  0  0
   -5.8174    3.9619   28.3609 N   0  0  0  0  0  0  0  0  0  0  0  0
   -6.5060    3.2680   27.3718 C   0  0  0  0  0  0  0  0  0  0  0  0
  -11.1604    3.0664   25.7208 C   0  0  0  0  0  0  0  0  0  0  0  0
  -11.0014    3.1890   24.6274 C   0  0  0  0  0  0  0  0  0  0  0  0
   -9.8732    3.9055   23.9884 C   0  0  0  0  0  0  0  0  0  0  0  0
   -8.8116    4.1879   24.8665 C   0  0  0  0  0  0  0  0  0  0  0  0
   -8.7440    5.8892   28.1639 O   0  0  0  0  0  0  0  0  0  0  0  0
  -12.1873    3.0930   23.5551 C   0  0  0  0  0  0  0  0  0  0  0  0
  -12.0727    3.2559   22.3769 C   0  0  0  0  0  0  0  0  0  0  0  0
  -13.4743    2.7184   24.1119 C   0  0  0  0  0  0  0  0  0  0  0  0
  -13.7074    2.3963   25.2836 C   0  0  0  0  0  0  0  0  0  0  0  0
  -14.8931    1.9977   25.9045 C   0  0  0  0  0  0  0  0  0  0  0  0
  -12.5552    2.5766   26.3275 C   0  0  0  0  0  0  0  0  0  0  0  0
  -15.8645    1.7860   25.3739 O   0  0  0  0  0  0  0  0  0  0  0  0
  -14.9643    1.8245   27.2994 O   0  0  0  0  0  0  0  0  0  0  0  0
  -15.7696    1.5588   28.0053 C   0  0  0  0  0  0  0  0  0  0  0  0
  -15.5521    1.4236   29.3497 C   0  0  0  0  0  0  0  0  0  0  0  0
  -14.4041    1.9621   29.9563 C   0  0  0  0  0  0  0  0  0  0  0  0
  -14.0793    1.9414   31.3302 C   0  0  0  0  0  0  0  0  0  0  0  0
  -14.9259    1.1870   32.1362 C   0  0  0  0  0  0  0  0  0  0  0  0
  -16.0258    0.5927   31.6362 C   0  0  0  0  0  0  0  0  0  0  0  0
  -16.2961    0.7125   30.3154 C   0  0  0  0  0  0  0  0  0  0  0  0
  -14.5353    1.1729   33.6145 C   0  0  0  0  0  0  0  0  0  0  0  0
  -14.0824    0.1045   34.1879 C   0  0  0  0  0  0  0  0  0  0  0  0
  -13.3863    0.1744   35.3992 C   0  0  0  0  0  0  0  0  0  0  0  0
  -13.2838    1.3943   36.0896 C   0  0  0  0  0  0  0  0  0  0  0  0
  -13.7216    2.5458   35.4904 C   0  0  0  0  0  0  0  0  0  0  0  0
  -14.2695    2.4835   34.1946 C   0  0  0  0  0  0  0  0  0  0  0  0
  1  2  1  0
  1  3  1  0
  2  5  1  0
  5  6  1  0
  1  7  1  0
  6  7  2  0
  2 12  1  0
 13 14  1  0
 16 17  1  0
 17 19  2  0
 17 20  1  0
 20 21  1  0
 25 28  1  0
 21 22  1  0
 28 29  2  0
 29 30  1  0
 30 31  2  0
 31 32  1  0
 32 33  2  0
 33 28  1  0
 22 23  2  0
 23 24  1  0
 24 25  2  0
 25 26  1  0
 26 27  2  0
 27 22  1  0
  3  4  2  0
  4  8  1  0
  9 10  1  0
 10 11  2  0
 11  3  1  0
  8  9  2  0
  9 13  1  0
 13 15  2  0
 15 16  1  0
 16 18  2  0
 18  8  1  0
M  END
$$$$
