No_1512-complexes_sdf/6BKW-FPZ/2024-09-17-14-21-01/
     RDKit          3D

 14 14  0  0  0  0  0  0  0  0999 V2000
   -7.2496    3.8871   27.4508 C   0  0  0  0  0  0  0  0  0  0  0  0
   -7.6161    2.7143   27.1523 C   0  0  0  0  0  0  0  0  0  0  0  0
   -8.8302    2.4659   26.5056 C   0  0  0  0  0  0  0  0  0  0  0  0
   -8.1584    5.0090   27.3234 C   0  0  0  0  0  0  0  0  0  0  0  0
   -9.3788    4.7965   26.7695 C   0  0  0  0  0  0  0  0  0  0  0  0
   -9.7028    3.5649   26.3276 C   0  0  0  0  0  0  0  0  0  0  0  0
   -6.7190    1.5585   27.3667 C   0  0  1  0  0  0  0  0  0  0  0  0
   -5.2933    1.8448   28.2354 Cl  0  0  0  0  0  0  0  0  0  0  0  0
   -6.9707    0.2304   26.9523 C   0  0  0  0  0  0  0  0  0  0  0  0
   -7.6150    6.5737   27.8921 Cl  0  0  0  0  0  0  0  0  0  0  0  0
   -7.3224   -0.6084   27.6934 C   0  0  0  0  0  0  0  0  0  0  0  0
   -7.7051   -1.9660   27.2657 C   0  0  0  0  0  0  0  0  0  0  0  0
   -7.6925   -2.1726   25.9137 C   0  0  0  0  0  0  0  0  0  0  0  0
   -7.3021   -1.1772   25.0331 C   0  0  0  0  0  0  0  0  0  0  0  0
  2  7  1  0
  7  8  1  1
  7  9  1  0
  4 10  1  0
  9 11  2  3
 11 12  1  0
 12 13  2  3
 13 14  1  0
  1  2  2  0
  2  3  1  0
  3  6  2  0
  6  5  1  0
  5  4  2  0
  4  1  1  0
M  END
$$$$
