No_1590-complexes_sdf/6BKW-FPZ/2024-09-17-14-21-01/
     RDKit          3D

 15 17  0  0  0  0  0  0  0  0999 V2000
   -7.7129    4.2099   27.0854 C   0  0  0  0  0  0  0  0  0  0  0  0
   -7.7814    5.1722   27.8972 C   0  0  0  0  0  0  0  0  0  0  0  0
   -8.8255    3.2789   27.1191 C   0  0  0  0  0  0  0  0  0  0  0  0
   -9.9209    3.4734   27.9101 C   0  0  0  0  0  0  0  0  0  0  0  0
  -10.9752    2.5069   28.0201 C   0  0  0  0  0  0  0  0  0  0  0  0
   -8.9991    5.6269   28.5996 C   0  0  0  0  0  0  0  0  0  0  0  0
   -9.9928    4.6433   28.6536 C   0  0  0  0  0  0  0  0  0  0  0  0
  -10.6854    1.1751   27.9232 C   0  0  0  0  0  0  0  0  0  0  0  0
  -12.2580    2.9364   28.4121 C   0  0  0  0  0  0  0  0  0  0  0  0
  -13.2723    2.0215   28.6529 C   0  0  0  0  0  0  0  0  0  0  0  0
   -9.4499    0.6778   27.5251 C   0  0  0  0  0  0  0  0  0  0  0  0
   -8.4463    1.8162   26.8185 C   0  0  0  0  0  0  0  0  0  0  0  0
  -12.9851    0.7127   28.3957 C   0  0  0  0  0  0  0  0  0  0  0  0
  -11.7056    0.2015   28.0659 C   0  0  0  0  0  0  0  0  0  0  0  0
   -8.6992    1.5976   25.2848 C   0  0  0  0  0  0  0  0  0  0  0  0
 12 15  1  0
  4  5  2  0
  8 11  2  0
 11 12  1  0
 12  3  2  0
  1  2  2  0
  2  6  1  0
  6  7  2  0
  7  4  1  0
  4  3  1  0
  3  1  1  0
  5  8  1  0
  8 14  1  0
 14 13  2  0
 13 10  1  0
 10  9  2  0
  9  5  1  0
M  END
$$$$
