No_1442-complexes_sdf/6BKW-FPZ/2024-09-17-14-21-01/
     RDKit          3D

 16 18  0  0  0  0  0  0  0  0999 V2000
   -7.9040    3.9820   27.1177 C   0  0  0  0  0  0  0  0  0  0  0  0
   -7.8663    4.8694   27.9238 C   0  0  0  0  0  0  0  0  0  0  0  0
   -7.4547    2.7080   27.4594 C   0  0  0  0  0  0  0  0  0  0  0  0
   -7.9337    1.5946   26.8372 C   0  0  0  0  0  0  0  0  0  0  0  0
   -8.9032    1.7881   25.8510 C   0  0  0  0  0  0  0  0  0  0  0  0
   -9.3787    2.9871   25.5530 C   0  0  0  0  0  0  0  0  0  0  0  0
   -8.9781    4.0300   26.2200 C   0  0  0  0  0  0  0  0  0  0  0  0
   -8.0014    6.0716   27.8481 N   0  0  0  0  0  0  0  0  0  0  0  0
  -10.3917    3.1448   24.4429 C   0  0  0  0  0  0  0  0  0  0  0  0
  -10.3939    2.4544   23.4026 N   0  0  0  0  0  0  0  0  0  0  0  0
  -11.2173    2.7401   22.3778 C   0  0  0  0  0  0  0  0  0  0  0  0
  -11.9825    3.8701   22.5037 C   0  0  0  0  0  0  0  0  0  0  0  0
  -11.2483    4.3268   24.2275 C   0  0  0  0  0  0  0  0  0  0  0  0
   -8.7109    6.6271   26.8517 C   0  0  0  0  0  0  0  0  0  0  0  0
   -9.2247    5.5619   25.9626 C   0  0  0  0  0  0  0  0  0  0  0  0
  -11.2039    5.1911   25.1587 O   0  0  0  0  0  0  0  0  0  0  0  0
  6  9  1  0
  9 10  2  0
 10 11  1  0
 11 12  2  0
  9 13  1  0
 12 13  1  0
 13 16  1  0
  1  2  2  0
  2  8  1  0
  8 14  2  0
 14 15  1  0
 15  7  2  0
  1  3  1  0
  3  4  2  0
  4  5  1  0
  5  6  2  0
  6  7  1  0
  7  1  1  0
M  END
$$$$
