No_1864-complexes_sdf/6BKW-FPZ/2024-09-17-14-21-01/
     RDKit          3D

 13 13  0  0  0  0  0  0  0  0999 V2000
   -7.9040    3.9820   27.1177 C   0  0  0  0  0  0  0  0  0  0  0  0
   -7.8663    4.8694   27.9238 C   0  0  0  0  0  0  0  0  0  0  0  0
   -7.4698    2.6989   27.4277 C   0  0  0  0  0  0  0  0  0  0  0  0
   -7.9683    1.5964   26.8266 C   0  0  0  0  0  0  0  0  0  0  0  0
   -8.9447    1.7923   25.8533 C   0  0  0  0  0  0  0  0  0  0  0  0
   -9.4219    0.6008   25.2035 C   0  0  0  0  0  0  0  0  0  0  0  0
   -8.9723    3.9438   26.1448 C   0  0  0  0  0  0  0  0  0  0  0  0
   -9.4504    2.9735   25.5406 C   0  0  0  0  0  0  0  0  0  0  0  0
   -7.0683    4.9828   28.9532 N   0  0  0  0  0  0  0  0  0  0  0  0
   -8.5252    6.1690   27.6829 N   0  0  0  0  0  0  0  0  0  0  0  0
   -8.8707    0.1571   24.0844 C   0  0  0  0  0  0  0  0  0  0  0  0
   -9.2809   -0.8887   23.2563 C   0  0  0  0  0  0  0  0  0  0  0  0
  -10.3354   -1.6116   23.7176 C   0  0  0  0  0  0  0  0  0  0  0  0
  1  2  2  3
  1  3  1  0
  3  4  1  0
  4  5  1  0
  5  6  2  3
  1  7  1  0
  5  8  1  0
  7  8  1  0
  2  9  1  0
  2 10  1  0
  6 11  1  0
 11 12  2  3
 12 13  1  0
M  END
$$$$
