No_1626-complexes_sdf/6BKW-FPZ/2024-09-17-14-21-01/
     RDKit          3D

 17 18  0  0  0  0  0  0  0  0999 V2000
   -7.2496    3.8871   27.4508 C   0  0  0  0  0  0  0  0  0  0  0  0
   -8.5096    4.0291   27.2770 C   0  0  0  0  0  0  0  0  0  0  0  0
   -9.2677    5.1714   27.5773 C   0  0  0  0  0  0  0  0  0  0  0  0
   -9.2765    2.8248   26.8371 C   0  0  0  0  0  0  0  0  0  0  0  0
   -8.6731    1.7312   26.5464 C   0  0  0  0  0  0  0  0  0  0  0  0
   -6.5350    2.6522   27.3724 C   0  0  0  0  0  0  0  0  0  0  0  0
   -7.2425    1.5827   26.9581 C   0  0  0  0  0  0  0  0  0  0  0  0
   -9.2086    6.1870   26.6924 C   0  0  0  0  0  0  0  0  0  0  0  0
   -9.2580    5.9985   25.3737 C   0  0  0  0  0  0  0  0  0  0  0  0
   -9.7179    4.7003   24.9784 C   0  0  0  0  0  0  0  0  0  0  0  0
  -10.3361    4.5709   23.6700 C   0  0  0  0  0  0  0  0  0  0  0  0
  -10.5548    3.3471   23.0733 C   0  0  0  0  0  0  0  0  0  0  0  0
  -10.8060    3.2707   21.7859 C   0  0  0  0  0  0  0  0  0  0  0  0
  -10.9196    2.0186   21.0630 C   0  0  0  0  0  0  0  0  0  0  0  0
  -10.7109    0.8504   21.8494 C   0  0  0  0  0  0  0  0  0  0  0  0
  -10.4169    0.9304   23.1704 C   0  0  0  0  0  0  0  0  0  0  0  0
  -10.2875    2.1440   23.8339 C   0  0  0  0  0  0  0  0  0  0  0  0
  2  3  1  0
  3  8  1  0
  8  9  2  3
  9 10  1  0
 10 11  1  0
 11 12  1  0
  1  2  2  0
  2  4  1  0
  4  5  2  0
  5  7  1  0
  7  6  2  0
  6  1  1  0
 12 13  2  0
 13 14  1  0
 14 15  2  0
 15 16  1  0
 16 17  2  0
 17 12  1  0
M  END
$$$$
