No_1657-complexes_sdf/6BKW-FPZ/2024-09-17-14-21-01/
     RDKit          3D

 25 27  0  0  0  0  0  0  0  0999 V2000
   -7.9040    3.9820   27.1177 C   0  0  0  0  0  0  0  0  0  0  0  0
   -8.2057    2.8231   26.8733 C   0  0  0  0  0  0  0  0  0  0  0  0
   -8.7695    5.0740   26.7916 C   0  0  0  0  0  0  0  0  0  0  0  0
   -8.4337    6.4678   27.0913 C   0  0  0  0  0  0  0  0  0  0  0  0
   -9.3742    2.4311   26.2346 C   0  0  0  0  0  0  0  0  0  0  0  0
  -10.2395    3.4267   25.8887 C   0  0  0  0  0  0  0  0  0  0  0  0
   -9.9567    4.7548   26.1374 C   0  0  0  0  0  0  0  0  0  0  0  0
   -7.9449    7.5014   26.9590 N   0  0  0  0  0  0  0  0  0  0  0  0
   -7.2426    1.6814   27.2966 C   0  0  0  0  0  0  0  0  0  0  0  0
   -7.5505    0.3972   27.2174 N   0  0  0  0  0  0  0  0  0  0  0  0
   -6.1097    2.0017   27.7458 O   0  0  0  0  0  0  0  0  0  0  0  0
   -6.6998   -0.6789   27.6809 C   0  0  0  0  0  0  0  0  0  0  0  0
   -7.3445   -1.6505   28.3008 C   0  0  0  0  0  0  0  0  0  0  0  0
   -6.7624   -2.2827   29.3912 C   0  0  0  0  0  0  0  0  0  0  0  0
   -5.3559   -2.0561   29.6357 C   0  0  0  0  0  0  0  0  0  0  0  0
   -4.7082   -0.9996   28.9626 C   0  0  0  0  0  0  0  0  0  0  0  0
   -5.4152   -0.2362   28.0931 C   0  0  0  0  0  0  0  0  0  0  0  0
   -3.3027   -0.6458   29.3673 C   0  0  1  0  0  0  0  0  0  0  0  0
   -2.9062   -0.7788   30.6039 C   0  0  0  0  0  0  0  0  0  0  0  0
   -2.4850   -0.2690   28.2536 C   0  0  0  0  0  0  0  0  0  0  0  0
   -3.0058   -1.4410   31.5517 C   0  0  0  0  0  0  0  0  0  0  0  0
   -3.6539   -2.6872   31.4811 C   0  0  0  0  0  0  0  0  0  0  0  0
   -5.0272   -2.6800   30.9682 C   0  0  0  0  0  0  0  0  0  0  0  0
   -2.6244    0.9391   27.9274 F   0  0  0  0  0  0  0  0  0  0  0  0
   -1.1247   -0.3275   28.6334 F   0  0  0  0  0  0  0  0  0  0  0  0
  3  4  1  0
  4  8  3  0
  2  9  1  0
  9 10  1  0
  9 11  2  0
 10 12  1  0
 16 18  1  0
 18 19  1  0
 18 20  1  6
 19 21  2  0
 21 22  1  0
 15 23  1  0
 22 23  1  0
 20 24  1  0
 20 25  1  0
 12 13  2  0
 13 14  1  0
 14 15  2  0
 15 16  1  0
 16 17  2  0
 17 12  1  0
  1  2  2  0
  2  5  1  0
  5  6  2  0
  6  7  1  0
  7  3  2  0
  3  1  1  0
M  END
$$$$
