No_1420-complexes_sdf/6BKW-FPZ/2024-09-17-14-21-01/
     RDKit          3D

 40 43  0  0  0  0  0  0  0  0999 V2000
   -7.2496    3.8871   27.4508 C   0  0  0  0  0  0  0  0  0  0  0  0
   -7.9379    4.9063   27.8518 C   0  0  0  0  0  0  0  0  0  0  0  0
   -7.4895    6.2027   27.7481 C   0  0  0  0  0  0  0  0  0  0  0  0
   -7.8057    2.6324   27.3137 C   0  0  0  0  0  0  0  0  0  0  0  0
   -9.1872    2.4678   27.5434 C   0  0  0  0  0  0  0  0  0  0  0  0
   -9.9237    3.5447   27.9999 C   0  0  0  0  0  0  0  0  0  0  0  0
   -9.3832    4.8080   28.1012 C   0  0  0  0  0  0  0  0  0  0  0  0
  -11.4121    3.4754   28.3220 C   0  0  0  0  0  0  0  0  0  0  0  0
  -11.7639    2.5446   29.2210 C   0  0  0  0  0  0  0  0  0  0  0  0
  -13.1519    2.4167   29.6417 C   0  0  0  0  0  0  0  0  0  0  0  0
  -14.0599    3.3331   29.1116 C   0  0  0  0  0  0  0  0  0  0  0  0
  -12.2962    4.5619   28.0151 C   0  0  0  0  0  0  0  0  0  0  0  0
  -13.6194    4.4396   28.3388 C   0  0  0  0  0  0  0  0  0  0  0  0
   -7.0478    1.4193   26.9468 C   0  0  0  0  0  0  0  0  0  0  0  0
   -5.9590    1.1665   27.5514 O   0  0  0  0  0  0  0  0  0  0  0  0
   -5.3164    0.0009   27.3963 C   0  0  0  0  0  0  0  0  0  0  0  0
   -5.5690   -0.9284   28.3657 C   0  0  0  0  0  0  0  0  0  0  0  0
   -5.7938   -2.0014   28.1872 O   0  0  0  0  0  0  0  0  0  0  0  0
   -5.4401   -0.5431   29.7337 O   0  0  0  0  0  0  0  0  0  0  0  0
   -8.1711    7.2608   27.1673 N   0  0  0  0  0  0  0  0  0  0  0  0
   -9.3619    7.1097   26.6304 C   0  0  0  0  0  0  0  0  0  0  0  0
   -4.5301   -1.1368   30.5784 C   0  0  0  0  0  0  0  0  0  0  0  0
   -3.4993   -0.2894   30.8122 C   0  0  0  0  0  0  0  0  0  0  0  0
   -2.9490   -0.4813   31.9096 C   0  0  0  0  0  0  0  0  0  0  0  0
   -3.2001   -1.5101   32.8987 C   0  0  0  0  0  0  0  0  0  0  0  0
   -2.5625   -1.6851   34.0616 C   0  0  0  0  0  0  0  0  0  0  0  0
   -1.6093   -0.7126   34.4638 C   0  0  0  0  0  0  0  0  0  0  0  0
   -0.9039   -0.8722   35.7073 C   0  0  0  0  0  0  0  0  0  0  0  0
   -4.3555   -2.2117   32.4667 C   0  0  0  0  0  0  0  0  0  0  0  0
   -5.1445   -1.8645   31.4054 C   0  0  0  0  0  0  0  0  0  0  0  0
    0.0642    0.0346   36.0683 C   0  0  0  0  0  0  0  0  0  0  0  0
    0.9948    0.3931   35.0249 C   0  0  0  0  0  0  0  0  0  0  0  0
    1.5911    1.4665   35.2754 O   0  0  0  0  0  0  0  0  0  0  0  0
    1.0891   -0.1680   33.9986 O   0  0  0  0  0  0  0  0  0  0  0  0
   -1.7829   -3.0562   34.1094 C   0  0  0  0  0  0  0  0  0  0  0  0
   -2.3285   -4.0193   34.2143 C   0  0  0  0  0  0  0  0  0  0  0  0
   -1.6695   -5.3186   34.2356 C   0  0  0  0  0  0  0  0  0  0  0  0
   -0.2936   -5.3250   34.2618 C   0  0  0  0  0  0  0  0  0  0  0  0
    0.4112   -4.1445   34.1575 C   0  0  0  0  0  0  0  0  0  0  0  0
   -0.2989   -2.9819   34.1186 C   0  0  0  0  0  0  0  0  0  0  0  0
  2  3  1  0
  6  8  1  0
  4 14  1  0
 14 15  1  0
 15 16  1  0
 16 17  1  0
 17 18  2  0
 17 19  1  0
  3 20  1  0
 20 21  1  0
 19 22  1  0
 25 26  1  0
 26 27  2  3
 27 28  1  0
 28 31  1  0
 31 32  1  0
 32 33  2  0
 32 34  1  0
 26 35  1  0
 35 36  2  0
 36 37  1  0
 37 38  2  0
 38 39  1  0
 39 40  2  0
 40 35  1  0
  1  2  2  0
  2  7  1  0
  7  6  2  0
  6  5  1  0
  5  4  2  0
  4  1  1  0
 22 23  2  0
 23 24  1  0
 24 25  2  0
 25 29  1  0
 29 30  2  0
 30 22  1  0
  8  9  2  0
  9 10  1  0
 10 11  2  0
 11 13  1  0
 13 12  2  0
 12  8  1  0
M  END
$$$$
