No_1203-complexes_sdf/6BKW-FPZ/2024-09-17-14-21-01/
     RDKit          3D

 16 16  0  0  0  0  0  0  0  0999 V2000
   -7.9040    3.9820   27.1177 C   0  0  0  0  0  0  0  0  0  0  0  0
   -8.2057    2.8231   26.8733 C   0  0  0  0  0  0  0  0  0  0  0  0
   -8.7695    5.0740   26.7916 C   0  0  0  0  0  0  0  0  0  0  0  0
   -9.9618    4.7598   26.1630 C   0  0  0  0  0  0  0  0  0  0  0  0
   -9.4200    2.4524   26.2849 C   0  0  0  0  0  0  0  0  0  0  0  0
  -10.2590    3.4815   25.9250 C   0  0  0  0  0  0  0  0  0  0  0  0
   -8.3840    6.4693   27.0829 C   0  0  0  0  0  0  0  0  0  0  0  0
   -8.3637    6.7809   28.2310 F   0  0  0  0  0  0  0  0  0  0  0  0
   -9.3076    7.3337   26.4322 F   0  0  0  0  0  0  0  0  0  0  0  0
   -7.1477    6.7467   26.5861 F   0  0  0  0  0  0  0  0  0  0  0  0
   -7.2850    1.6786   27.3225 C   0  0  2  0  0  0  0  0  0  0  0  0
   -5.8868    2.0420   28.0978 Cl  0  0  0  0  0  0  0  0  0  0  0  0
   -7.5520    0.3098   27.0430 C   0  0  0  0  0  0  0  0  0  0  0  0
   -8.5269   -0.2900   27.6329 C   0  0  0  0  0  0  0  0  0  0  0  0
   -8.7804   -1.6897   27.4545 C   0  0  0  0  0  0  0  0  0  0  0  0
   -7.9853   -2.3236   26.5578 C   0  0  0  0  0  0  0  0  0  0  0  0
  3  7  1  0
  7  8  1  0
  7  9  1  0
  7 10  1  0
  2 11  1  0
 11 12  1  6
 11 13  1  0
 13 14  2  3
 14 15  1  0
 15 16  2  0
  1  2  2  0
  2  5  1  0
  5  6  2  0
  6  4  1  0
  4  3  2  0
  3  1  1  0
M  END
$$$$
