No_1834-complexes_sdf/6BKW-FPZ/2024-09-17-14-21-01/
     RDKit          3D

 11 11  0  0  0  0  0  0  0  0999 V2000
   -7.2496    3.8871   27.4508 C   0  0  0  0  0  0  0  0  0  0  0  0
   -8.5096    4.0291   27.2770 C   0  0  0  0  0  0  0  0  0  0  0  0
   -9.3451    2.8786   26.9046 C   0  0  0  0  0  0  0  0  0  0  0  0
   -6.6065    2.5680   27.5073 C   0  0  0  0  0  0  0  0  0  0  0  0
   -7.3970    1.4834   27.2271 C   0  0  0  0  0  0  0  0  0  0  0  0
   -6.8114    0.1924   27.2947 C   0  0  0  0  0  0  0  0  0  0  0  0
   -8.7355    1.6575   26.9788 C   0  0  0  0  0  0  0  0  0  0  0  0
   -9.1211    5.3943   27.2180 C   0  0  0  0  0  0  0  0  0  0  0  0
   -8.2992    6.5204   27.0159 C   0  0  0  0  0  0  0  0  0  0  0  0
   -7.4273   -0.9190   27.3130 C   0  0  0  0  0  0  0  0  0  0  0  0
   -8.9038   -0.7326   27.0753 C   0  0  0  0  0  0  0  0  0  0  0  0
  5  6  1  0
  2  8  1  0
  8  9  2  0
  6 10  2  3
 10 11  1  0
  1  2  2  0
  2  3  1  0
  3  7  2  0
  7  5  1  0
  5  4  2  0
  4  1  1  0
M  END
$$$$
