No_1982-complexes_sdf/6BKW-FPZ/2024-09-17-14-21-01/
     RDKit          3D

 20 22  0  0  0  0  0  0  0  0999 V2000
   -7.7129    4.2099   27.0854 C   0  0  0  0  0  0  0  0  0  0  0  0
   -7.7814    5.1722   27.8972 C   0  0  0  0  0  0  0  0  0  0  0  0
   -8.8998    3.8713   26.3707 C   0  0  0  0  0  0  0  0  0  0  0  0
   -8.9563    2.6796   25.5490 C   0  0  0  0  0  0  0  0  0  0  0  0
   -8.8131    6.1334   27.9344 C   0  0  0  0  0  0  0  0  0  0  0  0
   -9.9804    5.8121   27.1929 C   0  0  0  0  0  0  0  0  0  0  0  0
   -9.9861    4.6836   26.4532 C   0  0  0  0  0  0  0  0  0  0  0  0
   -8.3568    1.4858   26.0897 C   0  0  0  0  0  0  0  0  0  0  0  0
   -9.0262    0.5760   26.4077 C   0  0  0  0  0  0  0  0  0  0  0  0
   -8.4210   -0.6287   27.0994 C   0  0  0  0  0  0  0  0  0  0  0  0
   -9.1855   -1.7041   27.6129 C   0  0  0  0  0  0  0  0  0  0  0  0
  -10.5886   -1.5712   27.5185 C   0  0  0  0  0  0  0  0  0  0  0  0
  -11.1821   -0.4792   26.9662 C   0  0  0  0  0  0  0  0  0  0  0  0
  -10.4781    0.5811   26.5087 C   0  0  0  0  0  0  0  0  0  0  0  0
   -6.9417   -0.7015   27.1977 C   0  0  0  0  0  0  0  0  0  0  0  0
   -6.4092   -1.4969   28.0438 C   0  0  0  0  0  0  0  0  0  0  0  0
   -5.0249   -1.2356   28.3749 C   0  0  0  0  0  0  0  0  0  0  0  0
   -4.2736   -0.2912   27.6267 C   0  0  0  0  0  0  0  0  0  0  0  0
   -4.9405    0.5547   26.7839 C   0  0  0  0  0  0  0  0  0  0  0  0
   -6.3019    0.4369   26.5906 C   0  0  0  0  0  0  0  0  0  0  0  0
  3  4  1  0
  4  8  1  0
 10 15  1  0
  8  9  1  0
  9 10  1  0
 10 11  2  0
 11 12  1  0
 12 13  2  0
 13 14  1  0
 14  9  2  0
 15 16  2  0
 16 17  1  0
 17 18  2  0
 18 19  1  0
 19 20  2  0
 20 15  1  0
  1  2  2  0
  2  5  1  0
  5  6  2  0
  6  7  1  0
  7  3  2  0
  3  1  1  0
M  END
$$$$
