No_1511-complexes_sdf/6BKW-FPZ/2024-09-17-14-21-01/
     RDKit          3D

 19 20  0  0  0  0  0  0  0  0999 V2000
   -7.9040    3.9820   27.1177 C   0  0  0  0  0  0  0  0  0  0  0  0
   -9.0711    4.3164   27.0630 C   0  0  0  0  0  0  0  0  0  0  0  0
   -9.8698    3.9665   25.9494 C   0  0  0  0  0  0  0  0  0  0  0  0
   -7.4046    2.7946   26.4568 C   0  0  0  0  0  0  0  0  0  0  0  0
   -8.3645    2.1023   25.7152 C   0  0  0  0  0  0  0  0  0  0  0  0
   -9.5483    2.7427   25.4386 C   0  0  0  0  0  0  0  0  0  0  0  0
   -6.6488    4.7672   28.3975 Br  0  0  0  0  0  0  0  0  0  0  0  0
  -10.4441    2.1641   24.4050 C   0  0  0  0  0  0  0  0  0  0  0  0
  -10.0524    1.5185   23.4922 N   0  0  0  0  0  0  0  0  0  0  0  0
   -9.2521    0.6244   23.5045 C   0  0  0  0  0  0  0  0  0  0  0  0
  -10.3721    1.8829   22.0603 C   0  0  0  0  0  0  0  0  0  0  0  0
   -9.5588   -0.5447   23.0961 C   0  0  0  0  0  0  0  0  0  0  0  0
  -11.1346    3.0259   21.8220 C   0  0  0  0  0  0  0  0  0  0  0  0
   -8.8476   -1.7074   23.4420 C   0  0  0  0  0  0  0  0  0  0  0  0
   -7.6893   -1.5898   24.1644 C   0  0  0  0  0  0  0  0  0  0  0  0
   -7.2318   -0.4107   24.5909 C   0  0  0  0  0  0  0  0  0  0  0  0
   -8.0057    0.6326   24.4130 C   0  0  0  0  0  0  0  0  0  0  0  0
   -7.2061    1.3101   23.9421 O   0  0  0  0  0  0  0  0  0  0  0  0
   -8.9020    0.9905   26.7807 O   0  0  0  0  0  0  0  0  0  0  0  0
  1  7  1  0
  6  8  1  0
  8  9  1  0
  9 10  1  0
  9 11  1  0
 11 13  1  0
 17 18  1  0
  5 19  1  0
  1  2  2  0
  2  3  1  0
  3  6  2  0
  6  5  1  0
  5  4  2  0
  4  1  1  0
 10 12  2  0
 12 14  1  0
 14 15  2  0
 15 16  1  0
 16 17  2  0
 17 10  1  0
M  END
$$$$
