No_1514-complexes_sdf/6BKW-FPZ/2024-09-17-14-21-01/
     RDKit          3D

 40 46  0  0  0  0  0  0  0  0999 V2000
   -7.9040    3.9820   27.1177 C   0  0  0  0  0  0  0  0  0  0  0  0
   -9.0711    4.3164   27.0630 C   0  0  0  0  0  0  0  0  0  0  0  0
   -9.9692    3.7224   26.1073 C   0  0  0  0  0  0  0  0  0  0  0  0
   -6.9787    4.6761   28.1003 C   0  0  0  0  0  0  0  0  0  0  0  0
   -9.4538    2.6801   25.3673 C   0  0  0  0  0  0  0  0  0  0  0  0
   -8.1927    2.1957   25.6621 C   0  0  0  0  0  0  0  0  0  0  0  0
   -7.4333    2.8255   26.6299 C   0  0  0  0  0  0  0  0  0  0  0  0
  -10.3181    2.0008   24.3846 C   0  0  2  0  0  0  0  0  0  0  0  0
  -10.7358    2.6411   23.3159 C   0  0  0  0  0  0  0  0  0  0  0  0
  -10.9225    3.9476   23.2665 C   0  0  0  0  0  0  0  0  0  0  0  0
  -10.8642    4.6595   22.5484 C   0  0  0  0  0  0  0  0  0  0  0  0
  -10.8164    4.2399   21.1227 C   0  0  0  0  0  0  0  0  0  0  0  0
  -10.7042    2.8695   20.9478 C   0  0  0  0  0  0  0  0  0  0  0  0
  -10.5098    2.0518   22.0521 C   0  0  0  0  0  0  0  0  0  0  0  0
  -11.4872    1.3124   25.0874 C   0  0  0  0  0  0  0  0  0  0  0  0
  -11.4141   -0.0421   25.1389 C   0  0  0  0  0  0  0  0  0  0  0  0
  -12.4775   -0.7555   25.7732 C   0  0  0  0  0  0  0  0  0  0  0  0
  -13.5140   -0.0098   26.3812 C   0  0  0  0  0  0  0  0  0  0  0  0
  -13.5049    1.3483   26.3897 C   0  0  0  0  0  0  0  0  0  0  0  0
  -12.4834    2.0373   25.7825 C   0  0  0  0  0  0  0  0  0  0  0  0
   -6.9903    5.6734   28.3848 N   0  0  0  0  0  0  0  0  0  0  0  0
   -5.8939    3.9585   28.3993 O   0  0  0  0  0  0  0  0  0  0  0  0
   -9.4294    0.7129   23.8811 C   0  0  2  0  0  0  0  0  0  0  0  0
   -8.3062    0.2972   24.4150 C   0  0  0  0  0  0  0  0  0  0  0  0
   -7.5697    1.0880   25.2778 C   0  0  0  0  0  0  0  0  0  0  0  0
   -9.7800    0.6930   22.5074 N   0  0  0  0  0  0  0  0  0  0  0  0
   -9.5686   -0.2404   21.5205 C   0  0  0  0  0  0  0  0  0  0  0  0
   -8.8197   -1.3083   21.9378 C   0  0  0  0  0  0  0  0  0  0  0  0
  -10.2765   -0.2501   20.3464 C   0  0  0  0  0  0  0  0  0  0  0  0
   -8.7199   -2.2518   21.5617 C   0  0  0  0  0  0  0  0  0  0  0  0
  -10.1243   -1.4693   19.5943 C   0  0  0  0  0  0  0  0  0  0  0  0
   -9.3016   -2.4439   20.1181 C   0  0  0  0  0  0  0  0  0  0  0  0
   -9.1568   -3.5516   19.3706 F   0  0  0  0  0  0  0  0  0  0  0  0
  -12.5172   -2.2260   25.8373 C   0  0  0  0  0  0  0  0  0  0  0  0
  -13.4070   -2.8688   25.4057 C   0  0  0  0  0  0  0  0  0  0  0  0
  -11.3040   -2.8597   26.3166 C   0  0  0  0  0  0  0  0  0  0  0  0
  -11.0912   -4.1798   26.2158 C   0  0  0  0  0  0  0  0  0  0  0  0
  -13.3715   -4.3372   25.3066 C   0  0  0  0  0  0  0  0  0  0  0  0
  -12.2167   -4.9288   25.7647 C   0  0  0  0  0  0  0  0  0  0  0  0
  -12.1148   -6.4105   25.7078 C   0  0  0  0  0  0  0  0  0  0  0  0
  1  4  1  0
  5  8  1  0
  8  9  1  0
  8 15  1  1
  4 21  2  0
  4 22  1  0
  8 23  1  0
  6 25  1  0
 24 25  1  0
 14 26  1  0
 23 26  1  0
 26 27  1  0
 32 33  1  0
 17 34  1  0
 39 40  1  0
 23 24  1  6
 15 16  2  0
 16 17  1  0
 17 18  2  0
 18 19  1  0
 19 20  2  0
 20 15  1  0
 27 28  2  0
 28 30  1  0
 30 32  2  0
 32 31  1  0
 31 29  2  0
 29 27  1  0
  1  2  2  0
  2  3  1  0
  3  5  2  0
  5  6  1  0
  6  7  2  0
  7  1  1  0
  9 10  2  0
 10 11  1  0
 11 12  2  0
 12 13  1  0
 13 14  2  0
 14  9  1  0
 34 35  2  0
 35 38  1  0
 38 39  2  0
 39 37  1  0
 37 36  2  0
 36 34  1  0
M  END
$$$$
