No_1088-complexes_sdf/6BKW-FPZ/2024-09-17-14-21-01/
     RDKit          3D

 16 17  0  0  0  0  0  0  0  0999 V2000
   -7.7129    4.2099   27.0854 C   0  0  0  0  0  0  0  0  0  0  0  0
   -8.2112    3.0637   26.9225 C   0  0  0  0  0  0  0  0  0  0  0  0
   -8.5108    5.3904   26.9436 C   0  0  0  0  0  0  0  0  0  0  0  0
   -9.7256    5.1955   26.3518 C   0  0  0  0  0  0  0  0  0  0  0  0
   -9.4995    2.8258   26.4878 C   0  0  0  0  0  0  0  0  0  0  0  0
  -10.2542    3.9691   26.2055 C   0  0  0  0  0  0  0  0  0  0  0  0
   -7.9135    6.7086   27.1885 C   0  0  0  0  0  0  0  0  0  0  0  0
   -7.3624    1.8198   27.2561 C   0  0  0  0  0  0  0  0  0  0  0  0
   -7.8317    0.5143   27.1524 C   0  0  0  0  0  0  0  0  0  0  0  0
   -6.9670   -0.5025   27.3942 C   0  0  0  0  0  0  0  0  0  0  0  0
   -5.6379   -0.2379   27.7804 C   0  0  0  0  0  0  0  0  0  0  0  0
   -5.1868    1.0717   27.9069 C   0  0  0  0  0  0  0  0  0  0  0  0
   -5.9678    2.0798   27.6374 C   0  0  0  0  0  0  0  0  0  0  0  0
   -8.5914    7.7909   26.8059 N   0  0  0  0  0  0  0  0  0  0  0  0
   -6.7575    6.8287   27.8119 N   0  0  0  0  0  0  0  0  0  0  0  0
   -3.5552    1.3651   28.3842 Cl  0  0  0  0  0  0  0  0  0  0  0  0
  3  7  1  0
  2  8  1  0
  7 14  2  0
  7 15  1  0
 12 16  1  0
  8  9  2  0
  9 10  1  0
 10 11  2  0
 11 12  1  0
 12 13  2  0
 13  8  1  0
  1  2  2  0
  2  5  1  0
  5  6  2  0
  6  4  1  0
  4  3  2  0
  3  1  1  0
M  END
$$$$
