No_1057-complexes_sdf/6BKW-FPZ/2024-09-17-14-21-01/
     RDKit          3D

 10 10  0  0  0  0  0  0  0  0999 V2000
   -7.2496    3.8871   27.4508 C   0  0  0  0  0  0  0  0  0  0  0  0
   -8.5096    4.0291   27.2770 C   0  0  0  0  0  0  0  0  0  0  0  0
   -9.2677    5.1714   27.5773 C   0  0  0  0  0  0  0  0  0  0  0  0
   -9.2765    2.8248   26.8371 C   0  0  0  0  0  0  0  0  0  0  0  0
  -10.4623    3.0171   26.3237 C   0  0  0  0  0  0  0  0  0  0  0  0
  -10.8972    2.6250   25.3350 C   0  0  0  0  0  0  0  0  0  0  0  0
  -12.1574    3.0234   24.6669 C   0  0  0  0  0  0  0  0  0  0  0  0
   -8.5270    6.3629   27.9172 C   0  0  0  0  0  0  0  0  0  0  0  0
   -6.5118    5.0859   27.9464 C   0  0  0  0  0  0  0  0  0  0  0  0
   -7.1627    6.2622   28.0581 C   0  0  0  0  0  0  0  0  0  0  0  0
  2  4  1  0
  4  5  1  0
  5  6  3  0
  6  7  1  0
  1  2  2  0
  2  3  1  0
  3  8  2  0
  8 10  1  0
 10  9  2  0
  9  1  1  0
M  END
$$$$
