No_1647-complexes_sdf/6BKW-FPZ/2024-09-17-14-21-01/
     RDKit          3D

 30 35  0  0  0  0  0  0  0  0999 V2000
   -7.2496    3.8871   27.4508 C   0  0  0  0  0  0  0  0  0  0  0  0
   -8.5096    4.0291   27.2770 C   0  0  0  0  0  0  0  0  0  0  0  0
   -9.3502    2.8685   26.8763 C   0  0  0  0  0  0  0  0  0  0  0  0
   -6.4573    5.0084   27.9854 C   0  0  0  0  0  0  0  0  0  0  0  0
   -9.1981    5.2037   27.6491 C   0  0  0  0  0  0  0  0  0  0  0  0
   -8.4588    6.3530   27.9878 C   0  0  0  0  0  0  0  0  0  0  0  0
   -7.1111    6.2009   28.1683 C   0  0  0  0  0  0  0  0  0  0  0  0
   -8.7300    1.6762   26.5917 C   0  0  0  0  0  0  0  0  0  0  0  0
   -7.3063    1.6134   26.7085 C   0  0  0  0  0  0  0  0  0  0  0  0
   -6.5801    2.6483   27.2629 C   0  0  0  0  0  0  0  0  0  0  0  0
   -9.4056    0.5199   26.1146 C   0  0  0  0  0  0  0  0  0  0  0  0
   -9.0374   -0.4555   25.8964 N   0  0  0  0  0  0  0  0  0  0  0  0
   -7.7331   -0.6612   26.0858 C   0  0  0  0  0  0  0  0  0  0  0  0
   -6.7878    0.2662   26.5815 C   0  0  0  0  0  0  0  0  0  0  0  0
  -10.7906    0.7664   25.9351 F   0  0  0  0  0  0  0  0  0  0  0  0
   -7.0730   -2.0748   25.7930 C   0  0  0  0  0  0  0  0  0  0  0  0
   -5.9498   -2.1218   25.4436 C   0  0  0  0  0  0  0  0  0  0  0  0
   -5.3036   -3.3789   25.1191 C   0  0  0  0  0  0  0  0  0  0  0  0
   -3.8813   -3.4330   25.0411 C   0  0  0  0  0  0  0  0  0  0  0  0
   -3.0724   -2.3388   25.2468 C   0  0  0  0  0  0  0  0  0  0  0  0
   -3.6511   -1.1110   25.5636 C   0  0  0  0  0  0  0  0  0  0  0  0
   -4.9570   -1.0185   25.7063 C   0  0  0  0  0  0  0  0  0  0  0  0
   -5.5524    0.1588   26.1967 N   0  0  0  0  0  0  0  0  0  0  0  0
  -10.5690    5.3784   27.4316 N   0  0  0  0  0  0  0  0  0  0  0  0
  -11.3649    4.8202   26.6320 C   0  0  0  0  0  0  0  0  0  0  0  0
  -12.7442    4.6130   27.0329 C   0  0  0  0  0  0  0  0  0  0  0  0
  -13.7818    4.3567   26.1604 C   0  0  0  0  0  0  0  0  0  0  0  0
  -13.3433    3.9915   24.8324 C   0  0  0  0  0  0  0  0  0  0  0  0
  -12.0403    4.0865   24.4160 C   0  0  0  0  0  0  0  0  0  0  0  0
  -11.0458    4.5546   25.3084 C   0  0  0  0  0  0  0  0  0  0  0  0
 11 15  1  0
  5 24  1  0
 24 25  1  0
  9 14  2  0
 13 12  2  0
 12 11  1  0
 11  8  2  0
 25 26  2  0
 26 27  1  0
 27 28  2  0
 28 29  1  0
 29 30  2  0
 30 25  1  0
 13 14  1  0
 14 23  1  0
 23 22  2  0
 17 16  2  0
 16 13  1  0
  2  3  2  0
  3  8  1  0
  8  9  1  0
  9 10  1  0
 10  1  2  0
  1  2  1  0
  2  5  1  0
  5  6  2  0
  6  7  1  0
  7  4  2  0
  4  1  1  0
 17 18  1  0
 18 19  2  0
 19 20  1  0
 20 21  2  0
 21 22  1  0
 22 17  1  0
M  END
$$$$
