No_1951-complexes_sdf/6BKW-FPZ/2024-09-17-14-21-01/
     RDKit          3D

 31 36  0  0  0  0  0  0  0  0999 V2000
   -7.9040    3.9820   27.1177 C   0  0  0  0  0  0  0  0  0  0  0  0
   -7.8663    4.8694   27.9238 C   0  0  0  0  0  0  0  0  0  0  0  0
   -9.0501    3.8017   26.2617 C   0  0  0  0  0  0  0  0  0  0  0  0
   -9.1826    2.7026   25.3575 C   0  0  0  0  0  0  0  0  0  0  0  0
   -8.6940    6.0131   27.8614 C   0  0  0  0  0  0  0  0  0  0  0  0
   -9.9755    4.8547   26.2361 C   0  0  0  0  0  0  0  0  0  0  0  0
   -9.7463    5.9398   27.0364 C   0  0  0  0  0  0  0  0  0  0  0  0
  -10.1187    2.7535   24.3403 C   0  0  0  0  0  0  0  0  0  0  0  0
  -10.3304    1.6199   23.5634 C   0  0  0  0  0  0  0  0  0  0  0  0
  -11.2244    1.6687   22.4433 C   0  0  0  0  0  0  0  0  0  0  0  0
  -11.8883    2.8865   22.2228 C   0  0  0  0  0  0  0  0  0  0  0  0
  -11.6691    3.9998   22.9862 C   0  0  0  0  0  0  0  0  0  0  0  0
  -10.7172    3.9611   24.0323 C   0  0  0  0  0  0  0  0  0  0  0  0
  -10.8448    4.8760   25.0569 C   0  0  0  0  0  0  0  0  0  0  0  0
   -7.0307    2.8589   27.2876 N   0  0  0  0  0  0  0  0  0  0  0  0
   -5.7969    2.9414   27.6233 C   0  0  0  0  0  0  0  0  0  0  0  0
   -5.0962    1.8278   28.0415 N   0  0  0  0  0  0  0  0  0  0  0  0
   -5.6358    0.6423   28.2368 C   0  0  0  0  0  0  0  0  0  0  0  0
   -4.8381   -0.4280   28.7212 C   0  0  0  0  0  0  0  0  0  0  0  0
   -5.3933   -1.7045   29.0038 C   0  0  0  0  0  0  0  0  0  0  0  0
   -6.7395   -1.8842   28.6368 C   0  0  0  0  0  0  0  0  0  0  0  0
   -7.5036   -0.8926   28.0603 C   0  0  0  0  0  0  0  0  0  0  0  0
   -7.0369    0.2572   27.8929 C   0  0  0  0  0  0  0  0  0  0  0  0
   -7.6867    1.5163   27.4307 C   0  0  0  0  0  0  0  0  0  0  0  0
   -3.4395   -0.1720   29.1489 C   0  0  0  0  0  0  0  0  0  0  0  0
   -2.8226   -0.9311   29.9140 C   0  0  0  0  0  0  0  0  0  0  0  0
   -3.3790   -1.3293   31.1361 C   0  0  0  0  0  0  0  0  0  0  0  0
   -2.7044   -2.1819   32.0538 C   0  0  0  0  0  0  0  0  0  0  0  0
   -1.3819   -2.5214   31.6735 C   0  0  0  0  0  0  0  0  0  0  0  0
   -0.7943   -2.1521   30.5294 C   0  0  0  0  0  0  0  0  0  0  0  0
   -1.4586   -1.3233   29.6432 C   0  0  0  0  0  0  0  0  0  0  0  0
  1 15  1  0
 15 16  1  0
 16 17  1  0
 15 24  1  0
 23 24  1  0
 19 25  1  0
 25 26  1  0
 17 18  1  0
 18 19  2  0
 19 20  1  0
 20 21  2  0
 21 22  1  0
 22 23  2  0
 23 18  1  0
  3  4  2  0
  4  8  1  0
 13 14  1  0
 14  6  2  0
 26 27  2  0
 27 28  1  0
 28 29  2  0
 29 30  1  0
 30 31  2  0
 31 26  1  0
  8  9  2  0
  9 10  1  0
 10 11  2  0
 11 12  1  0
 12 13  2  0
 13  8  1  0
  1  2  2  0
  2  5  1  0
  5  7  2  0
  7  6  1  0
  6  3  1  0
  3  1  1  0
M  END
$$$$
