No_1520-complexes_sdf/6BKW-FPZ/2024-09-17-14-21-01/
     RDKit          3D

 28 32  0  0  0  0  0  0  0  0999 V2000
   -7.9040    3.9820   27.1177 C   0  0  0  0  0  0  0  0  0  0  0  0
   -9.0711    4.3164   27.0630 C   0  0  0  0  0  0  0  0  0  0  0  0
   -9.9692    3.7224   26.1073 C   0  0  0  0  0  0  0  0  0  0  0  0
   -6.9787    4.6761   28.1003 C   0  0  0  0  0  0  0  0  0  0  0  0
   -9.4538    2.6801   25.3673 C   0  0  0  0  0  0  0  0  0  0  0  0
   -8.1927    2.1957   25.6621 C   0  0  0  0  0  0  0  0  0  0  0  0
   -7.4333    2.8255   26.6299 C   0  0  0  0  0  0  0  0  0  0  0  0
  -10.3181    2.0008   24.3846 C   0  0  0  0  0  0  0  0  0  0  0  0
   -9.7182    1.2105   23.5031 C   0  0  0  0  0  0  0  0  0  0  0  0
   -8.4497    0.6550   23.8423 C   0  0  0  0  0  0  0  0  0  0  0  0
   -7.6967    1.1592   24.8473 C   0  0  0  0  0  0  0  0  0  0  0  0
   -7.0157    5.6730   28.4456 N   0  0  0  0  0  0  0  0  0  0  0  0
   -5.6688    4.0467   28.2049 N   0  0  0  0  0  0  0  0  0  0  0  0
   -7.8752   -0.4434   22.9912 C   0  0  0  0  0  0  0  0  0  0  0  0
   -6.6238   -0.8629   23.2468 C   0  0  0  0  0  0  0  0  0  0  0  0
   -6.2063   -0.9219   24.5628 C   0  0  0  0  0  0  0  0  0  0  0  0
   -6.6519    0.2473   25.4261 C   0  0  0  0  0  0  0  0  0  0  0  0
   -8.4859   -0.7085   21.6816 C   0  0  0  0  0  0  0  0  0  0  0  0
   -8.2169   -1.7371   20.9957 C   0  0  0  0  0  0  0  0  0  0  0  0
   -8.8033   -2.0734   19.7660 C   0  0  0  0  0  0  0  0  0  0  0  0
   -8.3099   -3.0648   18.9395 C   0  0  0  0  0  0  0  0  0  0  0  0
   -7.1058   -3.7147   19.3085 C   0  0  0  0  0  0  0  0  0  0  0  0
   -6.4414   -3.3703   20.4238 C   0  0  0  0  0  0  0  0  0  0  0  0
   -6.8859   -2.3695   21.2058 C   0  0  0  0  0  0  0  0  0  0  0  0
   -6.4442   -2.3800   22.6644 C   0  0  0  0  0  0  0  0  0  0  0  0
  -11.4517    1.4073   25.0308 C   0  0  0  0  0  0  0  0  0  0  0  0
  -11.5527    0.4696   25.9015 C   0  0  0  0  0  0  0  0  0  0  0  0
  -12.6558   -0.0756   26.4512 C   0  0  0  0  0  0  0  0  0  0  0  0
  1  4  1  0
  4 12  2  0
  4 13  1  0
 14 18  1  0
 18 19  1  0
 15 25  1  0
 24 25  1  0
  8 26  1  0
 26 27  2  3
 27 28  1  0
 11 17  2  0
 17 16  1  0
 16 15  2  0
 15 14  1  0
 14 10  2  0
  1  2  2  0
  2  3  1  0
  3  5  2  0
  6  7  2  0
  7  1  1  0
 19 20  2  0
 20 21  1  0
 21 22  2  0
 22 23  1  0
 23 24  2  0
 24 19  1  0
  5  6  1  0
  6 11  1  0
 11 10  1  0
 10  9  1  0
  9  8  2  0
  8  5  1  0
M  END
$$$$
