No_144-complexes_sdf/6BKW-FPZ/2024-09-17-14-21-01/
     RDKit          3D

 39 42  0  0  0  0  0  0  0  0999 V2000
   -7.9040    3.9820   27.1177 C   0  0  0  0  0  0  0  0  0  0  0  0
   -7.8663    4.8694   27.9238 C   0  0  0  0  0  0  0  0  0  0  0  0
   -9.0491    3.8523   26.2542 C   0  0  0  0  0  0  0  0  0  0  0  0
   -8.7661    5.9491   27.9690 C   0  0  0  0  0  0  0  0  0  0  0  0
   -9.9295    4.8502   26.2323 C   0  0  0  0  0  0  0  0  0  0  0  0
   -9.8077    5.9288   27.0933 C   0  0  0  0  0  0  0  0  0  0  0  0
   -6.9606    2.7994   27.1981 C   0  0  0  0  0  0  0  0  0  0  0  0
   -5.8227    3.0945   27.6985 F   0  0  0  0  0  0  0  0  0  0  0  0
   -7.6018    1.7803   28.0193 F   0  0  0  0  0  0  0  0  0  0  0  0
   -6.9858    2.0577   26.1472 F   0  0  0  0  0  0  0  0  0  0  0  0
  -11.2038    4.7613   25.0948 Cl  0  0  0  0  0  0  0  0  0  0  0  0
   -9.1613    2.8628   25.3505 O   0  0  0  0  0  0  0  0  0  0  0  0
  -10.2716    2.0639   25.3633 C   0  0  0  0  0  0  0  0  0  0  0  0
  -10.2801    1.1761   24.4478 C   0  0  0  0  0  0  0  0  0  0  0  0
   -9.2556    0.9508   23.5612 C   0  0  0  0  0  0  0  0  0  0  0  0
   -9.2032   -0.0514   22.4969 C   0  0  0  0  0  0  0  0  0  0  0  0
   -8.1453   -0.3505   21.8148 C   0  0  0  0  0  0  0  0  0  0  0  0
   -8.1510   -1.3758   20.8491 C   0  0  0  0  0  0  0  0  0  0  0  0
   -9.3574   -1.9679   20.4888 C   0  0  0  0  0  0  0  0  0  0  0  0
  -10.4951   -1.5464   21.0776 C   0  0  0  0  0  0  0  0  0  0  0  0
  -10.4310   -0.6238   22.0870 C   0  0  0  0  0  0  0  0  0  0  0  0
   -9.1315   -2.8193   19.4801 O   0  0  0  0  0  0  0  0  0  0  0  0
   -9.7674   -2.8471   18.4790 C   0  0  0  0  0  0  0  0  0  0  0  0
   -9.9284   -4.0700   17.9111 C   0  0  0  0  0  0  0  0  0  0  0  0
   -9.5066   -5.1402   18.2797 C   0  0  0  0  0  0  0  0  0  0  0  0
  -10.7164   -4.0990   16.5866 C   0  0  0  0  0  0  0  0  0  0  0  0
  -11.0436   -5.1275   16.0631 C   0  0  0  0  0  0  0  0  0  0  0  0
   -9.8007   -6.3847   17.6996 C   0  0  0  0  0  0  0  0  0  0  0  0
  -10.5672   -6.3525   16.5293 C   0  0  0  0  0  0  0  0  0  0  0  0
  -10.1412   -1.6727   17.9487 O   0  0  0  0  0  0  0  0  0  0  0  0
  -10.9142   -7.6261   15.8835 C   0  0  0  0  0  0  0  0  0  0  0  0
  -10.4654   -8.6570   16.2910 N   0  0  0  0  0  0  0  0  0  0  0  0
  -11.8037   -7.6459   15.0334 O   0  0  0  0  0  0  0  0  0  0  0  0
  -10.7203   -9.9846   15.7507 C   0  0  0  0  0  0  0  0  0  0  0  0
  -10.2859  -10.9063   15.8569 C   0  0  0  0  0  0  0  0  0  0  0  0
  -10.7026  -12.2132   15.2175 C   0  0  0  0  0  0  0  0  0  0  0  0
  -11.7867  -12.0866   14.3553 C   0  0  0  0  0  0  0  0  0  0  0  0
  -12.3648  -10.8570   14.1715 C   0  0  0  0  0  0  0  0  0  0  0  0
  -11.9317   -9.7713   14.8199 C   0  0  0  0  0  0  0  0  0  0  0  0
  1  7  1  0
  7  8  1  0
  7  9  1  0
  7 10  1  0
  5 11  1  0
  3 12  1  0
 12 13  1  0
 13 14  2  3
 14 15  1  0
 19 22  1  0
 22 23  1  0
 23 24  1  0
 23 30  2  0
 29 31  1  0
 31 32  1  0
 31 33  2  0
 32 34  1  0
 15 16  1  0
 24 25  2  0
 25 28  1  0
 28 29  2  0
 29 27  1  0
 27 26  2  0
 26 24  1  0
  1  2  2  0
  2  4  1  0
  4  6  2  0
  6  5  1  0
  5  3  2  0
  3  1  1  0
 34 35  2  0
 35 36  1  0
 36 37  2  0
 37 38  1  0
 38 39  2  0
 39 34  1  0
 16 17  2  0
 17 18  1  0
 18 19  2  0
 19 20  1  0
 20 21  2  0
 21 16  1  0
M  END
$$$$
