No_1199-complexes_sdf/6BKW-FPZ/2024-09-17-14-21-01/
     RDKit          3D

 27 29  0  0  0  0  0  0  0  0999 V2000
   -7.7129    4.2099   27.0854 C   0  0  0  0  0  0  0  0  0  0  0  0
   -8.9133    4.4736   27.0998 C   0  0  0  0  0  0  0  0  0  0  0  0
   -9.4643    5.5426   27.7628 C   0  0  0  0  0  0  0  0  0  0  0  0
   -7.2009    2.9448   26.6134 C   0  0  0  0  0  0  0  0  0  0  0  0
   -8.1365    1.9533   26.2981 C   0  0  0  0  0  0  0  0  0  0  0  0
   -9.4501    2.2651   26.2497 C   0  0  0  0  0  0  0  0  0  0  0  0
   -9.8615    3.4703   26.6763 C   0  0  0  0  0  0  0  0  0  0  0  0
   -7.5839    0.6450   25.9087 C   0  0  0  0  0  0  0  0  0  0  0  0
   -8.1430   -0.2743   26.3802 O   0  0  0  0  0  0  0  0  0  0  0  0
   -7.7730   -1.5329   26.2682 C   0  0  1  0  0  0  0  0  0  0  0  0
   -7.9707   -2.4143   27.2779 C   0  0  0  0  0  0  0  0  0  0  0  0
   -8.4306   -1.8290   28.4550 C   0  0  0  0  0  0  0  0  0  0  0  0
   -7.8617   -3.7118   27.2345 O   0  0  0  0  0  0  0  0  0  0  0  0
   -8.4154   -2.0743   24.9634 C   0  0  2  0  0  0  0  0  0  0  0  0
   -7.6478   -1.7631   23.8369 C   0  0  0  0  0  0  0  0  0  0  0  0
   -6.3876   -1.7345   23.8813 C   0  0  0  0  0  0  0  0  0  0  0  0
   -5.6259   -1.6014   25.1135 C   0  0  0  0  0  0  0  0  0  0  0  0
   -6.2017   -1.7472   26.0572 C   0  0  0  0  0  0  0  0  0  0  0  0
   -9.7109   -2.2994   24.9252 C   0  0  0  0  0  0  0  0  0  0  0  0
  -10.4577   -2.0748   23.9585 C   0  0  0  0  0  0  0  0  0  0  0  0
  -11.8466   -2.4050   23.9284 C   0  0  0  0  0  0  0  0  0  0  0  0
  -12.3898   -2.9657   25.0702 C   0  0  0  0  0  0  0  0  0  0  0  0
  -11.6353   -3.2129   26.1831 C   0  0  0  0  0  0  0  0  0  0  0  0
  -10.3251   -2.9107   26.1701 C   0  0  0  0  0  0  0  0  0  0  0  0
   -8.7479   -2.6181   29.6927 C   0  0  0  0  0  0  0  0  0  0  0  0
   -7.7023   -3.0491   30.4029 C   0  0  0  0  0  0  0  0  0  0  0  0
   -8.0200   -3.7759   31.6202 C   0  0  0  0  0  0  0  0  0  0  0  0
  1  2  1  0
  2  3  2  0
  1  4  1  0
  4  5  1  0
  5  6  1  0
  2  7  1  0
  6  7  1  0
  5  8  1  0
  8  9  1  0
 10  9  1  1
 10 11  1  0
 11 12  1  0
 11 13  2  0
 10 14  1  0
 14 15  1  0
 16 17  1  0
 10 18  1  0
 17 18  1  0
 14 19  1  6
 12 25  2  3
 25 26  1  0
 26 27  2  0
 15 16  1  0
 19 20  2  0
 20 21  1  0
 21 22  2  0
 22 23  1  0
 23 24  2  0
 24 19  1  0
M  END
$$$$
