No_1844-complexes_sdf/6BKW-FPZ/2024-09-17-14-21-01/
     RDKit          3D

 14 14  0  0  0  0  0  0  0  0999 V2000
   -7.7129    4.2099   27.0854 C   0  0  0  0  0  0  0  0  0  0  0  0
   -8.2112    3.0637   26.9225 C   0  0  0  0  0  0  0  0  0  0  0  0
   -7.0021    4.5281   28.2396 C   0  0  0  0  0  0  0  0  0  0  0  0
   -9.4237    2.7810   26.2714 C   0  0  0  0  0  0  0  0  0  0  0  0
   -9.9782    1.4391   26.2525 C   0  0  0  0  0  0  0  0  0  0  0  0
   -9.2622    0.4320   26.8729 C   0  0  0  0  0  0  0  0  0  0  0  0
   -8.0745    0.6657   27.5462 C   0  0  0  0  0  0  0  0  0  0  0  0
   -7.4723    1.9739   27.6189 C   0  0  0  0  0  0  0  0  0  0  0  0
   -6.6290    5.4650   28.4264 C   0  0  0  0  0  0  0  0  0  0  0  0
   -7.1882    6.7526   27.7876 C   0  0  0  0  0  0  0  0  0  0  0  0
   -8.2980    5.1952   26.4956 F   0  0  0  0  0  0  0  0  0  0  0  0
   -8.0999    6.4103   26.7189 C   0  0  0  0  0  0  0  0  0  0  0  0
   -8.6776    7.4146   26.0587 F   0  0  0  0  0  0  0  0  0  0  0  0
   -9.1422    6.7861   26.5821 F   0  0  0  0  0  0  0  0  0  0  0  0
  1  2  1  0
  1  3  2  3
  3  9  1  0
  9 10  2  3
  1 11  1  0
 10 12  1  0
 12 13  1  0
 12 14  1  0
  2  4  2  0
  4  5  1  0
  5  6  2  0
  6  7  1  0
  7  8  2  0
  8  2  1  0
M  END
$$$$
