No_1584-complexes_sdf/6BKW-FPZ/2024-09-17-14-21-01/
     RDKit          3D

 30 32  0  0  0  0  0  0  0  0999 V2000
   -7.9040    3.9820   27.1177 C   0  0  0  0  0  0  0  0  0  0  0  0
   -9.0711    4.3164   27.0630 C   0  0  0  0  0  0  0  0  0  0  0  0
   -9.5182    5.5541   27.5777 C   0  0  0  0  0  0  0  0  0  0  0  0
   -7.4468    2.6843   26.6499 C   0  0  0  0  0  0  0  0  0  0  0  0
   -8.3856    1.7878   26.2216 C   0  0  0  0  0  0  0  0  0  0  0  0
   -9.6812    2.2328   26.0889 C   0  0  0  0  0  0  0  0  0  0  0  0
  -10.0147    3.4312   26.5259 C   0  0  0  0  0  0  0  0  0  0  0  0
   -7.9132    0.4733   25.8127 C   0  0  0  0  0  0  0  0  0  0  0  0
   -7.9749    0.1125   24.6898 O   0  0  0  0  0  0  0  0  0  0  0  0
   -7.3939   -0.3555   26.7432 O   0  0  0  0  0  0  0  0  0  0  0  0
   -8.5776    6.6650   27.4664 C   0  0  0  0  0  0  0  0  0  0  0  0
   -7.8846    6.8612   26.2162 C   0  0  0  0  0  0  0  0  0  0  0  0
   -7.2324    8.1910   26.4751 C   0  0  0  0  0  0  0  0  0  0  0  0
   -7.1092   -0.2249   27.7530 C   0  0  0  0  0  0  0  0  0  0  0  0
   -5.7956   -0.8267   28.2916 C   0  0  0  0  0  0  0  0  0  0  0  0
   -5.3007   -0.5045   29.5583 C   0  0  0  0  0  0  0  0  0  0  0  0
   -4.1008   -0.3069   30.0231 C   0  0  0  0  0  0  0  0  0  0  0  0
   -3.0507   -0.7587   29.0762 C   0  0  0  0  0  0  0  0  0  0  0  0
   -3.4281   -1.0885   27.7841 C   0  0  0  0  0  0  0  0  0  0  0  0
   -4.7198   -1.0200   27.3360 C   0  0  0  0  0  0  0  0  0  0  0  0
   -3.7651   -0.0819   31.2284 F   0  0  0  0  0  0  0  0  0  0  0  0
   -2.3230   -1.3853   26.8060 C   0  0  0  0  0  0  0  0  0  0  0  0
   -2.5897   -1.1141   25.6951 O   0  0  0  0  0  0  0  0  0  0  0  0
   -1.1799   -1.6280   27.1989 O   0  0  0  0  0  0  0  0  0  0  0  0
  -10.6807    1.3451   25.4746 C   0  0  0  0  0  0  0  0  0  0  0  0
  -11.4388    1.9080   24.4445 C   0  0  0  0  0  0  0  0  0  0  0  0
  -12.2619    1.1405   23.7513 C   0  0  0  0  0  0  0  0  0  0  0  0
  -12.2805   -0.2333   24.0373 C   0  0  0  0  0  0  0  0  0  0  0  0
  -11.4810   -0.7961   24.9903 C   0  0  0  0  0  0  0  0  0  0  0  0
  -10.6381    0.0166   25.7397 C   0  0  0  0  0  0  0  0  0  0  0  0
  2  3  1  0
  5  8  1  0
  8  9  2  0
  8 10  1  0
  3 11  1  0
 11 12  1  0
 12 13  1  0
 10 14  1  0
 17 21  1  0
 19 22  1  0
 22 23  1  0
 22 24  2  0
  6 25  1  0
 14 15  1  0
 15 16  2  0
 16 17  1  0
 17 18  2  0
 18 19  1  0
 19 20  2  0
 20 15  1  0
 25 26  2  0
 26 27  1  0
 27 28  2  0
 28 29  1  0
 29 30  2  0
 30 25  1  0
  1  2  2  0
  2  7  1  0
  7  6  2  0
  6  5  1  0
  5  4  2  0
  4  1  1  0
M  END
$$$$
