No_1937-complexes_sdf/6BKW-FPZ/2024-09-17-14-21-01/
     RDKit          3D

  8  7  0  0  0  0  0  0  0  0999 V2000
   -7.7129    4.2099   27.0854 C   0  0  0  0  0  0  0  0  0  0  0  0
   -8.2112    3.0637   26.9225 C   0  0  1  0  0  0  0  0  0  0  0  0
   -8.4224    5.2106   27.8516 C   0  0  0  0  0  0  0  0  0  0  0  0
   -7.4917    1.9381   26.3986 C   0  0  0  0  0  0  0  0  0  0  0  0
   -9.7695    5.0306   28.1322 C   0  0  0  0  0  0  0  0  0  0  0  0
   -9.5975    2.7583   27.3362 C   0  0  0  0  0  0  0  0  0  0  0  0
  -10.1676    1.5100   27.0727 C   0  0  0  0  0  0  0  0  0  0  0  0
  -10.3192    3.7988   27.9268 C   0  0  0  0  0  0  0  0  0  0  0  0
  1  2  1  0
  1  3  2  3
  2  4  1  1
  3  5  1  0
  2  6  1  0
  6  7  1  0
  5  8  2  0
M  END
$$$$
