No_1698-complexes_sdf/6BKW-FPZ/2024-09-17-14-21-01/
     RDKit          3D

 20 22  0  0  0  0  0  0  0  0999 V2000
   -7.7129    4.2099   27.0854 C   0  0  0  0  0  0  0  0  0  0  0  0
   -7.7814    5.1722   27.8972 C   0  0  0  0  0  0  0  0  0  0  0  0
   -8.7889    3.2468   27.2220 C   0  0  0  0  0  0  0  0  0  0  0  0
   -9.8927    3.4443   27.8449 C   0  0  0  0  0  0  0  0  0  0  0  0
   -9.0268    5.6720   28.5154 C   0  0  0  0  0  0  0  0  0  0  0  0
  -10.0572    4.7324   28.5632 C   0  0  0  0  0  0  0  0  0  0  0  0
   -8.6008    1.8859   26.5636 C   0  0  0  0  0  0  0  0  0  0  0  0
   -7.7418    0.9323   27.1045 C   0  0  0  0  0  0  0  0  0  0  0  0
   -6.8441    1.2063   28.0988 C   0  0  0  0  0  0  0  0  0  0  0  0
   -5.8862    0.2336   28.4952 C   0  0  0  0  0  0  0  0  0  0  0  0
   -5.8934   -1.0103   27.8927 C   0  0  0  0  0  0  0  0  0  0  0  0
   -7.6258   -0.3760   26.5582 C   0  0  0  0  0  0  0  0  0  0  0  0
   -6.8010   -1.3228   26.9358 C   0  0  0  0  0  0  0  0  0  0  0  0
   -9.5122    1.5726   25.6954 O   0  0  0  0  0  0  0  0  0  0  0  0
   -4.8821   -2.0282   28.3877 C   0  0  0  0  0  0  0  0  0  0  0  0
   -3.7242   -1.9634   28.4605 C   0  0  0  0  0  0  0  0  0  0  0  0
   -2.8491   -2.8523   28.9553 C   0  0  0  0  0  0  0  0  0  0  0  0
   -3.3825   -4.0278   29.4071 C   0  0  0  0  0  0  0  0  0  0  0  0
   -5.4919   -3.2366   28.9910 C   0  0  0  0  0  0  0  0  0  0  0  0
   -4.6931   -4.2149   29.4630 C   0  0  0  0  0  0  0  0  0  0  0  0
  3  7  1  0
  7  8  1  0
  7 14  2  0
 11 15  1  0
 15 16  2  0
 16 17  1  0
 17 18  2  0
 18 20  1  0
 20 19  2  0
 19 15  1  0
  1  2  2  0
  2  5  1  0
  5  6  2  0
  6  4  1  0
  4  3  2  0
  3  1  1  0
  8  9  2  0
  9 10  1  0
 10 11  2  0
 11 13  1  0
 13 12  2  0
 12  8  1  0
M  END
$$$$
