No_1332-complexes_sdf/6BKW-FPZ/2024-09-17-14-21-01/
     RDKit          3D

 26 29  0  0  0  0  0  0  0  0999 V2000
   -7.2496    3.8871   27.4508 C   0  0  0  0  0  0  0  0  0  0  0  0
   -7.9379    4.9063   27.8518 C   0  0  0  0  0  0  0  0  0  0  0  0
   -9.3376    4.8647   27.7795 C   0  0  0  0  0  0  0  0  0  0  0  0
   -7.8544    2.6294   27.0414 C   0  0  0  0  0  0  0  0  0  0  0  0
   -9.2852    2.6570   27.0666 C   0  0  0  0  0  0  0  0  0  0  0  0
  -10.0126    3.7528   27.4890 C   0  0  0  0  0  0  0  0  0  0  0  0
  -11.4946    3.6924   27.5201 C   0  0  0  0  0  0  0  0  0  0  0  0
  -12.0181    2.6419   28.0792 C   0  0  0  0  0  0  0  0  0  0  0  0
  -13.4558    2.4682   28.2693 C   0  0  0  0  0  0  0  0  0  0  0  0
  -14.2214    3.5827   27.8675 C   0  0  0  0  0  0  0  0  0  0  0  0
  -13.6463    4.6925   27.3441 C   0  0  0  0  0  0  0  0  0  0  0  0
  -12.2538    4.8357   27.2257 C   0  0  0  0  0  0  0  0  0  0  0  0
   -6.8348    1.3438   26.6679 Cl  0  0  0  0  0  0  0  0  0  0  0  0
   -7.3031    6.0155   28.1648 F   0  0  0  0  0  0  0  0  0  0  0  0
  -14.0257    1.2439   28.8218 C   0  0  0  0  0  0  0  0  0  0  0  0
  -13.8774    0.9568   30.1015 C   0  0  0  0  0  0  0  0  0  0  0  0
  -14.6536    0.3734   27.8918 C   0  0  0  0  0  0  0  0  0  0  0  0
  -14.4933   -0.6762   27.7623 C   0  0  0  0  0  0  0  0  0  0  0  0
  -14.0147   -0.5268   30.3827 C   0  0  0  0  0  0  0  0  0  0  0  0
  -14.3559   -1.3518   29.2687 C   0  0  0  0  0  0  0  0  0  0  0  0
  -14.5636   -2.7947   29.4646 C   0  0  0  0  0  0  0  0  0  0  0  0
  -14.5596   -3.5382   28.6694 C   0  0  0  0  0  0  0  0  0  0  0  0
  -14.8805   -4.9640   28.8845 C   0  0  0  0  0  0  0  0  0  0  0  0
  -15.0987   -5.3429   30.2114 C   0  0  0  0  0  0  0  0  0  0  0  0
  -15.0565   -4.4156   31.1897 C   0  0  0  0  0  0  0  0  0  0  0  0
  -14.7940   -3.0555   30.9364 C   0  0  0  0  0  0  0  0  0  0  0  0
  6  7  1  0
  4 13  1  0
  2 14  1  0
  9 15  1  0
 20 21  1  0
 21 22  2  0
 22 23  1  0
 23 24  2  0
 24 25  1  0
 25 26  2  0
 26 21  1  0
  1  2  2  0
  2  3  1  0
  3  6  2  0
  6  5  1  0
  5  4  2  0
  4  1  1  0
  7  8  2  0
  8  9  1  0
  9 10  2  0
 10 11  1  0
 11 12  2  0
 12  7  1  0
 15 16  2  0
 16 19  1  0
 19 20  2  0
 20 18  1  0
 18 17  2  0
 17 15  1  0
M  END
$$$$
