No_1862-complexes_sdf/6BKW-FPZ/2024-09-17-14-21-01/
     RDKit          3D

 40 45  0  0  0  0  0  0  0  0999 V2000
   -7.9040    3.9820   27.1177 C   0  0  0  0  0  0  0  0  0  0  0  0
   -9.0711    4.3164   27.0630 C   0  0  0  0  0  0  0  0  0  0  0  0
   -9.5182    5.5541   27.5777 C   0  0  0  0  0  0  0  0  0  0  0  0
   -6.9424    4.7983   27.8424 C   0  0  0  0  0  0  0  0  0  0  0  0
   -7.3526    5.9739   28.3909 C   0  0  0  0  0  0  0  0  0  0  0  0
   -8.6479    6.3742   28.2169 C   0  0  0  0  0  0  0  0  0  0  0  0
  -10.0793    3.4689   26.3368 C   0  0  0  0  0  0  0  0  0  0  0  0
  -10.8066    3.4472   25.6317 C   0  0  0  0  0  0  0  0  0  0  0  0
  -11.1209    4.7431   24.8557 C   0  0  0  0  0  0  0  0  0  0  0  0
  -11.9511    4.7343   23.6725 C   0  0  0  0  0  0  0  0  0  0  0  0
  -12.7021    3.6092   23.4406 C   0  0  0  0  0  0  0  0  0  0  0  0
  -12.5484    2.4682   24.1448 C   0  0  0  0  0  0  0  0  0  0  0  0
  -11.6437    2.3862   25.1080 C   0  0  0  0  0  0  0  0  0  0  0  0
   -9.7592    1.9793   26.8546 C   0  0  0  0  0  0  0  0  0  0  0  0
  -10.6303    1.1488   26.9761 C   0  0  0  0  0  0  0  0  0  0  0  0
  -11.5683    1.1578   25.8327 C   0  0  0  0  0  0  0  0  0  0  0  0
  -12.3985    0.0172   25.5986 C   0  0  0  0  0  0  0  0  0  0  0  0
  -12.3087   -1.1820   26.4277 C   0  0  0  0  0  0  0  0  0  0  0  0
  -11.4540   -1.0810   27.4635 C   0  0  0  0  0  0  0  0  0  0  0  0
  -10.5231   -0.0667   27.7544 C   0  0  0  0  0  0  0  0  0  0  0  0
  -11.3442   -2.3100   28.4203 C   0  0  0  0  0  0  0  0  0  0  0  0
  -12.0065   -2.5335   29.2331 C   0  0  0  0  0  0  0  0  0  0  0  0
  -11.8648   -3.5533   30.2158 C   0  0  0  0  0  0  0  0  0  0  0  0
  -10.1851   -3.1328   28.1661 C   0  0  0  0  0  0  0  0  0  0  0  0
   -9.9197   -4.1614   29.0272 C   0  0  0  0  0  0  0  0  0  0  0  0
  -10.7917   -4.3821   30.0839 C   0  0  0  0  0  0  0  0  0  0  0  0
  -10.6295   -5.4571   30.9847 N   0  0  0  0  0  0  0  0  0  0  0  0
  -10.0841   -5.1829   32.1579 C   0  0  0  0  0  0  0  0  0  0  0  0
   -9.6636   -3.9551   32.5515 C   0  0  0  0  0  0  0  0  0  0  0  0
   -8.8527   -3.4814   33.0123 C   0  0  0  0  0  0  0  0  0  0  0  0
   -7.8774   -2.7282   32.8825 C   0  0  0  0  0  0  0  0  0  0  0  0
   -6.4817   -2.9828   32.7721 C   0  0  0  0  0  0  0  0  0  0  0  0
   -5.4897   -2.0059   32.4858 C   0  0  0  0  0  0  0  0  0  0  0  0
   -5.8377   -0.6670   32.5393 C   0  0  0  0  0  0  0  0  0  0  0  0
   -4.7790    0.2763   32.2786 C   0  0  0  0  0  0  0  0  0  0  0  0
   -3.5334   -0.1431   31.8356 C   0  0  0  0  0  0  0  0  0  0  0  0
   -3.1483   -1.4358   31.7562 C   0  0  0  0  0  0  0  0  0  0  0  0
   -4.1999   -2.3676   32.0810 C   0  0  0  0  0  0  0  0  0  0  0  0
  -11.0047   -6.6764   30.4747 C   0  0  0  0  0  0  0  0  0  0  0  0
   -9.8897   -6.3211   33.0686 C   0  0  0  0  0  0  0  0  0  0  0  0
  2  7  1  0
 19 21  1  0
 26 27  1  0
 27 28  1  0
 28 29  2  3
 29 30  1  0
 30 31  2  3
 31 32  1  0
 27 39  1  0
 28 40  1  0
 32 33  1  0
 16 17  2  0
 17 18  1  0
 18 19  2  0
 19 20  1  0
 20 15  2  0
  1  2  2  0
  2  3  1  0
  3  6  2  0
  6  5  1  0
  5  4  2  0
  4  1  1  0
 33 34  2  0
 34 35  1  0
 35 36  2  0
 36 37  1  0
 37 38  2  0
 38 33  1  0
 21 22  2  0
 22 23  1  0
 23 26  2  0
 26 25  1  0
 25 24  2  0
 24 21  1  0
  7  8  1  0
 13 16  1  0
 16 15  1  0
 15 14  1  0
 14  7  2  0
  8  9  2  0
  9 10  1  0
 10 11  2  0
 11 12  1  0
 12 13  2  0
 13  8  1  0
M  END
$$$$
