No_1666-complexes_sdf/6BKW-FPZ/2024-09-17-14-21-01/
     RDKit          3D

 29 32  0  0  0  0  0  0  0  0999 V2000
   -7.9040    3.9820   27.1177 C   0  0  0  0  0  0  0  0  0  0  0  0
   -9.0711    4.3164   27.0630 C   0  0  0  0  0  0  0  0  0  0  0  0
   -9.5294    5.4517   27.7215 C   0  0  0  0  0  0  0  0  0  0  0  0
   -7.4336    2.7132   26.5681 C   0  0  0  0  0  0  0  0  0  0  0  0
   -8.3353    1.8569   26.0442 C   0  0  0  0  0  0  0  0  0  0  0  0
   -9.6477    2.2853   25.9146 C   0  0  0  0  0  0  0  0  0  0  0  0
  -10.0346    3.4497   26.4483 C   0  0  0  0  0  0  0  0  0  0  0  0
   -7.8608    0.5626   25.5840 C   0  0  0  0  0  0  0  0  0  0  0  0
   -8.2927    0.2179   24.4935 O   0  0  0  0  0  0  0  0  0  0  0  0
   -7.1034   -0.1513   26.3489 O   0  0  0  0  0  0  0  0  0  0  0  0
   -6.8768    4.6104   27.8053 F   0  0  0  0  0  0  0  0  0  0  0  0
   -7.2129   -1.2879   26.6798 C   0  0  2  0  0  0  0  0  0  0  0  0
   -6.7194   -1.6246   27.8479 C   0  0  0  0  0  0  0  0  0  0  0  0
   -5.8806   -2.2966   28.4032 C   0  0  0  0  0  0  0  0  0  0  0  0
   -5.5002   -2.4036   29.8245 C   0  0  0  0  0  0  0  0  0  0  0  0
   -6.1803   -1.5606   30.7038 C   0  0  0  0  0  0  0  0  0  0  0  0
   -5.8331   -1.5683   32.1178 C   0  0  0  0  0  0  0  0  0  0  0  0
   -6.4515   -0.7518   33.0170 C   0  0  0  0  0  0  0  0  0  0  0  0
   -4.7426   -2.4555   32.5449 C   0  0  0  0  0  0  0  0  0  0  0  0
   -4.0960   -3.2761   31.6038 C   0  0  0  0  0  0  0  0  0  0  0  0
   -4.4587   -3.1784   30.3062 C   0  0  0  0  0  0  0  0  0  0  0  0
   -5.0883   -3.0978   27.4692 C   0  0  0  0  0  0  0  0  0  0  0  0
   -4.2262   -3.6459   27.2853 C   0  0  0  0  0  0  0  0  0  0  0  0
   -3.3614   -4.0271   26.4968 C   0  0  0  0  0  0  0  0  0  0  0  0
   -3.8125   -3.7437   25.1306 C   0  0  0  0  0  0  0  0  0  0  0  0
   -4.9402   -2.9985   24.9391 C   0  0  0  0  0  0  0  0  0  0  0  0
   -5.5820   -2.5077   26.0761 C   0  0  0  0  0  0  0  0  0  0  0  0
   -6.6392   -1.7810   25.9426 N   0  0  0  0  0  0  0  0  0  0  0  0
   -6.9000   -1.8457   24.5041 C   0  0  0  0  0  0  0  0  0  0  0  0
  5  8  1  0
  8  9  2  0
  8 10  1  0
  1 11  1  0
 12 10  1  6
 13 14  1  0
 17 18  1  0
 14 22  1  0
 12 28  1  0
 27 28  1  0
 28 29  1  0
 14 15  1  0
  3  2  1  0
 12 13  1  0
 22 23  2  0
 23 24  1  0
 24 25  2  0
 25 26  1  0
 26 27  2  0
 27 22  1  0
  1  2  2  0
  2  7  1  0
  7  6  2  0
  6  5  1  0
  5  4  2  0
  4  1  1  0
 15 16  2  0
 16 17  1  0
 17 19  2  0
 19 20  1  0
 20 21  2  0
 21 15  1  0
M  END
$$$$
