No_1266-complexes_sdf/6BKW-FPZ/2024-09-17-14-21-01/
     RDKit          3D

 25 27  0  0  0  0  0  0  0  0999 V2000
   -7.9040    3.9820   27.1177 C   0  0  0  0  0  0  0  0  0  0  0  0
   -9.0711    4.3164   27.0630 C   0  0  0  0  0  0  0  0  0  0  0  0
   -9.9692    3.7224   26.1073 C   0  0  0  0  0  0  0  0  0  0  0  0
   -6.9787    4.6761   28.1003 C   0  0  0  0  0  0  0  0  0  0  0  0
   -9.4538    2.6801   25.3673 C   0  0  0  0  0  0  0  0  0  0  0  0
   -8.1927    2.1957   25.6621 C   0  0  0  0  0  0  0  0  0  0  0  0
   -7.4333    2.8255   26.6299 C   0  0  0  0  0  0  0  0  0  0  0  0
  -10.3181    2.0008   24.3846 C   0  0  0  0  0  0  0  0  0  0  0  0
   -9.7183    1.2105   23.5031 C   0  0  0  0  0  0  0  0  0  0  0  0
  -10.4449    0.6689   22.4496 C   0  0  0  0  0  0  0  0  0  0  0  0
  -11.8038    0.9417   22.3133 C   0  0  0  0  0  0  0  0  0  0  0  0
  -11.6370    2.3180   24.1156 C   0  0  0  0  0  0  0  0  0  0  0  0
  -12.3653    1.8142   23.1543 C   0  0  0  0  0  0  0  0  0  0  0  0
   -7.4888    5.7991   28.6593 N   0  0  0  0  0  0  0  0  0  0  0  0
   -5.8197    4.3145   28.2856 O   0  0  0  0  0  0  0  0  0  0  0  0
  -12.5631    0.2986   21.1840 C   0  0  0  0  0  0  0  0  0  0  0  0
  -12.0364   -0.4042   20.3232 C   0  0  0  0  0  0  0  0  0  0  0  0
  -10.5339   -0.7099   20.4208 C   0  0  0  0  0  0  0  0  0  0  0  0
   -9.7752   -0.1965   21.4506 C   0  0  0  0  0  0  0  0  0  0  0  0
  -12.6573   -1.0897   19.1933 C   0  0  0  0  0  0  0  0  0  0  0  0
  -13.8320   -1.2110   19.0757 F   0  0  0  0  0  0  0  0  0  0  0  0
  -12.0275   -2.3170   18.8567 F   0  0  0  0  0  0  0  0  0  0  0  0
  -12.2348   -0.2967   18.0608 F   0  0  0  0  0  0  0  0  0  0  0  0
  -13.8007    2.1628   23.0732 C   0  0  0  0  0  0  0  0  0  0  0  0
  -14.3594    2.8110   23.7762 N   0  0  0  0  0  0  0  0  0  0  0  0
  1  4  1  0
  5  8  1  0
  4 14  1  0
  4 15  2  0
 17 20  1  0
 20 21  1  0
 20 22  1  0
 20 23  1  0
 13 24  1  0
 24 25  2  0
 11 16  2  0
 16 17  1  0
 17 18  2  0
 18 19  1  0
 19 10  2  0
  8  9  2  0
  9 10  1  0
 10 11  1  0
 11 13  1  0
 13 12  2  0
 12  8  1  0
  1  2  2  0
  2  3  1  0
  3  5  2  0
  5  6  1  0
  6  7  2  0
  7  1  1  0
M  END
$$$$
