No_1620-complexes_sdf/6BKW-FPZ/2024-09-17-14-21-01/
     RDKit          3D

 14 15  0  0  0  0  0  0  0  0999 V2000
   -7.7129    4.2099   27.0854 C   0  0  0  0  0  0  0  0  0  0  0  0
   -7.7814    5.1722   27.8972 C   0  0  0  0  0  0  0  0  0  0  0  0
   -8.8776    3.8408   26.3416 C   0  0  0  0  0  0  0  0  0  0  0  0
   -9.9844    4.6492   26.4743 C   0  0  0  0  0  0  0  0  0  0  0  0
   -8.7830    6.1594   27.8870 C   0  0  0  0  0  0  0  0  0  0  0  0
   -9.9269    5.8191   27.1183 C   0  0  0  0  0  0  0  0  0  0  0  0
   -8.8618    2.6242   25.5633 C   0  0  2  0  0  0  0  0  0  0  0  0
   -9.6825    2.5249   24.5651 N   0  0  0  0  0  0  0  0  0  0  0  0
   -9.6895    1.4920   23.7145 C   0  0  2  0  0  0  0  0  0  0  0  0
   -8.8283    1.4282   26.3025 C   0  0  2  0  0  0  0  0  0  0  0  0
   -8.1144    1.3698   27.5923 C   0  0  0  0  0  0  0  0  0  0  0  0
   -8.8618    0.1959   25.5842 C   0  0  0  0  0  0  0  0  0  0  0  0
   -9.3623    0.2793   24.2841 C   0  0  0  0  0  0  0  0  0  0  0  0
   -9.7735    1.7119   22.5459 F   0  0  0  0  0  0  0  0  0  0  0  0
  7  3  1  1
  7  8  1  0
  8  9  1  0
  7 10  1  0
 10 11  1  6
 10 12  1  0
  9 13  1  0
 12 13  1  0
  9 14  1  6
  1  2  2  0
  2  5  1  0
  5  6  2  0
  6  4  1  0
  4  3  2  0
  3  1  1  0
M  END
$$$$
