No_1412-complexes_sdf/6BKW-FPZ/2024-09-17-14-21-01/
     RDKit          3D

 22 24  0  0  0  0  0  0  0  0999 V2000
   -7.7129    4.2099   27.0854 C   0  0  0  0  0  0  0  0  0  0  0  0
   -7.7814    5.1722   27.8972 C   0  0  0  0  0  0  0  0  0  0  0  0
   -8.8776    3.8408   26.3416 C   0  0  0  0  0  0  0  0  0  0  0  0
   -8.9136    2.6330   25.5655 C   0  0  0  0  0  0  0  0  0  0  0  0
   -8.8361    6.1389   27.9032 C   0  0  0  0  0  0  0  0  0  0  0  0
   -9.9718    4.7048   26.3433 C   0  0  0  0  0  0  0  0  0  0  0  0
   -9.9205    5.8499   27.1013 C   0  0  0  0  0  0  0  0  0  0  0  0
   -8.2849    1.4838   26.1651 C   0  0  0  0  0  0  0  0  0  0  0  0
   -8.3165    0.2563   25.5490 C   0  0  0  0  0  0  0  0  0  0  0  0
   -8.8787    0.2248   24.2875 C   0  0  0  0  0  0  0  0  0  0  0  0
   -9.4553    2.4575   24.3554 C   0  0  0  0  0  0  0  0  0  0  0  0
   -9.4430    1.2865   23.6894 C   0  0  0  0  0  0  0  0  0  0  0  0
   -6.4069    5.6964   28.8700 Cl  0  0  0  0  0  0  0  0  0  0  0  0
  -10.0401    1.2011   22.3433 C   0  0  0  0  0  0  0  0  0  0  0  0
   -9.8807    0.1742   21.6239 N   0  0  0  0  0  0  0  0  0  0  0  0
  -10.5750   -0.0243   20.4821 C   0  0  0  0  0  0  0  0  0  0  0  0
  -10.4598   -1.2691   19.7983 C   0  0  0  0  0  0  0  0  0  0  0  0
  -11.1796   -1.5389   18.7076 C   0  0  0  0  0  0  0  0  0  0  0  0
  -10.9716   -2.7424   17.9741 C   0  0  0  0  0  0  0  0  0  0  0  0
  -10.0277   -3.6497   18.4792 C   0  0  0  0  0  0  0  0  0  0  0  0
   -9.2857   -3.3926   19.5653 C   0  0  0  0  0  0  0  0  0  0  0  0
   -9.4464   -2.1345   20.2297 C   0  0  0  0  0  0  0  0  0  0  0  0
  3  4  1  0
  2 13  1  0
 12 14  1  0
 14 15  2  3
 15 16  1  0
 16 17  1  0
 17 18  2  0
 18 19  1  0
 19 20  2  0
 20 21  1  0
 21 22  2  0
 22 17  1  0
  4  8  2  0
  8  9  1  0
  9 10  2  0
 10 12  1  0
 12 11  2  0
 11  4  1  0
  1  2  2  0
  2  5  1  0
  5  7  2  0
  7  6  1  0
  6  3  2  0
  3  1  1  0
M  END
$$$$
