No_1313-complexes_sdf/6BKW-FPZ/2024-09-17-14-21-01/
     RDKit          3D

 10 11  0  0  0  0  0  0  0  0999 V2000
   -7.9040    3.9820   27.1177 C   0  0  0  0  0  0  0  0  0  0  0  0
   -9.0711    4.3164   27.0630 C   0  0  0  0  0  0  0  0  0  0  0  0
   -9.9692    3.7224   26.1073 C   0  0  0  0  0  0  0  0  0  0  0  0
   -7.4776    2.6994   26.6283 C   0  0  0  0  0  0  0  0  0  0  0  0
   -8.4406    1.9440   25.9776 C   0  0  0  0  0  0  0  0  0  0  0  0
   -9.6379    2.5001   25.6881 C   0  0  0  0  0  0  0  0  0  0  0  0
   -6.9822    4.6399   27.9629 N   0  0  0  0  0  0  0  0  0  0  0  0
  -10.8538    1.5317   24.6106 Br  0  0  0  0  0  0  0  0  0  0  0  0
   -7.5535    5.8390   28.3938 C   0  0  0  0  0  0  0  0  0  0  0  0
   -8.8518    5.7676   27.7864 N   0  0  0  0  0  0  0  0  0  0  0  0
  1  7  1  0
  6  8  1  0
  7  9  2  0
  2 10  1  0
  9 10  1  0
  1  2  1  0
  2  3  2  0
  3  6  1  0
  6  5  2  0
  5  4  1  0
  4  1  2  0
M  END
$$$$
