No_1949-complexes_sdf/6BKW-FPZ/2024-09-17-14-21-01/
     RDKit          3D

 18 19  0  0  0  0  0  0  0  0999 V2000
   -7.9040    3.9820   27.1177 C   0  0  0  0  0  0  0  0  0  0  0  0
   -7.8663    4.8694   27.9238 C   0  0  0  0  0  0  0  0  0  0  0  0
   -9.0491    3.8523   26.2542 C   0  0  0  0  0  0  0  0  0  0  0  0
   -8.7661    5.9491   27.9690 C   0  0  0  0  0  0  0  0  0  0  0  0
   -9.9295    4.8502   26.2323 C   0  0  0  0  0  0  0  0  0  0  0  0
   -9.8077    5.9288   27.0933 C   0  0  0  0  0  0  0  0  0  0  0  0
   -7.0146    2.9513   27.1368 F   0  0  0  0  0  0  0  0  0  0  0  0
   -9.1015    2.7190   25.2776 C   0  0  0  0  0  0  0  0  0  0  0  0
   -8.8197    1.4888   25.6743 C   0  0  0  0  0  0  0  0  0  0  0  0
   -8.9471    0.4198   24.7509 C   0  0  0  0  0  0  0  0  0  0  0  0
   -9.4367    0.7498   23.4564 C   0  0  0  0  0  0  0  0  0  0  0  0
   -9.7884    2.0548   23.1002 C   0  0  0  0  0  0  0  0  0  0  0  0
   -9.6462    3.0433   24.0323 C   0  0  0  0  0  0  0  0  0  0  0  0
   -9.5953   -0.3435   22.4246 C   0  0  0  0  0  0  0  0  0  0  0  0
   -8.6145   -0.9883   22.0529 N   0  0  0  0  0  0  0  0  0  0  0  0
   -8.7607   -1.9467   21.0279 C   0  0  0  0  0  0  0  0  0  0  0  0
   -7.6386   -2.6700   20.5570 C   0  0  0  0  0  0  0  0  0  0  0  0
   -7.6648   -3.4524   19.4468 C   0  0  0  0  0  0  0  0  0  0  0  0
  1  7  1  0
  3  8  1  0
 11 14  1  0
 14 15  2  3
 15 16  1  0
 16 17  2  3
 17 18  1  0
  1  2  2  0
  2  4  1  0
  4  6  2  0
  6  5  1  0
  5  3  2  0
  3  1  1  0
  8  9  2  0
  9 10  1  0
 10 11  2  0
 11 12  1  0
 12 13  2  0
 13  8  1  0
M  END
$$$$
