No_1389-complexes_sdf/6BKW-FPZ/2024-09-17-14-21-01/
     RDKit          3D

 16 18  0  0  0  0  0  0  0  0999 V2000
   -7.9040    3.9820   27.1177 C   0  0  0  0  0  0  0  0  0  0  0  0
   -9.0711    4.3164   27.0630 C   0  0  0  0  0  0  0  0  0  0  0  0
   -9.5182    5.5541   27.5777 C   0  0  0  0  0  0  0  0  0  0  0  0
   -6.9424    4.7983   27.8424 C   0  0  0  0  0  0  0  0  0  0  0  0
   -7.3526    5.9739   28.3909 C   0  0  0  0  0  0  0  0  0  0  0  0
   -8.6479    6.3742   28.2170 C   0  0  0  0  0  0  0  0  0  0  0  0
  -10.0793    3.4689   26.3368 C   0  0  0  0  0  0  0  0  0  0  0  0
  -10.8066    3.4472   25.6317 C   0  0  0  0  0  0  0  0  0  0  0  0
  -11.5555    2.3860   24.9819 C   0  0  0  0  0  0  0  0  0  0  0  0
  -11.1719    1.1467   25.4068 C   0  0  0  0  0  0  0  0  0  0  0  0
   -9.8485    1.8142   26.5475 C   0  0  2  0  0  0  0  0  0  0  0  0
  -10.0797    1.2333   27.7963 C   0  0  0  0  0  0  0  0  0  0  0  0
   -8.5814    1.2383   25.9222 C   0  0  0  0  0  0  0  0  0  0  0  0
   -8.8214    0.4199   24.8953 C   0  0  0  0  0  0  0  0  0  0  0  0
  -10.0573    0.6120   24.1186 C   0  0  0  0  0  0  0  0  0  0  0  0
  -11.0352    0.2086   27.9420 C   0  0  0  0  0  0  0  0  0  0  0  0
  2  7  1  0
  7  8  2  0
  8  9  1  0
  9 10  2  0
  7 11  1  0
 10 11  1  0
 11 12  1  1
 11 13  1  0
 13 14  2  0
 10 15  1  0
 14 15  1  0
 12 16  2  0
  1  2  2  0
  2  3  1  0
  3  6  2  0
  6  5  1  0
  5  4  2  0
  4  1  1  0
M  END
$$$$
