No_1117-complexes_sdf/6BKW-FPZ/2024-09-17-14-21-01/
     RDKit          3D

 12 12  0  0  0  0  0  0  0  0999 V2000
   -7.7129    4.2099   27.0854 C   0  0  0  0  0  0  0  0  0  0  0  0
   -7.7814    5.1722   27.8972 C   0  0  0  0  0  0  0  0  0  0  0  0
   -7.3155    2.9699   27.6145 C   0  0  0  0  0  0  0  0  0  0  0  0
   -7.6814    1.8188   26.9581 C   0  0  0  0  0  0  0  0  0  0  0  0
   -7.2010    0.5770   27.3247 C   0  0  0  0  0  0  0  0  0  0  0  0
   -5.9696    0.6081   28.0083 C   0  0  0  0  0  0  0  0  0  0  0  0
   -5.3946   -0.6751   28.4441 C   0  0  0  0  0  0  0  0  0  0  0  0
   -6.2228   -1.7493   28.2621 C   0  0  0  0  0  0  0  0  0  0  0  0
   -7.3885   -1.7382   27.6201 C   0  0  0  0  0  0  0  0  0  0  0  0
   -7.9115   -0.5319   27.1563 C   0  0  0  0  0  0  0  0  0  0  0  0
   -8.4152    6.4056   27.5759 C   0  0  0  0  0  0  0  0  0  0  0  0
   -8.9230    6.5862   26.2111 C   0  0  0  0  0  0  0  0  0  0  0  0
  1  2  1  0
  1  3  2  3
  3  4  1  0
  2 11  2  3
 11 12  1  0
  4  5  1  0
  5  6  2  0
  6  7  1  0
  7  8  2  0
  8  9  1  0
  9 10  2  0
 10  5  1  0
M  END
$$$$
