No_1482-complexes_sdf/6BKW-FPZ/2024-09-17-14-21-01/
     RDKit          3D

 15 16  0  0  0  0  0  0  0  0999 V2000
   -7.7129    4.2099   27.0854 C   0  0  0  0  0  0  0  0  0  0  0  0
   -7.7814    5.1722   27.8972 C   0  0  0  0  0  0  0  0  0  0  0  0
   -8.8998    3.8713   26.3707 C   0  0  0  0  0  0  0  0  0  0  0  0
   -8.9563    2.6796   25.5490 C   0  0  0  0  0  0  0  0  0  0  0  0
   -8.8131    6.1334   27.9344 C   0  0  0  0  0  0  0  0  0  0  0  0
   -9.9804    5.8121   27.1929 C   0  0  0  0  0  0  0  0  0  0  0  0
   -9.9861    4.6836   26.4532 C   0  0  0  0  0  0  0  0  0  0  0  0
   -8.3398    1.5722   26.0349 N   0  0  0  0  0  0  0  0  0  0  0  0
   -7.7787    1.5359   27.1749 C   0  0  0  0  0  0  0  0  0  0  0  0
   -8.4532    0.3882   25.1959 C   0  0  0  0  0  0  0  0  0  0  0  0
   -7.0431    0.2117   27.5143 C   0  0  0  0  0  0  0  0  0  0  0  0
   -7.7625   -0.7361   25.5026 C   0  0  0  0  0  0  0  0  0  0  0  0
   -7.0710   -0.8074   26.7182 C   0  0  0  0  0  0  0  0  0  0  0  0
   -9.6185    2.6592   24.5077 O   0  0  0  0  0  0  0  0  0  0  0  0
   -6.6840    5.5612   28.6534 O   0  0  0  0  0  0  0  0  0  0  0  0
  3  4  1  0
  4  8  1  0
  8  9  1  0
  8 10  1  0
 11 13  1  0
 12 13  1  0
  4 14  2  0
  2 15  1  0
  9 11  1  0
 12 10  1  0
  1  2  2  0
  2  5  1  0
  5  6  2  0
  6  7  1  0
  7  3  2  0
  3  1  1  0
M  END
$$$$
