No_1896-complexes_sdf/6BKW-FPZ/2024-09-17-14-21-01/
     RDKit          3D

 18 20  0  0  0  0  0  0  0  0999 V2000
   -7.7129    4.2099   27.0854 C   0  0  0  0  0  0  0  0  0  0  0  0
   -8.2112    3.0637   26.9225 C   0  0  0  0  0  0  0  0  0  0  0  0
   -8.5108    5.3904   26.9436 C   0  0  0  0  0  0  0  0  0  0  0  0
   -9.7256    5.1955   26.3518 C   0  0  0  0  0  0  0  0  0  0  0  0
   -9.4995    2.8258   26.4878 C   0  0  0  0  0  0  0  0  0  0  0  0
  -10.2542    3.9691   26.2055 C   0  0  0  0  0  0  0  0  0  0  0  0
   -7.9435    6.6171   27.1653 N   0  0  0  0  0  0  0  0  0  0  0  0
   -7.3694    1.8186   27.2504 C   0  0  0  0  0  0  0  0  0  0  0  0
   -7.7985    0.5308   27.0866 C   0  0  0  0  0  0  0  0  0  0  0  0
   -6.9151   -0.4741   27.3124 C   0  0  0  0  0  0  0  0  0  0  0  0
   -5.6223   -0.2071   27.8270 C   0  0  0  0  0  0  0  0  0  0  0  0
   -5.2185    1.1066   28.0385 C   0  0  0  0  0  0  0  0  0  0  0  0
   -5.9962    2.1037   27.7337 C   0  0  0  0  0  0  0  0  0  0  0  0
   -8.5559    7.8138   26.7234 C   0  0  0  0  0  0  0  0  0  0  0  0
   -4.7151   -1.3392   28.1835 C   0  0  0  0  0  0  0  0  0  0  0  0
   -3.6149   -1.1150   28.4061 C   0  0  0  0  0  0  0  0  0  0  0  0
   -3.0439    0.2777   28.6406 C   0  0  0  0  0  0  0  0  0  0  0  0
   -3.8461    1.3554   28.3890 C   0  0  0  0  0  0  0  0  0  0  0  0
  3  7  1  0
  2  8  1  0
  7 14  1  0
 12 18  1  0
 18 17  2  0
 17 16  1  0
 16 15  2  0
 15 11  1  0
  8  9  2  0
  9 10  1  0
 10 11  2  0
 11 12  1  0
 12 13  2  0
 13  8  1  0
  1  2  2  0
  2  5  1  0
  5  6  2  0
  6  4  1  0
  4  3  2  0
  3  1  1  0
M  END
$$$$
