No_168-complexes_sdf/6BKW-FPZ/2024-09-17-14-21-01/
     RDKit          3D

 37 44  0  0  0  0  0  0  0  0999 V2000
   -7.7129    4.2099   27.0854 C   0  0  2  0  0  0  0  0  0  0  0  0
   -7.7814    5.1722   27.8972 C   0  0  0  0  0  0  0  0  0  0  0  0
   -8.8998    3.8713   26.3707 C   0  0  2  0  0  0  0  0  0  0  0  0
   -9.1401    2.5906   25.9433 C   0  0  0  0  0  0  0  0  0  0  0  0
   -8.7502    6.2483   27.7275 C   0  0  0  0  0  0  0  0  0  0  0  0
  -10.0339    2.3357   24.9097 C   0  0  0  0  0  0  0  0  0  0  0  0
  -10.7478    3.4936   24.4302 C   0  0  0  0  0  0  0  0  0  0  0  0
  -10.4101    4.7846   24.8361 C   0  0  0  0  0  0  0  0  0  0  0  0
   -9.4051    4.9704   25.7769 C   0  0  1  0  0  0  0  0  0  0  0  0
   -9.5992    6.1568   26.6221 C   0  0  0  0  0  0  0  0  0  0  0  0
   -6.9150    3.0032   27.6415 C   0  0  0  0  0  0  0  0  0  0  0  0
   -7.0924    1.6868   27.1525 C   0  0  0  0  0  0  0  0  0  0  0  0
   -8.2497    1.4669   26.2530 C   0  0  1  0  0  0  0  0  0  0  0  0
   -6.2668    0.6242   27.5647 C   0  0  0  0  0  0  0  0  0  0  0  0
   -5.0252    0.8738   28.2272 C   0  0  0  0  0  0  0  0  0  0  0  0
   -4.2012   -0.1622   28.6930 C   0  0  0  0  0  0  0  0  0  0  0  0
   -4.6269   -1.4266   28.6014 C   0  0  0  0  0  0  0  0  0  0  0  0
   -6.5590   -0.7112   27.7376 C   0  0  1  0  0  0  0  0  0  0  0  0
   -7.9512   -1.0091   27.1880 C   0  0  0  0  0  0  0  0  0  0  0  0
   -5.8425   -1.6957   28.2048 C   0  0  0  0  0  0  0  0  0  0  0  0
   -8.6513    0.0621   26.4159 C   0  0  0  0  0  0  0  0  0  0  0  0
   -2.9531    0.2782   29.1890 O   0  0  0  0  0  0  0  0  0  0  0  0
   -9.9450   -0.3564   25.8085 C   0  0  0  0  0  0  0  0  0  0  0  0
  -10.7774    0.1201   25.3347 C   0  0  0  0  0  0  0  0  0  0  0  0
  -10.8306    1.4521   24.8361 C   0  0  2  0  0  0  0  0  0  0  0  0
  -12.0767    1.5934   24.0358 C   0  0  1  0  0  0  0  0  0  0  0  0
  -11.8792    3.1452   23.6415 C   0  0  1  0  0  0  0  0  0  0  0  0
  -12.9982    0.7921   23.4320 C   0  0  0  0  0  0  0  0  0  0  0  0
  -12.8980    0.3641   22.4198 C   0  0  0  0  0  0  0  0  0  0  0  0
  -11.8308    0.7668   21.4586 C   0  0  0  0  0  0  0  0  0  0  0  0
  -11.0537    0.2026   20.9497 C   0  0  0  0  0  0  0  0  0  0  0  0
   -9.9994    0.1155   20.6131 C   0  0  0  0  0  0  0  0  0  0  0  0
  -12.7261    3.8687   22.8705 C   0  0  0  0  0  0  0  0  0  0  0  0
  -13.8223   -0.6394   21.8702 C   0  0  0  0  0  0  0  0  0  0  0  0
  -14.7374   -1.0212   22.4901 C   0  0  0  0  0  0  0  0  0  0  0  0
  -13.9223    0.4088   24.4723 C   0  0  0  0  0  0  0  0  0  0  0  0
  -14.9239   -0.5547   23.9316 C   0  0  0  0  0  0  0  0  0  0  0  0
  1  2  1  1
  1  3  1  0
  3  4  1  6
  2  5  2  0
  4  6  2  0
  6  7  1  0
  7  8  2  0
  3  9  1  0
  8  9  1  0
  5 10  1  0
  9 10  1  1
  1 11  1  0
 11 12  2  0
  4 13  1  0
 13 12  1  1
 12 14  1  0
 14 15  2  0
 15 16  1  0
 16 17  2  0
 14 18  1  0
 18 19  1  0
 17 20  1  0
 18 20  1  6
 13 21  1  0
 19 21  2  0
 16 22  1  0
 21 23  1  0
 23 24  2  0
  6 25  1  0
 25 24  1  6
 25 26  1  0
  7 27  1  0
 26 27  1  0
 26 28  1  6
 28 29  2  0
 29 30  1  0
 30 31  2  3
 31 32  1  0
 27 33  1  1
 29 34  1  0
 34 35  2  0
 28 36  1  0
 35 37  1  0
 36 37  2  0
M  END
$$$$
