No_1461-complexes_sdf/6BKW-FPZ/2024-09-17-14-21-01/
     RDKit          3D

 11 12  0  0  0  0  0  0  0  0999 V2000
   -7.2496    3.8871   27.4508 C   0  0  0  0  0  0  0  0  0  0  0  0
   -7.6161    2.7143   27.1523 C   0  0  0  0  0  0  0  0  0  0  0  0
   -6.9719    1.5838   27.5324 C   0  0  0  0  0  0  0  0  0  0  0  0
   -7.4590    0.2827   27.2615 C   0  0  0  0  0  0  0  0  0  0  0  0
   -8.8629    2.3938   26.5063 C   0  0  0  0  0  0  0  0  0  0  0  0
   -9.6872    3.5591   26.1479 C   0  0  0  0  0  0  0  0  0  0  0  0
   -8.0746    5.0638   27.2096 C   0  0  0  0  0  0  0  0  0  0  0  0
   -9.2369    4.9222   26.5257 C   0  0  0  0  0  0  0  0  0  0  0  0
   -8.6775    0.1225   26.6711 C   0  0  0  0  0  0  0  0  0  0  0  0
   -9.3914    1.2223   26.2547 C   0  0  0  0  0  0  0  0  0  0  0  0
   -7.6104    6.4002   27.6602 C   0  0  0  0  0  0  0  0  0  0  0  0
  7 11  1  0
  2  3  1  0
  3  4  2  0
  4  9  1  0
  9 10  2  0
 10  5  1  0
  1  2  2  0
  2  5  1  0
  5  6  2  0
  6  8  1  0
  8  7  2  0
  7  1  1  0
M  END
$$$$
