No_1126-complexes_sdf/6BKW-FPZ/2024-09-17-14-21-01/
     RDKit          3D

 39 42  0  0  0  0  0  0  0  0999 V2000
   -7.2496    3.8871   27.4508 C   0  0  0  0  0  0  0  0  0  0  0  0
   -8.5096    4.0291   27.2770 C   0  0  0  0  0  0  0  0  0  0  0  0
   -9.3451    2.8786   26.9046 C   0  0  0  0  0  0  0  0  0  0  0  0
   -6.6065    2.5680   27.5073 C   0  0  0  0  0  0  0  0  0  0  0  0
   -7.3970    1.4834   27.2271 C   0  0  0  0  0  0  0  0  0  0  0  0
   -8.7029    1.6398   26.9934 C   0  0  0  0  0  0  0  0  0  0  0  0
   -9.1106    5.3702   27.2076 C   0  0  0  0  0  0  0  0  0  0  0  0
   -8.4146    6.2731   26.7993 F   0  0  0  0  0  0  0  0  0  0  0  0
  -10.3382    5.4950   27.3862 F   0  0  0  0  0  0  0  0  0  0  0  0
   -6.7371    0.1990   27.2134 C   0  0  0  0  0  0  0  0  0  0  0  0
   -7.1928   -0.7854   27.2394 O   0  0  0  0  0  0  0  0  0  0  0  0
   -5.3422    0.2734   27.2417 O   0  0  0  0  0  0  0  0  0  0  0  0
   -4.7381    0.0713   28.4656 C   0  0  0  0  0  0  0  0  0  0  0  0
   -3.5678    0.8570   28.6897 C   0  0  0  0  0  0  0  0  0  0  0  0
   -3.2744    1.5285   27.7824 F   0  0  0  0  0  0  0  0  0  0  0  0
   -2.5896   -0.1457   28.8713 F   0  0  0  0  0  0  0  0  0  0  0  0
   -5.6927    0.4466   29.4212 F   0  0  0  0  0  0  0  0  0  0  0  0
   -4.6525   -1.2585   28.5051 F   0  0  0  0  0  0  0  0  0  0  0  0
   -3.5750    1.4887   29.8501 F   0  0  0  0  0  0  0  0  0  0  0  0
   -9.5037    0.5717   26.7443 O   0  0  0  0  0  0  0  0  0  0  0  0
  -10.6474    0.4317   27.4704 C   0  0  0  0  0  0  0  0  0  0  0  0
  -11.7447   -0.0294   26.8146 C   0  0  0  0  0  0  0  0  0  0  0  0
  -12.8960    0.0489   27.4077 C   0  0  0  0  0  0  0  0  0  0  0  0
  -13.2205    0.6888   28.1413 C   0  0  0  0  0  0  0  0  0  0  0  0
  -12.1647    1.4599   28.9783 C   0  0  0  0  0  0  0  0  0  0  0  0
  -10.9120    1.7637   28.2779 C   0  0  0  0  0  0  0  0  0  0  0  0
  -12.5555    2.4412   29.9070 O   0  0  0  0  0  0  0  0  0  0  0  0
  -13.0215    3.6603   29.6012 C   0  0  0  0  0  0  0  0  0  0  0  0
  -12.9753    4.2220   28.4253 C   0  0  0  0  0  0  0  0  0  0  0  0
  -13.8721    4.2179   30.6198 C   0  0  0  0  0  0  0  0  0  0  0  0
  -13.6805    5.3655   28.0591 C   0  0  0  0  0  0  0  0  0  0  0  0
  -14.6409    5.3606   30.3591 C   0  0  0  0  0  0  0  0  0  0  0  0
  -14.5588    5.9394   29.0506 C   0  0  0  0  0  0  0  0  0  0  0  0
  -11.2587   -1.4172   26.1729 C   0  0  0  0  0  0  0  0  0  0  0  0
  -11.7621   -1.5554   24.8788 C   0  0  0  0  0  0  0  0  0  0  0  0
  -11.3254   -2.6316   24.2413 C   0  0  0  0  0  0  0  0  0  0  0  0
  -10.4561   -3.5493   24.8267 C   0  0  0  0  0  0  0  0  0  0  0  0
   -9.9576   -3.3353   26.0958 C   0  0  0  0  0  0  0  0  0  0  0  0
  -10.3518   -2.2431   26.7648 C   0  0  0  0  0  0  0  0  0  0  0  0
  2  7  1  0
  7  8  1  0
  7  9  1  0
  5 10  1  0
 10 11  2  0
 10 12  1  0
 12 13  1  0
 13 14  1  0
 14 15  1  0
 14 16  1  0
 13 17  1  0
 13 18  1  0
 14 19  1  0
  6 20  1  0
 20 21  1  0
 25 27  1  0
 27 28  1  0
 22 34  1  0
 28 29  2  0
 29 31  1  0
 31 33  2  0
 33 32  1  0
 32 30  2  0
 30 28  1  0
  1  2  2  0
  2  3  1  0
  3  6  2  0
  6  5  1  0
  5  4  2  0
  4  1  1  0
 34 35  2  0
 35 36  1  0
 36 37  2  0
 37 38  1  0
 38 39  2  0
 39 34  1  0
 21 22  1  0
 22 23  2  0
 23 24  1  0
 24 25  2  0
 25 26  1  0
 26 21  2  0
M  END
$$$$
