No_1036-complexes_sdf/6BKW-FPZ/2024-09-17-14-21-01/
     RDKit          3D

 23 26  0  0  0  0  0  0  0  0999 V2000
   -7.9040    3.9820   27.1177 C   0  0  0  0  0  0  0  0  0  0  0  0
   -9.0711    4.3164   27.0630 C   0  0  0  0  0  0  0  0  0  0  0  0
   -9.8698    3.9665   25.9495 C   0  0  0  0  0  0  0  0  0  0  0  0
   -7.0332    4.5030   28.2025 C   0  0  0  0  0  0  0  0  0  0  0  0
  -10.9909    4.7237   25.5958 C   0  0  0  0  0  0  0  0  0  0  0  0
   -7.5840    5.4918   28.9036 N   0  0  0  0  0  0  0  0  0  0  0  0
  -11.7343    4.2277   24.5327 C   0  0  0  0  0  0  0  0  0  0  0  0
  -11.2813    3.1973   23.7236 C   0  0  0  0  0  0  0  0  0  0  0  0
  -10.1509    2.5537   24.0445 C   0  0  0  0  0  0  0  0  0  0  0  0
   -9.3897    2.9922   25.1578 C   0  0  0  0  0  0  0  0  0  0  0  0
   -9.2854    5.4405   27.9834 C   0  0  0  0  0  0  0  0  0  0  0  0
   -8.5131    5.9375   28.8341 N   0  0  0  0  0  0  0  0  0  0  0  0
   -9.6539    1.4114   23.2264 C   0  0  0  0  0  0  0  0  0  0  0  0
  -10.3637    0.4529   22.8619 Cl  0  0  0  0  0  0  0  0  0  0  0  0
   -5.7596    4.0614   28.3043 N   0  0  0  0  0  0  0  0  0  0  0  0
   -8.5478    1.7662   22.5609 O   0  0  0  0  0  0  0  0  0  0  0  0
   -5.3164    2.8911   27.8194 C   0  0  0  0  0  0  0  0  0  0  0  0
   -4.0365    2.3776   28.2999 C   0  0  0  0  0  0  0  0  0  0  0  0
   -3.6690    1.0451   27.8744 C   0  0  0  0  0  0  0  0  0  0  0  0
   -4.6394    0.2540   27.2502 C   0  0  0  0  0  0  0  0  0  0  0  0
   -5.9170    0.6804   27.0248 C   0  0  0  0  0  0  0  0  0  0  0  0
   -6.2709    1.9590   27.3857 C   0  0  0  0  0  0  0  0  0  0  0  0
   -7.5515    2.4819   27.0499 N   0  0  0  0  0  0  0  0  0  0  0  0
  9 13  1  0
 13 14  1  0
 13 16  2  0
  3  2  1  0
  1  2  1  0
  2 11  2  0
 11 12  1  0
 12  6  2  0
  6  4  1  0
 17 18  1  0
 18 19  2  0
 19 20  1  0
 20 21  2  0
 21 22  1  0
  1  4  2  0
  4 15  1  0
 15 17  2  0
 17 22  1  0
 22 23  2  0
 23  1  1  0
  3  5  2  0
  5  7  1  0
  7  8  2  0
  8  9  1  0
  9 10  2  0
 10  3  1  0
M  END
$$$$
