No_1627-complexes_sdf/6BKW-FPZ/2024-09-17-14-21-01/
     RDKit          3D

 19 20  0  0  0  0  0  0  0  0999 V2000
   -7.9040    3.9820   27.1177 C   0  0  0  0  0  0  0  0  0  0  0  0
   -9.0711    4.3164   27.0630 C   0  0  0  0  0  0  0  0  0  0  0  0
   -9.8698    3.9665   25.9495 C   0  0  0  0  0  0  0  0  0  0  0  0
   -7.0332    4.5030   28.2025 C   0  0  0  0  0  0  0  0  0  0  0  0
   -9.4357    2.9501   25.1393 C   0  0  0  0  0  0  0  0  0  0  0  0
  -10.2810    2.6266   24.0411 C   0  0  0  0  0  0  0  0  0  0  0  0
   -5.6826    4.2150   28.1812 C   0  0  0  0  0  0  0  0  0  0  0  0
  -10.0416    1.4893   23.3040 C   0  0  0  0  0  0  0  0  0  0  0  0
   -8.9409    0.6426   23.7329 C   0  0  0  0  0  0  0  0  0  0  0  0
   -8.2319    0.9302   24.8630 C   0  0  0  0  0  0  0  0  0  0  0  0
   -8.4886    2.0083   25.6316 C   0  0  0  0  0  0  0  0  0  0  0  0
   -7.5728    2.5157   26.6525 C   0  0  0  0  0  0  0  0  0  0  0  0
   -7.3932    5.9356   28.5271 C   0  0  0  0  0  0  0  0  0  0  0  0
  -11.3181    3.4905   23.4993 C   0  0  0  0  0  0  0  0  0  0  0  0
  -12.3366    3.7989   24.2234 C   0  0  0  0  0  0  0  0  0  0  0  0
  -11.0856    4.1012   22.2388 C   0  0  0  0  0  0  0  0  0  0  0  0
  -12.6664    3.2540   25.5167 C   0  0  0  0  0  0  0  0  0  0  0  0
  -13.8369    3.6297   26.2075 C   0  0  0  0  0  0  0  0  0  0  0  0
  -14.6637    4.5694   25.5927 C   0  0  0  0  0  0  0  0  0  0  0  0
  1  4  1  0
  4  7  1  0
  4 13  1  0
  6 14  1  0
 14 15  2  3
 14 16  1  0
 15 17  1  0
 17 18  2  3
 18 19  1  0
  5  6  1  0
  6  8  2  0
  8  9  1  0
  9 10  2  0
 10 11  1  0
  1  2  2  0
  2  3  1  0
  3  5  2  0
  5 11  1  0
 11 12  2  0
 12  1  1  0
M  END
$$$$
