No_1930-complexes_sdf/6BKW-FPZ/2024-09-17-14-21-01/
     RDKit          3D

 17 18  0  0  0  0  0  0  0  0999 V2000
   -7.7129    4.2099   27.0854 C   0  0  0  0  0  0  0  0  0  0  0  0
   -7.7814    5.1722   27.8972 C   0  0  0  0  0  0  0  0  0  0  0  0
   -8.7889    3.2468   27.2220 C   0  0  0  0  0  0  0  0  0  0  0  0
   -8.5940    1.9755   26.6525 C   0  0  0  0  0  0  0  0  0  0  0  0
   -9.4990    1.3567   25.9026 C   0  0  0  0  0  0  0  0  0  0  0  0
   -9.0214    5.8041   28.2929 C   0  0  0  0  0  0  0  0  0  0  0  0
   -9.8944    3.6512   27.9113 C   0  0  0  0  0  0  0  0  0  0  0  0
  -10.0302    4.8964   28.4608 C   0  0  0  0  0  0  0  0  0  0  0  0
   -9.2379    0.1214   25.2942 C   0  0  0  0  0  0  0  0  0  0  0  0
  -10.2428   -0.4297   24.4432 C   0  0  0  0  0  0  0  0  0  0  0  0
  -11.3906    0.3116   24.1575 C   0  0  0  0  0  0  0  0  0  0  0  0
  -11.5958    1.5209   24.7232 C   0  0  0  0  0  0  0  0  0  0  0  0
  -10.6081    2.1035   25.5473 C   0  0  0  0  0  0  0  0  0  0  0  0
   -7.3763    1.2163   27.0820 C   0  0  0  0  0  0  0  0  0  0  0  0
   -7.2729    0.0570   26.9046 F   0  0  0  0  0  0  0  0  0  0  0  0
   -6.2394    1.8516   26.6509 F   0  0  0  0  0  0  0  0  0  0  0  0
   -7.2359    1.4262   28.4981 F   0  0  0  0  0  0  0  0  0  0  0  0
  3  4  1  0
  4 14  1  0
 14 15  1  0
 14 16  1  0
 14 17  1  0
  4  5  1  0
  5  9  2  0
  9 10  1  0
 10 11  2  0
 11 12  1  0
 12 13  2  0
 13  5  1  0
  1  2  2  0
  2  6  1  0
  6  8  2  0
  8  7  1  0
  7  3  2  0
  3  1  1  0
M  END
$$$$
