No_1294-complexes_sdf/6BKW-FPZ/2024-09-17-14-21-01/
     RDKit          3D

 19 21  0  0  0  0  0  0  0  0999 V2000
   -7.7129    4.2099   27.0854 C   0  0  0  0  0  0  0  0  0  0  0  0
   -8.9133    4.4736   27.0998 C   0  0  0  0  0  0  0  0  0  0  0  0
   -9.4643    5.5426   27.7628 C   0  0  0  0  0  0  0  0  0  0  0  0
   -7.2009    2.9448   26.6134 C   0  0  0  0  0  0  0  0  0  0  0  0
   -6.1602    2.3096   27.4083 C   0  0  0  0  0  0  0  0  0  0  0  0
   -5.8295    1.0200   27.2635 C   0  0  0  0  0  0  0  0  0  0  0  0
   -6.7067    0.1866   26.6098 C   0  0  0  0  0  0  0  0  0  0  0  0
   -7.9816    1.8769   26.1031 C   0  0  0  0  0  0  0  0  0  0  0  0
   -7.8148    0.6678   26.0650 C   0  0  0  0  0  0  0  0  0  0  0  0
   -6.9227    5.1160   27.8770 C   0  0  0  0  0  0  0  0  0  0  0  0
   -7.3333    6.2764   28.4135 C   0  0  0  0  0  0  0  0  0  0  0  0
   -8.6994    6.5339   28.2684 C   0  0  0  0  0  0  0  0  0  0  0  0
   -4.6278    0.5013   27.9912 C   0  0  0  0  0  0  0  0  0  0  0  0
   -3.6176    1.0819   28.3066 C   0  0  0  0  0  0  0  0  0  0  0  0
   -4.7148   -0.9653   28.2837 C   0  0  0  0  0  0  0  0  0  0  0  0
   -3.6712   -1.5367   29.0250 C   0  0  0  0  0  0  0  0  0  0  0  0
   -2.5523   -0.8672   29.3484 C   0  0  0  0  0  0  0  0  0  0  0  0
   -2.4473    0.5366   29.0222 C   0  0  0  0  0  0  0  0  0  0  0  0
   -9.7887    3.6039   26.5568 F   0  0  0  0  0  0  0  0  0  0  0  0
  1  4  1  0
  6 13  1  0
  2 19  1  0
  4  5  2  0
  5  6  1  0
  6  7  2  0
  7  9  1  0
  9  8  2  0
  8  4  1  0
 13 14  2  0
 14 18  1  0
 18 17  2  0
 17 16  1  0
 16 15  2  0
 15 13  1  0
  1  2  2  0
  2  3  1  0
  3 12  2  0
 12 11  1  0
 11 10  2  0
 10  1  1  0
M  END
$$$$
