No_118-complexes_sdf/6BKW-FPZ/2024-09-17-14-21-01/
     RDKit          3D

 25 27  0  0  0  0  0  0  0  0999 V2000
   -7.9040    3.9820   27.1177 C   0  0  0  0  0  0  0  0  0  0  0  0
   -8.2057    2.8231   26.8733 C   0  0  0  0  0  0  0  0  0  0  0  0
   -7.4766    1.7477   27.4593 C   0  0  0  0  0  0  0  0  0  0  0  0
   -8.7468    5.1251   26.6967 C   0  0  0  0  0  0  0  0  0  0  0  0
   -9.7234    4.8589   25.8202 C   0  0  0  0  0  0  0  0  0  0  0  0
   -9.9711    3.5858   25.4266 C   0  0  0  0  0  0  0  0  0  0  0  0
   -9.2266    2.4957   25.9600 C   0  0  0  0  0  0  0  0  0  0  0  0
   -7.8305    0.3697   27.3235 C   0  0  0  0  0  0  0  0  0  0  0  0
   -7.0984   -0.5913   27.8882 C   0  0  0  0  0  0  0  0  0  0  0  0
   -5.8352   -0.3087   28.4464 C   0  0  0  0  0  0  0  0  0  0  0  0
   -5.3580    1.0300   28.4203 C   0  0  0  0  0  0  0  0  0  0  0  0
   -6.0819    1.9892   27.9122 C   0  0  0  0  0  0  0  0  0  0  0  0
   -8.4158    6.5133   27.1036 C   0  0  0  0  0  0  0  0  0  0  0  0
   -8.1963    6.7433   28.2743 O   0  0  0  0  0  0  0  0  0  0  0  0
   -8.5424    7.4802   26.2486 O   0  0  0  0  0  0  0  0  0  0  0  0
   -5.0038   -1.3993   29.0350 C   0  0  0  0  0  0  0  0  0  0  0  0
   -4.7100   -1.2968   30.2398 C   0  0  0  0  0  0  0  0  0  0  0  0
   -5.1280   -0.1375   31.1176 C   0  0  0  0  0  0  0  0  0  0  0  0
   -4.6109   -0.1765   32.5043 C   0  0  0  0  0  0  0  0  0  0  0  0
   -3.9360   -1.2637   32.9934 C   0  0  0  0  0  0  0  0  0  0  0  0
   -3.5204   -2.2977   32.2291 C   0  0  0  0  0  0  0  0  0  0  0  0
   -3.8779   -2.3128   30.9117 C   0  0  0  0  0  0  0  0  0  0  0  0
   -4.7014   -2.4249   28.1717 C   0  0  0  0  0  0  0  0  0  0  0  0
   -3.6008   -2.4893   27.5336 C   0  0  0  0  0  0  0  0  0  0  0  0
   -3.2862   -3.5875   26.6479 C   0  0  0  0  0  0  0  0  0  0  0  0
  2  3  1  0
  4 13  1  0
 13 14  2  0
 13 15  1  0
 10 16  1  0
 16 23  1  0
 23 24  2  3
 24 25  1  0
 16 17  1  0
  3  8  2  0
  8  9  1  0
  9 10  2  0
 10 11  1  0
 11 12  2  0
 12  3  1  0
 17 18  2  0
 18 19  1  0
 19 20  2  0
 20 21  1  0
 21 22  2  0
 22 17  1  0
  1  2  2  0
  2  7  1  0
  7  6  2  0
  6  5  1  0
  5  4  2  0
  4  1  1  0
M  END
$$$$
