No_186-complexes_sdf/6BKW-FPZ/2024-09-17-14-21-01/
     RDKit          3D

 16 17  0  0  0  0  0  0  0  0999 V2000
   -7.9040    3.9820   27.1177 C   0  0  0  0  0  0  0  0  0  0  0  0
   -8.2057    2.8231   26.8733 C   0  0  0  0  0  0  0  0  0  0  0  0
   -8.7695    5.0740   26.7916 C   0  0  0  0  0  0  0  0  0  0  0  0
   -8.4337    6.4678   27.0913 C   0  0  0  0  0  0  0  0  0  0  0  0
   -7.3775    1.6806   27.3986 C   0  0  0  0  0  0  0  0  0  0  0  0
   -7.6795    0.3394   27.2177 C   0  0  0  0  0  0  0  0  0  0  0  0
   -8.9653    0.1016   26.6342 C   0  0  0  0  0  0  0  0  0  0  0  0
   -9.7377    1.1060   26.1275 C   0  0  0  0  0  0  0  0  0  0  0  0
   -9.3779    2.4385   26.3040 C   0  0  0  0  0  0  0  0  0  0  0  0
   -9.3184    7.4972   26.6703 C   0  0  0  0  0  0  0  0  0  0  0  0
   -9.9054    4.8117   25.9898 C   0  0  0  0  0  0  0  0  0  0  0  0
  -10.2691    3.4503   25.7987 C   0  0  0  0  0  0  0  0  0  0  0  0
   -7.1410    6.7245   27.6955 C   0  0  0  0  0  0  0  0  0  0  0  0
   -6.8462   -0.6672   27.7827 C   0  0  0  0  0  0  0  0  0  0  0  0
   -7.2897   -1.8281   28.2866 C   0  0  0  0  0  0  0  0  0  0  0  0
   -6.4555   -2.7954   28.8516 C   0  0  0  0  0  0  0  0  0  0  0  0
  3  4  1  0
  4 10  2  0
  4 13  1  0
  6 14  1  0
 14 15  2  3
 15 16  1  0
  2  5  1  0
  5  6  2  0
  6  7  1  0
  7  8  2  0
  8  9  1  0
  1  2  2  0
  2  9  1  0
  9 12  2  0
 12 11  1  0
 11  3  2  0
  3  1  1  0
M  END
$$$$
