No_1859-complexes_sdf/6BKW-FPZ/2024-09-17-14-21-01/
     RDKit          3D

 18 19  0  0  0  0  0  0  0  0999 V2000
   -7.9040    3.9820   27.1177 C   0  0  0  0  0  0  0  0  0  0  0  0
   -8.2057    2.8231   26.8733 C   0  0  0  0  0  0  0  0  0  0  0  0
   -9.2962    2.4021   26.1155 C   0  0  0  0  0  0  0  0  0  0  0  0
   -8.7358    5.0662   26.5917 C   0  0  0  0  0  0  0  0  0  0  0  0
   -8.4603    6.4492   26.8781 C   0  0  0  0  0  0  0  0  0  0  0  0
  -10.1146    3.3815   25.6105 C   0  0  0  0  0  0  0  0  0  0  0  0
   -9.8194    4.7235   25.8263 C   0  0  0  0  0  0  0  0  0  0  0  0
   -8.0995    6.9133   28.0601 N   0  0  0  0  0  0  0  0  0  0  0  0
   -8.6523    7.2910   25.9286 F   0  0  0  0  0  0  0  0  0  0  0  0
   -7.3160    1.6846   27.4406 C   0  0  2  0  0  0  0  0  0  0  0  0
   -6.0064    1.9731   27.8288 C   0  0  0  0  0  0  0  0  0  0  0  0
   -5.1699    0.9154   28.3142 C   0  0  0  0  0  0  0  0  0  0  0  0
   -5.6401   -0.3651   28.3316 C   0  0  0  0  0  0  0  0  0  0  0  0
   -7.7561    0.4554   27.4331 F   0  0  0  0  0  0  0  0  0  0  0  0
   -4.8019   -1.4260   28.7961 C   0  0  0  0  0  0  0  0  0  0  0  0
   -3.5579   -1.0302   29.3070 C   0  0  0  0  0  0  0  0  0  0  0  0
   -3.0984    0.2807   29.2884 C   0  0  0  0  0  0  0  0  0  0  0  0
   -3.8594    1.2636   28.8291 C   0  0  0  0  0  0  0  0  0  0  0  0
  4  5  1  0
  5  8  2  0
  5  9  1  0
  2 10  1  0
 10 11  1  0
 10 14  1  6
 11 12  1  0
  1  2  2  0
  2  3  1  0
  3  6  2  0
  6  7  1  0
  7  4  2  0
  4  1  1  0
 12 13  2  0
 13 15  1  0
 15 16  2  0
 16 17  1  0
 17 18  2  0
 18 12  1  0
M  END
$$$$
