No_1758-complexes_sdf/6BKW-FPZ/2024-09-17-14-21-01/
     RDKit          3D

 14 15  0  0  0  0  0  0  0  0999 V2000
   -7.2496    3.8871   27.4508 C   0  0  0  0  0  0  0  0  0  0  0  0
   -7.9379    4.9063   27.8518 C   0  0  0  0  0  0  0  0  0  0  0  0
   -8.9501    5.3664   27.1340 C   0  0  0  0  0  0  0  0  0  0  0  0
   -7.8297    2.9727   26.4637 C   0  0  0  0  0  0  0  0  0  0  0  0
   -9.6095    6.6159   27.5238 C   0  0  0  0  0  0  0  0  0  0  0  0
   -7.4128    1.6630   26.3237 C   0  0  0  0  0  0  0  0  0  0  0  0
   -9.4867    4.7060   26.0086 C   0  0  0  0  0  0  0  0  0  0  0  0
   -8.9847    3.4129   25.8161 C   0  0  0  0  0  0  0  0  0  0  0  0
   -8.1434    0.7073   25.5933 C   0  0  0  0  0  0  0  0  0  0  0  0
   -9.6618    2.7073   24.8033 C   0  0  0  0  0  0  0  0  0  0  0  0
   -7.8017   -0.6306   25.5274 C   0  0  0  0  0  0  0  0  0  0  0  0
   -9.2566    1.2672   24.8337 C   0  0  0  0  0  0  0  0  0  0  0  0
   -8.0221   -1.2970   24.6218 C   0  0  0  0  0  0  0  0  0  0  0  0
   -7.6872   -2.7061   24.5323 C   0  0  0  0  0  0  0  0  0  0  0  0
  3  5  1  0
  9 11  1  0
 11 13  2  3
 13 14  1  0
  1  2  2  0
  2  3  1  0
  3  7  2  0
  7  8  1  0
  4  1  1  0
  4  6  2  0
  6  9  1  0
  9 12  2  0
 12 10  1  0
 10  8  2  0
  8  4  1  0
M  END
$$$$
