No_1556-complexes_sdf/6BKW-FPZ/2024-09-17-14-21-01/
     RDKit          3D

 27 30  0  0  0  0  0  0  0  0999 V2000
   -7.2496    3.8871   27.4508 C   0  0  0  0  0  0  0  0  0  0  0  0
   -8.5096    4.0291   27.2770 C   0  0  0  0  0  0  0  0  0  0  0  0
   -9.2669    5.1645   27.5845 C   0  0  0  0  0  0  0  0  0  0  0  0
   -8.4566    6.3212   27.8001 C   0  0  0  0  0  0  0  0  0  0  0  0
   -6.4921    5.0197   27.7961 C   0  0  0  0  0  0  0  0  0  0  0  0
   -7.1702    6.2351   27.9936 C   0  0  0  0  0  0  0  0  0  0  0  0
   -9.4921    2.9050   27.0139 C   0  0  0  0  0  0  0  0  0  0  0  0
  -10.4566    2.5117   27.7613 C   0  0  0  0  0  0  0  0  0  0  0  0
  -11.1527    1.3185   27.6633 C   0  0  0  0  0  0  0  0  0  0  0  0
  -10.6861    0.4336   26.6922 C   0  0  0  0  0  0  0  0  0  0  0  0
   -8.9597    1.8964   26.0679 C   0  0  0  0  0  0  0  0  0  0  0  0
   -9.5534    0.9091   25.9596 C   0  0  0  0  0  0  0  0  0  0  0  0
   -9.0775   -0.1476   24.8622 C   0  0  0  0  0  0  0  0  0  0  0  0
   -9.6781   -0.6588   24.1894 C   0  0  0  0  0  0  0  0  0  0  0  0
   -9.1445   -1.4992   23.0289 C   0  0  0  0  0  0  0  0  0  0  0  0
   -7.7704   -1.5240   22.8285 C   0  0  0  0  0  0  0  0  0  0  0  0
   -6.9610   -0.7839   23.6342 C   0  0  0  0  0  0  0  0  0  0  0  0
   -7.4905   -0.0304   24.6331 C   0  0  0  0  0  0  0  0  0  0  0  0
  -12.2890    0.9230   28.4964 C   0  0  0  0  0  0  0  0  0  0  0  0
  -12.7609    1.6852   29.2622 O   0  0  0  0  0  0  0  0  0  0  0  0
  -12.6892   -0.2510   28.4002 O   0  0  0  0  0  0  0  0  0  0  0  0
  -14.0715    2.2408   29.1679 C   0  0  0  0  0  0  0  0  0  0  0  0
  -14.5896    2.6326   30.1207 C   0  0  0  0  0  0  0  0  0  0  0  0
  -15.9392    3.2423   30.1334 C   0  0  0  0  0  0  0  0  0  0  0  0
  -16.5275    3.3805   28.8809 C   0  0  0  0  0  0  0  0  0  0  0  0
  -14.6384    2.4257   27.8709 C   0  0  0  0  0  0  0  0  0  0  0  0
  -15.5486    2.9765   27.7301 C   0  0  0  0  0  0  0  0  0  0  0  0
  2  7  1  0
 12 13  1  0
  9 19  1  0
 19 20  1  0
 19 21  2  0
 20 22  1  0
  7  8  2  0
  8  9  1  0
  9 10  2  0
 10 12  1  0
 12 11  2  0
 11  7  1  0
 13 14  2  0
 14 15  1  0
 15 16  2  0
 16 17  1  0
 17 18  2  0
 18 13  1  0
  1  2  2  0
  2  3  1  0
  3  4  2  0
  4  6  1  0
  6  5  2  0
  5  1  1  0
 22 23  2  0
 23 24  1  0
 24 25  2  0
 25 27  1  0
 27 26  2  0
 26 22  1  0
M  END
$$$$
