No_1585-complexes_sdf/6BKW-FPZ/2024-09-17-14-21-01/
     RDKit          3D

 23 25  0  0  0  0  0  0  0  0999 V2000
   -7.2496    3.8871   27.4508 C   0  0  0  0  0  0  0  0  0  0  0  0
   -7.6161    2.7143   27.1523 C   0  0  0  0  0  0  0  0  0  0  0  0
   -7.1619    1.8631   27.5232 C   0  0  0  0  0  0  0  0  0  0  0  0
   -8.0036    5.1085   27.2100 C   0  0  2  0  0  0  0  0  0  0  0  0
   -9.0764    5.1562   26.4023 C   0  0  0  0  0  0  0  0  0  0  0  0
   -9.5423    3.9741   25.8512 C   0  0  0  0  0  0  0  0  0  0  0  0
   -8.9083    2.8788   26.2032 C   0  0  0  0  0  0  0  0  0  0  0  0
   -7.6106    0.4381   27.4271 C   0  0  0  0  0  0  0  0  0  0  0  0
   -8.8962    0.3060   26.9307 C   0  0  0  0  0  0  0  0  0  0  0  0
   -9.5394    1.5100   26.0890 C   0  0  0  0  0  0  0  0  0  0  0  0
   -7.3125    6.6101   27.9140 Cl  0  0  0  0  0  0  0  0  0  0  0  0
  -10.6406    1.2809   25.3014 C   0  0  0  0  0  0  0  0  0  0  0  0
  -11.6798    1.7711   25.6443 C   0  0  0  0  0  0  0  0  0  0  0  0
  -10.6364    0.0644   24.4347 C   0  0  0  0  0  0  0  0  0  0  0  0
  -12.0129    2.5197   26.6575 C   0  0  0  0  0  0  0  0  0  0  0  0
  -13.2667    3.1926   26.9405 C   0  0  0  0  0  0  0  0  0  0  0  0
  -10.5541    0.1603   23.3690 C   0  0  0  0  0  0  0  0  0  0  0  0
  -10.6340    1.3960   22.6483 C   0  0  0  0  0  0  0  0  0  0  0  0
  -10.5822    1.8531   21.7434 C   0  0  0  0  0  0  0  0  0  0  0  0
  -10.3659    1.0538   20.4905 C   0  0  0  0  0  0  0  0  0  0  0  0
  -10.3046   -0.3699   20.8273 C   0  0  0  0  0  0  0  0  0  0  0  0
  -10.3472   -0.7858   22.1919 C   0  0  0  0  0  0  0  0  0  0  0  0
  -14.0810    3.2839   25.9660 C   0  0  0  0  0  0  0  0  0  0  0  0
  1  2  1  0
  1  4  1  0
  4  5  1  0
  5  6  1  0
  6  7  1  0
  4 11  1  6
 10 12  1  0
 12 13  2  3
 12 14  1  0
 13 15  1  0
 15 16  2  3
 14 17  1  0
 16 23  1  0
 17 18  2  0
 18 19  1  0
 19 20  2  0
 20 21  1  0
 21 22  2  0
 22 17  1  0
  2  3  2  0
  3  8  1  0
  8  9  2  0
  9 10  1  0
 10  7  2  0
  7  2  1  0
M  END
$$$$
