No_1018-complexes_sdf/6BKW-FPZ/2024-09-17-14-21-01/
     RDKit          3D

 16 17  0  0  0  0  0  0  0  0999 V2000
   -7.9040    3.9820   27.1177 C   0  0  0  0  0  0  0  0  0  0  0  0
   -8.2057    2.8231   26.8733 C   0  0  0  0  0  0  0  0  0  0  0  0
   -8.7463    4.9537   27.6708 C   0  0  0  0  0  0  0  0  0  0  0  0
   -8.3921    6.3606   27.8466 C   0  0  0  0  0  0  0  0  0  0  0  0
   -9.5482    2.3521   27.1946 C   0  0  0  0  0  0  0  0  0  0  0  0
  -10.4264    3.2507   27.7616 C   0  0  0  0  0  0  0  0  0  0  0  0
  -10.0702    4.5620   28.0189 C   0  0  0  0  0  0  0  0  0  0  0  0
   -9.8470    0.9187   26.9829 C   0  0  0  0  0  0  0  0  0  0  0  0
   -8.9327    0.0714   26.9427 C   0  0  0  0  0  0  0  0  0  0  0  0
   -9.2508   -1.3015   26.8197 C   0  0  0  0  0  0  0  0  0  0  0  0
  -10.5897   -1.6663   26.8470 C   0  0  0  0  0  0  0  0  0  0  0  0
  -11.1643    0.4234   27.1613 C   0  0  0  0  0  0  0  0  0  0  0  0
  -11.5172   -0.8145   27.1030 C   0  0  0  0  0  0  0  0  0  0  0  0
   -8.1072    7.0064   26.4781 C   0  0  0  0  0  0  0  0  0  0  0  0
   -8.8161    6.8713   25.6568 F   0  0  0  0  0  0  0  0  0  0  0  0
   -7.1783    7.8367   26.5675 F   0  0  0  0  0  0  0  0  0  0  0  0
  3  4  1  0
  5  8  1  0
  4 14  1  0
 14 15  1  0
 14 16  1  0
  1  2  2  0
  2  5  1  0
  5  6  2  0
  6  7  1  0
  7  3  2  0
  3  1  1  0
  8  9  2  0
  9 10  1  0
 10 11  2  0
 11 13  1  0
 13 12  2  0
 12  8  1  0
M  END
$$$$
