No_1067-complexes_sdf/6BKW-FPZ/2024-09-17-14-21-01/
     RDKit          3D

 25 27  0  0  0  0  0  0  0  0999 V2000
   -7.7129    4.2099   27.0854 C   0  0  0  0  0  0  0  0  0  0  0  0
   -8.2112    3.0637   26.9225 C   0  0  0  0  0  0  0  0  0  0  0  0
   -8.5108    5.3904   26.9436 C   0  0  0  0  0  0  0  0  0  0  0  0
   -9.7256    5.1955   26.3518 C   0  0  0  0  0  0  0  0  0  0  0  0
   -9.4995    2.8258   26.4878 C   0  0  0  0  0  0  0  0  0  0  0  0
  -10.2542    3.9691   26.2055 C   0  0  0  0  0  0  0  0  0  0  0  0
   -7.8138    6.9227   27.2348 Cl  0  0  0  0  0  0  0  0  0  0  0  0
   -7.3640    1.8353   27.2492 C   0  0  0  0  0  0  0  0  0  0  0  0
   -7.7975    0.5282   27.1294 C   0  0  0  0  0  0  0  0  0  0  0  0
   -6.9646   -0.4801   27.4014 C   0  0  0  0  0  0  0  0  0  0  0  0
   -5.8546   -0.2659   27.7250 C   0  0  0  0  0  0  0  0  0  0  0  0
   -5.2269    1.0194   27.9561 C   0  0  0  0  0  0  0  0  0  0  0  0
   -5.9875    2.0568   27.6719 C   0  0  0  0  0  0  0  0  0  0  0  0
   -3.9786    1.2298   28.3239 F   0  0  0  0  0  0  0  0  0  0  0  0
  -11.6016    3.8256   25.6220 C   0  0  0  0  0  0  0  0  0  0  0  0
  -12.5489    4.2967   26.3587 F   0  0  0  0  0  0  0  0  0  0  0  0
  -11.6340    3.1743   24.7391 F   0  0  0  0  0  0  0  0  0  0  0  0
   -7.5384   -1.8693   27.3037 C   0  0  0  0  0  0  0  0  0  0  0  0
   -8.6968   -2.0286   26.8733 C   0  0  0  0  0  0  0  0  0  0  0  0
   -9.4523   -1.0267   26.5231 C   0  0  0  0  0  0  0  0  0  0  0  0
   -9.1018    0.3098   26.6360 C   0  0  0  0  0  0  0  0  0  0  0  0
  -10.9390   -1.2588   26.0377 C   0  0  0  0  0  0  0  0  0  0  0  0
  -11.5484   -0.2531   25.3778 C   0  0  0  0  0  0  0  0  0  0  0  0
  -12.8560   -0.4576   25.0531 C   0  0  0  0  0  0  0  0  0  0  0  0
  -13.5891    0.5895   24.3919 C   0  0  0  0  0  0  0  0  0  0  0  0
  3  7  1  0
  2  8  1  0
 12 14  1  0
  6 15  1  0
 15 16  1  0
 15 17  1  0
 20 22  1  0
 22 23  2  3
 23 24  1  0
 24 25  1  0
  8  9  2  0
 10 11  2  0
 11 12  1  0
 12 13  2  0
 13  8  1  0
  1  2  2  0
  2  5  1  0
  5  6  2  0
  6  4  1  0
  4  3  2  0
  3  1  1  0
  9 10  1  0
 10 18  1  0
 18 19  2  0
 19 20  1  0
 20 21  2  0
 21  9  1  0
M  END
$$$$
