No_1410-complexes_sdf/6BKW-FPZ/2024-09-17-14-21-01/
     RDKit          3D

 21 23  0  0  0  0  0  0  0  0999 V2000
   -7.7129    4.2099   27.0854 C   0  0  0  0  0  0  0  0  0  0  0  0
   -7.7814    5.1722   27.8972 C   0  0  0  0  0  0  0  0  0  0  0  0
   -8.8998    3.8713   26.3707 C   0  0  0  0  0  0  0  0  0  0  0  0
   -9.9938    4.6774   26.5446 C   0  0  0  0  0  0  0  0  0  0  0  0
   -8.7789    6.1536   27.9256 C   0  0  0  0  0  0  0  0  0  0  0  0
   -9.9428    5.8398   27.2296 C   0  0  0  0  0  0  0  0  0  0  0  0
   -8.9208    2.6404   25.5721 C   0  0  0  0  0  0  0  0  0  0  0  0
   -8.3287    1.4696   26.1305 C   0  0  0  0  0  0  0  0  0  0  0  0
   -8.1682    0.3373   25.4092 C   0  0  0  0  0  0  0  0  0  0  0  0
   -8.7571    0.3444   24.1285 C   0  0  0  0  0  0  0  0  0  0  0  0
   -9.3943    1.4591   23.5684 C   0  0  0  0  0  0  0  0  0  0  0  0
   -9.4080    2.6274   24.3045 C   0  0  0  0  0  0  0  0  0  0  0  0
   -9.9260    1.4351   22.2275 C   0  0  1  0  0  0  0  0  0  0  0  0
  -11.0419    1.2177   22.0817 N   0  0  0  0  0  0  0  0  0  0  0  0
  -11.7647    1.3102   21.0447 C   0  0  0  0  0  0  0  0  0  0  0  0
  -11.2050    1.4754   19.9589 C   0  0  0  0  0  0  0  0  0  0  0  0
   -9.8439    1.9337   20.0094 C   0  0  0  0  0  0  0  0  0  0  0  0
   -9.1228    1.9781   21.1759 C   0  0  0  0  0  0  0  0  0  0  0  0
  -11.8740    0.7300   23.3567 C   0  0  0  0  0  0  0  0  0  0  0  0
  -12.2708   -0.2249   23.5586 C   0  0  0  0  0  0  0  0  0  0  0  0
  -13.0099   -0.6260   24.7161 C   0  0  0  0  0  0  0  0  0  0  0  0
  3  7  1  0
 13 11  1  1
 13 14  1  0
 14 15  1  0
 16 17  1  0
 13 18  1  0
 17 18  1  0
 14 19  1  0
 19 20  2  3
 20 21  1  0
 16 15  1  0
  1  2  2  0
  2  5  1  0
  5  6  2  0
  6  4  1  0
  4  3  2  0
  3  1  1  0
  7  8  2  0
  8  9  1  0
  9 10  2  0
 10 11  1  0
 11 12  2  0
 12  7  1  0
M  END
$$$$
