No_1610-complexes_sdf/6BKW-FPZ/2024-09-17-14-21-01/
     RDKit          3D

 15 16  0  0  0  0  0  0  0  0999 V2000
   -7.7129    4.2099   27.0854 C   0  0  0  0  0  0  0  0  0  0  0  0
   -8.9133    4.4736   27.0998 C   0  0  0  0  0  0  0  0  0  0  0  0
   -9.7937    3.7367   26.2091 C   0  0  0  0  0  0  0  0  0  0  0  0
   -6.8266    5.0441   28.0594 C   0  0  0  0  0  0  0  0  0  0  0  0
   -9.2322    2.6276   25.6126 C   0  0  0  0  0  0  0  0  0  0  0  0
   -7.9794    2.1924   25.9863 C   0  0  0  0  0  0  0  0  0  0  0  0
   -7.4673    2.6515   27.1364 C   0  0  0  0  0  0  0  0  0  0  0  0
  -10.0422    1.8014   24.6950 C   0  0  1  0  0  0  0  0  0  0  0  0
  -11.3737    2.0949   24.5649 C   0  0  0  0  0  0  0  0  0  0  0  0
   -9.3903    1.8521   23.2869 C   0  0  0  0  0  0  0  0  0  0  0  0
   -9.8528    0.2946   25.0685 C   0  0  1  0  0  0  0  0  0  0  0  0
  -10.3784   -0.0639   26.2081 C   0  0  0  0  0  0  0  0  0  0  0  0
  -10.1610   -0.6576   23.9050 C   0  0  0  0  0  0  0  0  0  0  0  0
  -11.3140    0.4448   26.7891 C   0  0  0  0  0  0  0  0  0  0  0  0
  -12.1171    1.5215   26.0425 C   0  0  0  0  0  0  0  0  0  0  0  0
  1  4  1  0
  5  8  1  0
  8  9  1  0
  8 10  1  6
  8 11  1  0
 11 12  1  0
 11 13  1  6
 12 14  1  0
  9 15  1  0
 14 15  1  0
  1  2  2  0
  2  3  1  0
  3  5  2  0
  5  6  1  0
  6  7  2  0
  7  1  1  0
M  END
$$$$
