No_1051-complexes_sdf/6BKW-FPZ/2024-09-17-14-21-01/
     RDKit          3D

 27 30  0  0  0  0  0  0  0  0999 V2000
   -7.9040    3.9820   27.1177 C   0  0  0  0  0  0  0  0  0  0  0  0
   -9.0711    4.3164   27.0630 C   0  0  0  0  0  0  0  0  0  0  0  0
   -9.9692    3.7224   26.1073 C   0  0  0  0  0  0  0  0  0  0  0  0
   -6.9787    4.6761   28.1003 C   0  0  0  0  0  0  0  0  0  0  0  0
   -9.4538    2.6801   25.3673 C   0  0  0  0  0  0  0  0  0  0  0  0
   -8.1927    2.1957   25.6621 C   0  0  0  0  0  0  0  0  0  0  0  0
   -7.4333    2.8255   26.6299 C   0  0  0  0  0  0  0  0  0  0  0  0
  -10.3066    1.9975   24.3777 C   0  0  0  0  0  0  0  0  0  0  0  0
  -10.6217    2.5307   23.3000 N   0  0  0  0  0  0  0  0  0  0  0  0
  -10.7290    2.1015   22.1068 C   0  0  0  0  0  0  0  0  0  0  0  0
  -10.9534    2.9226   20.9617 C   0  0  0  0  0  0  0  0  0  0  0  0
  -10.4978    3.9904   22.9416 C   0  0  2  0  0  0  0  0  0  0  0  0
  -10.5480    4.9623   23.9867 C   0  0  0  0  0  0  0  0  0  0  0  0
  -10.6952    4.1667   21.5412 C   0  0  0  0  0  0  0  0  0  0  0  0
  -10.6296    0.8262   24.5851 O   0  0  0  0  0  0  0  0  0  0  0  0
   -6.9428    5.6827   28.3714 N   0  0  0  0  0  0  0  0  0  0  0  0
   -5.7100    3.9754   28.2023 N   0  0  0  0  0  0  0  0  0  0  0  0
  -11.3110    4.1365   25.9505 N   0  0  0  0  0  0  0  0  0  0  0  0
  -12.0854    4.4321   27.1287 C   0  0  0  0  0  0  0  0  0  0  0  0
  -11.7571    4.6529   24.7773 C   0  0  0  0  0  0  0  0  0  0  0  0
  -13.4711    4.2725   27.0873 C   0  0  0  0  0  0  0  0  0  0  0  0
  -13.9621    3.4014   27.6332 C   0  0  0  0  0  0  0  0  0  0  0  0
  -13.3084    2.5950   28.5457 C   0  0  0  0  0  0  0  0  0  0  0  0
  -13.8724    1.5042   29.3221 C   0  0  0  0  0  0  0  0  0  0  0  0
  -15.1393    1.2109   29.0021 C   0  0  0  0  0  0  0  0  0  0  0  0
  -15.8803    1.9140   28.0838 C   0  0  0  0  0  0  0  0  0  0  0  0
  -15.3600    2.9620   27.4643 C   0  0  0  0  0  0  0  0  0  0  0  0
  1  4  1  0
  5  8  1  0
  8  9  1  0
  9 10  1  0
 10 11  2  0
  9 12  1  0
 12 13  1  1
 11 14  1  0
 12 14  1  0
  8 15  2  0
  4 16  2  0
  4 17  1  0
  3 18  1  0
 18 19  1  0
 13 20  1  0
 18 20  1  0
 19 21  1  0
 21 22  1  0
 22 23  2  0
 23 24  1  0
 24 25  2  0
 25 26  1  0
 26 27  2  0
 27 22  1  0
  1  2  2  0
  2  3  1  0
  3  5  2  0
  5  6  1  0
  6  7  2  0
  7  1  1  0
M  END
$$$$
