No_1143-complexes_sdf/6BKW-FPZ/2024-09-17-14-21-01/
     RDKit          3D

 21 22  0  0  0  0  0  0  0  0999 V2000
   -7.7129    4.2099   27.0854 C   0  0  0  0  0  0  0  0  0  0  0  0
   -8.2112    3.0637   26.9225 C   0  0  0  0  0  0  0  0  0  0  0  0
   -8.5108    5.3904   26.9436 C   0  0  0  0  0  0  0  0  0  0  0  0
   -9.7256    5.1955   26.3518 C   0  0  0  0  0  0  0  0  0  0  0  0
   -9.4995    2.8258   26.4878 C   0  0  0  0  0  0  0  0  0  0  0  0
  -10.2542    3.9691   26.2055 C   0  0  0  0  0  0  0  0  0  0  0  0
   -7.9135    6.7086   27.1885 C   0  0  0  0  0  0  0  0  0  0  0  0
   -7.3624    1.8198   27.2561 C   0  0  0  0  0  0  0  0  0  0  0  0
   -7.8435    0.5905   27.1677 N   0  0  0  0  0  0  0  0  0  0  0  0
   -6.0929    1.9708   27.6546 N   0  0  0  0  0  0  0  0  0  0  0  0
   -6.7970   -0.1904   27.6006 C   0  0  0  0  0  0  0  0  0  0  0  0
   -5.7078    0.6756   27.9125 C   0  0  0  0  0  0  0  0  0  0  0  0
   -4.3565    0.3148   28.4226 C   0  0  2  0  0  0  0  0  0  0  0  0
   -4.2581   -0.2511   29.5870 C   0  0  0  0  0  0  0  0  0  0  0  0
   -3.8100   -0.9667   30.1862 C   0  0  0  0  0  0  0  0  0  0  0  0
   -3.5524   -1.8993   31.1302 C   0  0  0  0  0  0  0  0  0  0  0  0
   -3.2847    0.7638   27.5542 C   0  0  0  0  0  0  0  0  0  0  0  0
   -2.5222   -1.9822   31.4379 F   0  0  0  0  0  0  0  0  0  0  0  0
   -4.2994   -1.5786   32.2738 F   0  0  0  0  0  0  0  0  0  0  0  0
   -3.9565   -3.0471   30.6147 F   0  0  0  0  0  0  0  0  0  0  0  0
   -2.8857    0.0004   26.7297 O   0  0  0  0  0  0  0  0  0  0  0  0
  3  7  1  0
  2  8  1  0
  8  9  2  0
  8 10  1  0
  9 11  1  0
 10 12  2  0
 11 12  1  0
 12 13  1  0
 13 14  1  1
 14 15  3  0
 15 16  1  0
 13 17  1  0
 16 18  1  0
 16 19  1  0
 16 20  1  0
 17 21  2  0
  1  2  2  0
  2  5  1  0
  5  6  2  0
  6  4  1  0
  4  3  2  0
  3  1  1  0
M  END
$$$$
