No_1469-complexes_sdf/6BKW-FPZ/2024-09-17-14-21-01/
     RDKit          3D

 17 19  0  0  0  0  0  0  0  0999 V2000
   -7.2496    3.8871   27.4508 C   0  0  0  0  0  0  0  0  0  0  0  0
   -7.6161    2.7143   27.1523 C   0  0  0  0  0  0  0  0  0  0  0  0
   -8.8302    2.4659   26.5056 C   0  0  0  0  0  0  0  0  0  0  0  0
   -8.1584    5.0090   27.3234 C   0  0  0  0  0  0  0  0  0  0  0  0
   -9.3788    4.7965   26.7695 C   0  0  0  0  0  0  0  0  0  0  0  0
   -9.7028    3.5649   26.3276 C   0  0  0  0  0  0  0  0  0  0  0  0
   -6.9225    1.4464   27.3142 C   0  0  0  0  0  0  0  0  0  0  0  0
   -7.3296    0.1953   27.1816 C   0  0  0  0  0  0  0  0  0  0  0  0
   -8.6638    0.1165   26.6343 C   0  0  0  0  0  0  0  0  0  0  0  0
   -9.4000    1.1973   26.2860 C   0  0  0  0  0  0  0  0  0  0  0  0
   -7.5851    6.5638   27.8691 Cl  0  0  0  0  0  0  0  0  0  0  0  0
   -6.5418   -0.9380   27.5196 C   0  0  0  0  0  0  0  0  0  0  0  0
   -7.0335   -1.8986   28.1045 C   0  0  0  0  0  0  0  0  0  0  0  0
   -6.2722   -3.0356   28.6199 C   0  0  0  0  0  0  0  0  0  0  0  0
   -4.9227   -3.0067   28.4054 C   0  0  0  0  0  0  0  0  0  0  0  0
   -5.1994   -0.8720   27.3997 C   0  0  0  0  0  0  0  0  0  0  0  0
   -4.3317   -1.8681   27.7922 C   0  0  0  0  0  0  0  0  0  0  0  0
  4 11  1  0
  8 12  1  0
 12 13  2  0
 13 14  1  0
 14 15  2  0
 15 17  1  0
 17 16  2  0
 16 12  1  0
  1  2  2  0
  3  6  2  0
  6  5  1  0
  5  4  2  0
  4  1  1  0
  2  3  1  0
  3 10  1  0
 10  9  2  0
  9  8  1  0
  8  7  2  0
  7  2  1  0
M  END
$$$$
