No_1759-complexes_sdf/6BKW-FPZ/2024-09-17-14-21-01/
     RDKit          3D

 40 44  0  0  0  0  0  0  0  0999 V2000
   -7.7129    4.2099   27.0854 C   0  0  2  0  0  0  0  0  0  0  0  0
   -8.9133    4.4736   27.0998 C   0  0  0  0  0  0  0  0  0  0  0  0
   -9.7135    3.9633   26.0300 C   0  0  0  0  0  0  0  0  0  0  0  0
   -7.2585    2.8371   26.9278 C   0  0  0  0  0  0  0  0  0  0  0  0
   -9.4798    2.6045   25.7571 C   0  0  0  0  0  0  0  0  0  0  0  0
   -8.2172    2.0710   26.1389 C   0  0  1  0  0  0  0  0  0  0  0  0
  -10.3227    1.8657   24.8762 C   0  0  0  0  0  0  0  0  0  0  0  0
  -11.4660    2.3007   24.6209 C   0  0  0  0  0  0  0  0  0  0  0  0
  -11.7789    3.7085   24.8331 C   0  0  0  0  0  0  0  0  0  0  0  0
  -11.1790    4.3349   26.0233 C   0  0  0  0  0  0  0  0  0  0  0  0
  -10.0397    0.7718   24.6318 C   0  0  0  0  0  0  0  0  0  0  0  0
  -10.5704   -0.1229   24.2867 C   0  0  0  0  0  0  0  0  0  0  0  0
   -8.4797    0.3162   24.9230 C   0  0  0  0  0  0  0  0  0  0  0  0
   -7.7595    0.8784   25.7393 N   0  0  0  0  0  0  0  0  0  0  0  0
   -6.7635    5.0053   28.1199 C   0  0  0  0  0  0  0  0  0  0  0  0
  -10.8558   -0.1964   22.8670 C   0  0  0  0  0  0  0  0  0  0  0  0
  -11.7174   -1.0845   22.3088 C   0  0  0  0  0  0  0  0  0  0  0  0
  -11.9984   -0.2452   24.8456 C   0  0  0  0  0  0  0  0  0  0  0  0
  -11.9716   -0.7281   26.2429 C   0  0  0  0  0  0  0  0  0  0  0  0
  -13.0559   -0.4378   27.0465 C   0  0  0  0  0  0  0  0  0  0  0  0
  -14.1513   -0.1136   26.6808 C   0  0  0  0  0  0  0  0  0  0  0  0
  -15.2430    0.1959   27.4896 C   0  0  0  0  0  0  0  0  0  0  0  0
  -15.0055    0.1614   28.8947 C   0  0  0  0  0  0  0  0  0  0  0  0
  -16.0294    0.5345   29.8222 C   0  0  0  0  0  0  0  0  0  0  0  0
  -13.7064   -0.1406   29.3536 C   0  0  0  0  0  0  0  0  0  0  0  0
  -12.7076   -0.4489   28.5057 C   0  0  0  0  0  0  0  0  0  0  0  0
  -16.0674    0.0604   30.8798 N   0  0  0  0  0  0  0  0  0  0  0  0
  -16.8983    1.3702   29.4401 O   0  0  0  0  0  0  0  0  0  0  0  0
  -17.0575    0.3757   31.9505 C   0  0  0  0  0  0  0  0  0  0  0  0
  -16.8105    0.3892   33.0827 C   0  0  0  0  0  0  0  0  0  0  0  0
  -17.6862    0.9071   34.1401 C   0  0  0  0  0  0  0  0  0  0  0  0
  -18.9776    1.2586   33.6592 C   0  0  0  0  0  0  0  0  0  0  0  0
  -19.9369    1.7235   34.5388 C   0  0  0  0  0  0  0  0  0  0  0  0
  -19.2592    1.1436   32.2890 C   0  0  0  0  0  0  0  0  0  0  0  0
  -18.2731    0.8049   31.3932 C   0  0  0  0  0  0  0  0  0  0  0  0
  -19.5379    2.1832   35.6172 N   0  0  0  0  0  0  0  0  0  0  0  0
  -21.0619    1.9752   34.0957 O   0  0  0  0  0  0  0  0  0  0  0  0
  -20.2254    2.7342   36.6021 C   0  0  0  0  0  0  0  0  0  0  0  0
  -21.2253    2.9807   36.9003 C   0  0  0  0  0  0  0  0  0  0  0  0
  -22.3309    2.5337   36.0367 C   0  0  0  0  0  0  0  0  0  0  0  0
  1  2  1  0
  2  3  1  0
  1  4  1  0
  6  4  1  6
  5  6  1  0
  7 11  1  0
 11 12  2  3
 11 13  1  0
  6 14  1  0
 13 14  1  0
  1 15  1  1
 12 16  1  0
 16 17  2  0
 12 18  1  0
 18 19  1  0
 19 20  1  0
 23 24  1  0
 24 27  1  0
 24 28  2  0
 27 29  1  0
 32 33  1  0
 33 36  1  0
 33 37  2  0
 36 38  1  0
 38 39  2  3
 39 40  1  0
 20 21  2  0
 21 22  1  0
 22 23  2  0
 23 25  1  0
 25 26  2  0
 26 20  1  0
 29 30  2  0
 30 31  1  0
 31 32  2  0
 32 34  1  0
 34 35  2  0
 35 29  1  0
  3  5  2  0
  5  7  1  0
  7  8  2  0
  8  9  1  0
  9 10  2  0
 10  3  1  0
M  END
$$$$
