No_1801-complexes_sdf/6BKW-FPZ/2024-09-17-14-21-01/
     RDKit          3D

 32 35  0  0  0  0  0  0  0  0999 V2000
   -7.2496    3.8871   27.4508 C   0  0  0  0  0  0  0  0  0  0  0  0
   -7.6161    2.7143   27.1523 C   0  0  0  0  0  0  0  0  0  0  0  0
   -8.8302    2.4659   26.5056 C   0  0  0  0  0  0  0  0  0  0  0  0
   -6.1096    4.2818   28.2555 C   0  0  0  0  0  0  0  0  0  0  0  0
   -9.6582    3.4917   26.1916 C   0  0  0  0  0  0  0  0  0  0  0  0
   -9.2732    4.7986   26.5150 C   0  0  0  0  0  0  0  0  0  0  0  0
   -8.1018    5.0187   27.2056 C   0  0  0  0  0  0  0  0  0  0  0  0
  -10.9065    3.3510   25.4123 C   0  0  0  0  0  0  0  0  0  0  0  0
  -10.9805    3.5902   24.0705 C   0  0  0  0  0  0  0  0  0  0  0  0
   -9.7705    4.0500   23.3589 C   0  0  0  0  0  0  0  0  0  0  0  0
  -10.1573    4.3257   22.1476 C   0  0  0  0  0  0  0  0  0  0  0  0
  -12.0358    3.7642   23.1689 C   0  0  0  0  0  0  0  0  0  0  0  0
  -11.5121    4.2306   21.9393 C   0  0  0  0  0  0  0  0  0  0  0  0
  -12.0816    2.9259   26.1270 C   0  0  0  0  0  0  0  0  0  0  0  0
  -12.5487    1.7157   26.1901 C   0  0  0  0  0  0  0  0  0  0  0  0
  -11.7178    0.6328   25.7008 C   0  0  0  0  0  0  0  0  0  0  0  0
  -12.1754   -0.7102   25.8128 C   0  0  0  0  0  0  0  0  0  0  0  0
  -13.4646   -0.8577   26.4102 C   0  0  0  0  0  0  0  0  0  0  0  0
  -14.2181    0.1301   26.8986 C   0  0  0  0  0  0  0  0  0  0  0  0
  -13.7623    1.4560   26.8315 C   0  0  0  0  0  0  0  0  0  0  0  0
  -12.7829    4.0682   26.7886 C   0  0  2  0  0  0  0  0  0  0  0  0
   -6.8104    1.6272   27.4401 N   0  0  0  0  0  0  0  0  0  0  0  0
   -7.1183    0.3499   27.5873 C   0  0  0  0  0  0  0  0  0  0  0  0
   -6.1491   -0.5782   28.0148 C   0  0  0  0  0  0  0  0  0  0  0  0
   -6.4162   -1.8925   28.2551 C   0  0  0  0  0  0  0  0  0  0  0  0
   -7.7560   -2.3023   27.9438 C   0  0  0  0  0  0  0  0  0  0  0  0
   -8.7132   -1.4356   27.5010 C   0  0  0  0  0  0  0  0  0  0  0  0
   -8.3440   -0.1000   27.3821 N   0  0  0  0  0  0  0  0  0  0  0  0
  -12.3885    4.4585   28.0528 C   0  0  0  0  0  0  0  0  0  0  0  0
  -13.9610    4.5997   26.1690 C   0  0  0  0  0  0  0  0  0  0  0  0
  -14.1744    4.8345   24.9370 C   0  0  0  0  0  0  0  0  0  0  0  0
  -15.2994    5.4566   24.3809 C   0  0  0  0  0  0  0  0  0  0  0  0
  1  4  1  0
  5  8  1  0
  8  9  2  3
  9 10  1  0
 10 11  2  0
  9 12  1  0
 11 13  1  0
 12 13  2  0
  8 14  1  0
 14 21  1  0
  2 22  1  0
 22 23  1  0
 21 29  1  1
 21 30  1  0
 30 31  2  3
 31 32  1  0
 14 15  1  0
 15 16  2  0
 16 17  1  0
 17 18  2  0
 18 19  1  0
 19 20  2  0
 20 15  1  0
 23 24  2  0
 24 25  1  0
 25 26  2  0
 26 27  1  0
 27 28  2  0
 28 23  1  0
  1  2  2  0
  2  3  1  0
  3  5  2  0
  5  6  1  0
  6  7  2  0
  7  1  1  0
M  END
$$$$
