No_1964-complexes_sdf/6BKW-FPZ/2024-09-17-14-21-01/
     RDKit          3D

 16 17  0  0  0  0  0  0  0  0999 V2000
   -7.7129    4.2099   27.0854 C   0  0  0  0  0  0  0  0  0  0  0  0
   -7.7814    5.1722   27.8972 C   0  0  0  0  0  0  0  0  0  0  0  0
   -8.8776    3.8408   26.3416 C   0  0  0  0  0  0  0  0  0  0  0  0
   -9.9844    4.6492   26.4743 C   0  0  0  0  0  0  0  0  0  0  0  0
   -8.7830    6.1594   27.8870 C   0  0  0  0  0  0  0  0  0  0  0  0
   -9.9269    5.8191   27.1183 C   0  0  0  0  0  0  0  0  0  0  0  0
   -8.6958    2.6189   25.5808 C   0  0  0  0  0  0  0  0  0  0  0  0
   -8.4078    1.4514   26.3197 C   0  0  0  0  0  0  0  0  0  0  0  0
   -8.0287    0.3158   25.6833 C   0  0  0  0  0  0  0  0  0  0  0  0
   -8.3674   -0.6067   26.0227 C   0  0  0  0  0  0  0  0  0  0  0  0
   -8.7935   -0.9629   27.4683 C   0  0  0  0  0  0  0  0  0  0  0  0
   -9.3617    0.2032   28.0945 C   0  0  0  0  0  0  0  0  0  0  0  0
   -9.5588    1.4289   27.3113 C   0  0  0  0  0  0  0  0  0  0  0  0
  -11.1213    4.2731   25.6388 C   0  0  0  0  0  0  0  0  0  0  0  0
  -11.1199    4.3289   24.2705 C   0  0  0  0  0  0  0  0  0  0  0  0
  -12.1589    4.0205   23.4832 C   0  0  0  0  0  0  0  0  0  0  0  0
  3  7  1  0
  7  8  1  0
  4 14  1  0
 14 15  2  3
 15 16  1  0
  8  9  2  0
  9 10  1  0
 10 11  2  0
 11 12  1  0
 12 13  2  0
 13  8  1  0
  1  2  2  0
  2  5  1  0
  5  6  2  0
  6  4  1  0
  4  3  2  0
  3  1  1  0
M  END
$$$$
