No_1152-complexes_sdf/6BKW-FPZ/2024-09-17-14-21-01/
     RDKit          3D

 22 23  0  0  0  0  0  0  0  0999 V2000
   -7.9040    3.9820   27.1177 C   0  0  0  0  0  0  0  0  0  0  0  0
   -8.2057    2.8231   26.8733 C   0  0  0  0  0  0  0  0  0  0  0  0
   -8.7695    5.0740   26.7916 C   0  0  0  0  0  0  0  0  0  0  0  0
   -8.4337    6.4678   27.0913 C   0  0  0  0  0  0  0  0  0  0  0  0
   -9.3742    2.4311   26.2346 C   0  0  0  0  0  0  0  0  0  0  0  0
  -10.2395    3.4267   25.8887 C   0  0  0  0  0  0  0  0  0  0  0  0
   -9.9567    4.7548   26.1374 C   0  0  0  0  0  0  0  0  0  0  0  0
   -7.8881    6.8714   28.1602 N   0  0  0  0  0  0  0  0  0  0  0  0
   -8.7714    7.4102   26.1908 N   0  0  0  0  0  0  0  0  0  0  0  0
   -7.2517    1.6778   27.2784 C   0  0  0  0  0  0  0  0  0  0  0  0
   -7.5645    0.3299   27.1678 C   0  0  0  0  0  0  0  0  0  0  0  0
   -6.6104   -0.5699   27.5110 C   0  0  0  0  0  0  0  0  0  0  0  0
   -5.3638   -0.1483   28.0400 C   0  0  0  0  0  0  0  0  0  0  0  0
   -5.0912    1.2105   28.1698 C   0  0  0  0  0  0  0  0  0  0  0  0
   -5.9339    2.0946   27.7899 C   0  0  0  0  0  0  0  0  0  0  0  0
   -4.3827   -1.1893   28.5225 C   0  0  0  0  0  0  0  0  0  0  0  0
   -3.9410   -2.0071   27.8175 C   0  0  0  0  0  0  0  0  0  0  0  0
   -2.8758   -2.9542   28.2176 C   0  0  0  0  0  0  0  0  0  0  0  0
   -4.0001   -1.0780   29.9407 C   0  0  0  0  0  0  0  0  0  0  0  0
   -2.9933   -1.9563   30.4150 C   0  0  0  0  0  0  0  0  0  0  0  0
   -2.4585   -2.8949   29.5662 C   0  0  0  0  0  0  0  0  0  0  0  0
   -1.5453   -3.7088   30.0278 F   0  0  0  0  0  0  0  0  0  0  0  0
  3  4  1  0
  4  8  2  0
  4  9  1  0
  2 10  1  0
 13 16  1  0
 16 17  2  3
 17 18  1  0
 16 19  1  0
 19 20  2  3
 20 21  1  0
 21 22  1  0
  1  2  2  0
  2  5  1  0
  5  6  2  0
  6  7  1  0
  7  3  2  0
  3  1  1  0
 10 11  2  0
 11 12  1  0
 12 13  2  0
 13 14  1  0
 14 15  2  0
 15 10  1  0
M  END
$$$$
