No_1572-complexes_sdf/6BKW-FPZ/2024-09-17-14-21-01/
     RDKit          3D

 27 29  0  0  0  0  0  0  0  0999 V2000
   -7.2496    3.8871   27.4508 C   0  0  0  0  0  0  0  0  0  0  0  0
   -7.9379    4.9063   27.8518 C   0  0  0  0  0  0  0  0  0  0  0  0
   -7.5112    6.1898   27.6280 C   0  0  0  0  0  0  0  0  0  0  0  0
   -7.8078    2.6331   27.2522 C   0  0  2  0  0  0  0  0  0  0  0  0
   -9.1846    2.4724   27.5426 C   0  0  0  0  0  0  0  0  0  0  0  0
   -9.9168    3.5155   28.0405 C   0  0  0  0  0  0  0  0  0  0  0  0
   -9.3366    4.7963   28.1727 C   0  0  0  0  0  0  0  0  0  0  0  0
  -11.3251    3.2741   28.4031 C   0  0  0  0  0  0  0  0  0  0  0  0
  -11.8022    2.0322   28.7055 C   0  0  0  0  0  0  0  0  0  0  0  0
  -13.1146    1.8250   29.1070 C   0  0  0  0  0  0  0  0  0  0  0  0
  -13.9407    2.9390   29.3089 C   0  0  0  0  0  0  0  0  0  0  0  0
  -13.5179    4.2135   28.9982 C   0  0  0  0  0  0  0  0  0  0  0  0
  -12.2019    4.4090   28.5809 C   0  0  0  0  0  0  0  0  0  0  0  0
   -7.0583    1.4361   26.8675 C   0  0  0  0  0  0  0  0  0  0  0  0
   -7.0782    0.3556   27.7332 C   0  0  0  0  0  0  0  0  0  0  0  0
   -6.7817   -0.8414   27.1117 C   0  0  0  0  0  0  0  0  0  0  0  0
   -6.4897   -0.8030   25.8268 C   0  0  0  0  0  0  0  0  0  0  0  0
   -6.8361    0.1040   24.8856 C   0  0  0  0  0  0  0  0  0  0  0  0
   -7.5423    1.2363   25.4354 C   0  0  0  0  0  0  0  0  0  0  0  0
   -6.7522   -2.0451   27.9132 C   0  0  0  0  0  0  0  0  0  0  0  0
   -6.0798   -2.3364   28.7518 O   0  0  0  0  0  0  0  0  0  0  0  0
   -7.7585   -2.8930   27.5184 O   0  0  0  0  0  0  0  0  0  0  0  0
  -15.3616    2.6994   29.7272 C   0  0  0  0  0  0  0  0  0  0  0  0
  -15.7817    2.6030   30.8481 F   0  0  0  0  0  0  0  0  0  0  0  0
  -16.1043    3.7594   29.1087 F   0  0  0  0  0  0  0  0  0  0  0  0
  -15.8285    1.5559   28.9971 F   0  0  0  0  0  0  0  0  0  0  0  0
   -7.4872    6.5244   26.5063 F   0  0  0  0  0  0  0  0  0  0  0  0
  1  2  1  0
  2  3  2  3
  1  4  1  0
  4  5  1  0
  5  6  1  0
  2  7  1  0
  6  7  1  0
  6  8  1  0
  4 14  1  1
 16 20  1  0
 20 21  1  0
 20 22  2  0
 11 23  1  0
 23 24  1  0
 23 25  1  0
 23 26  1  0
  3 27  1  0
 14 15  2  0
 15 16  1  0
 16 17  2  0
 17 18  1  0
 18 19  2  0
 19 14  1  0
  8  9  2  0
  9 10  1  0
 10 11  2  0
 11 12  1  0
 12 13  2  0
 13  8  1  0
M  END
$$$$
