No_1047-complexes_sdf/6BKW-FPZ/2024-09-17-14-21-01/
     RDKit          3D

 15 16  0  0  0  0  0  0  0  0999 V2000
   -7.7129    4.2099   27.0854 C   0  0  0  0  0  0  0  0  0  0  0  0
   -7.7814    5.1722   27.8972 C   0  0  0  0  0  0  0  0  0  0  0  0
   -8.8776    3.8408   26.3416 C   0  0  0  0  0  0  0  0  0  0  0  0
   -8.9136    2.6330   25.5655 C   0  0  0  0  0  0  0  0  0  0  0  0
   -8.8361    6.1389   27.9032 C   0  0  0  0  0  0  0  0  0  0  0  0
   -9.9718    4.7048   26.3433 C   0  0  0  0  0  0  0  0  0  0  0  0
   -9.9205    5.8499   27.1013 C   0  0  0  0  0  0  0  0  0  0  0  0
   -9.7365    2.4900   24.5916 N   0  0  0  0  0  0  0  0  0  0  0  0
   -9.7107    1.4625   23.7452 C   0  0  0  0  0  0  0  0  0  0  0  0
   -8.1585    1.5531   25.9323 C   0  0  0  0  0  0  0  0  0  0  0  0
   -8.1452    0.3873   25.2245 C   0  0  0  0  0  0  0  0  0  0  0  0
  -10.5504    1.3949   22.5826 C   0  0  0  0  0  0  0  0  0  0  0  0
   -8.9081    0.3694   24.0359 C   0  0  0  0  0  0  0  0  0  0  0  0
  -10.7701    2.5671   21.9397 C   0  0  0  0  0  0  0  0  0  0  0  0
  -11.5454    2.6079   20.7124 C   0  0  0  0  0  0  0  0  0  0  0  0
  3  4  1  0
  9 12  1  0
 12 14  2  3
 14 15  1  0
  4  8  2  0
  8  9  1  0
  9 13  2  0
 13 11  1  0
 11 10  2  0
 10  4  1  0
  1  2  2  0
  2  5  1  0
  5  7  2  0
  7  6  1  0
  6  3  2  0
  3  1  1  0
M  END
$$$$
