No_1987-complexes_sdf/6BKW-FPZ/2024-09-17-14-21-01/
     RDKit          3D

 28 32  0  0  0  0  0  0  0  0999 V2000
   -7.7129    4.2099   27.0854 C   0  0  0  0  0  0  0  0  0  0  0  0
   -8.9133    4.4736   27.0998 C   0  0  0  0  0  0  0  0  0  0  0  0
   -9.7937    3.7367   26.2091 C   0  0  0  0  0  0  0  0  0  0  0  0
   -6.8266    5.0441   28.0594 C   0  0  0  0  0  0  0  0  0  0  0  0
   -9.2322    2.6276   25.6126 C   0  0  0  0  0  0  0  0  0  0  0  0
   -7.9794    2.1924   25.9863 C   0  0  0  0  0  0  0  0  0  0  0  0
   -7.2411    2.9387   26.9009 C   0  0  0  0  0  0  0  0  0  0  0  0
  -10.0593    1.7685   24.7435 C   0  0  0  0  0  0  0  0  0  0  0  0
   -9.4294    1.0407   23.8340 C   0  0  0  0  0  0  0  0  0  0  0  0
  -10.1450    0.3712   22.8515 C   0  0  0  0  0  0  0  0  0  0  0  0
  -11.5261    0.4576   22.7805 C   0  0  0  0  0  0  0  0  0  0  0  0
  -11.4430    1.7209   24.7701 C   0  0  0  0  0  0  0  0  0  0  0  0
  -12.1543    1.1376   23.7635 C   0  0  0  0  0  0  0  0  0  0  0  0
   -9.4878    5.8394   27.4793 C   0  0  0  0  0  0  0  0  0  0  0  0
  -13.6355    1.1473   23.7350 C   0  0  0  0  0  0  0  0  0  0  0  0
  -14.3861    1.5218   24.6605 N   0  0  0  0  0  0  0  0  0  0  0  0
  -14.2278    0.7530   22.6771 O   0  0  0  0  0  0  0  0  0  0  0  0
  -15.7853    1.6230   24.7311 C   0  0  0  0  0  0  0  0  0  0  0  0
  -16.4265    1.9284   25.6347 C   0  0  0  0  0  0  0  0  0  0  0  0
  -15.7390    2.3626   26.8949 C   0  0  0  0  0  0  0  0  0  0  0  0
  -16.3957    2.7739   28.0891 C   0  0  0  0  0  0  0  0  0  0  0  0
  -15.5279    3.2031   29.0936 C   0  0  0  0  0  0  0  0  0  0  0  0
  -14.0701    3.2186   29.0133 C   0  0  0  0  0  0  0  0  0  0  0  0
  -13.5389    2.7802   27.8057 C   0  0  0  0  0  0  0  0  0  0  0  0
  -14.3063    2.4389   26.8097 C   0  0  0  0  0  0  0  0  0  0  0  0
  -13.6808    2.1022   25.5476 C   0  0  1  0  0  0  0  0  0  0  0  0
  -12.2560    2.2115   25.6536 C   0  0  0  0  0  0  0  0  0  0  0  0
  -17.5984    2.7969   28.2530 F   0  0  0  0  0  0  0  0  0  0  0  0
  1  4  1  0
  5  8  1  0
  2 14  1  0
 13 15  1  0
 15 16  1  0
 15 17  2  0
 16 18  1  0
 19 20  1  0
 16 26  1  0
 25 26  1  0
 12 27  1  0
 26 27  1  1
 21 28  1  0
 18 19  1  0
  1  2  2  0
  2  3  1  0
  3  5  2  0
  5  6  1  0
  6  7  2  0
  7  1  1  0
 20 21  2  0
 21 22  1  0
 22 23  2  0
 23 24  1  0
 24 25  2  0
 25 20  1  0
  8  9  2  0
  9 10  1  0
 10 11  2  0
 11 13  1  0
 13 12  2  0
 12  8  1  0
M  END
$$$$
