No_1085-complexes_sdf/6BKW-FPZ/2024-09-17-14-21-01/
     RDKit          3D

 12 12  0  0  0  0  0  0  0  0999 V2000
   -7.2496    3.8871   27.4508 C   0  0  0  0  0  0  0  0  0  0  0  0
   -7.6161    2.7143   27.1523 C   0  0  0  0  0  0  0  0  0  0  0  0
   -7.1618    1.8631   27.5233 C   0  0  0  0  0  0  0  0  0  0  0  0
   -8.0036    5.1085   27.2100 C   0  0  0  0  0  0  0  0  0  0  0  0
   -9.0765    5.1561   26.4023 C   0  0  0  0  0  0  0  0  0  0  0  0
   -9.5423    3.9740   25.8512 C   0  0  0  0  0  0  0  0  0  0  0  0
   -8.8464    2.7351   26.2620 C   0  0  0  0  0  0  0  0  0  0  0  0
   -6.7990    0.7053   27.0531 C   0  0  0  0  0  0  0  0  0  0  0  0
   -5.9448   -0.2956   27.6439 C   0  0  0  0  0  0  0  0  0  0  0  0
   -5.0910   -0.1541   28.2327 C   0  0  0  0  0  0  0  0  0  0  0  0
   -4.2739   -1.1113   28.9597 C   0  0  0  0  0  0  0  0  0  0  0  0
   -4.4978   -2.3882   28.5429 C   0  0  0  0  0  0  0  0  0  0  0  0
  3  8  1  0
  8  9  2  3
  9 10  1  0
 10 11  2  3
 11 12  1  0
  3  2  1  0
  1  2  2  0
  2  7  1  0
  7  6  2  0
  6  5  1  0
  5  4  2  0
  4  1  1  0
M  END
$$$$
