No_1568-complexes_sdf/6BKW-FPZ/2024-09-17-14-21-01/
     RDKit          3D

 21 22  0  0  0  0  0  0  0  0999 V2000
   -7.7129    4.2099   27.0854 C   0  0  0  0  0  0  0  0  0  0  0  0
   -8.9133    4.4736   27.0998 C   0  0  2  0  0  0  0  0  0  0  0  0
   -9.4643    5.5426   27.7628 C   0  0  0  0  0  0  0  0  0  0  0  0
   -9.8667    3.2949   27.0778 C   0  0  0  0  0  0  0  0  0  0  0  0
  -10.1240    2.9067   25.8803 C   0  0  0  0  0  0  0  0  0  0  0  0
  -10.0026    3.7707   24.8327 C   0  0  0  0  0  0  0  0  0  0  0  0
   -9.7821    5.0971   25.0606 C   0  0  0  0  0  0  0  0  0  0  0  0
  -10.4310    3.3652   23.4476 C   0  0  0  0  0  0  0  0  0  0  0  0
  -10.9467    4.2413   22.5904 C   0  0  0  0  0  0  0  0  0  0  0  0
   -7.0099    3.7550   28.3193 C   0  0  0  0  0  0  0  0  0  0  0  0
   -5.6084    3.1729   28.0279 C   0  0  0  0  0  0  0  0  0  0  0  0
  -11.2435    5.5265   23.1456 C   0  0  0  0  0  0  0  0  0  0  0  0
  -10.3767    6.0326   24.0553 C   0  0  0  0  0  0  0  0  0  0  0  0
   -5.7030    1.9428   27.4544 O   0  0  0  0  0  0  0  0  0  0  0  0
   -4.7358    1.0317   27.9231 C   0  0  0  0  0  0  0  0  0  0  0  0
   -5.1152   -0.2460   27.9194 C   0  0  0  0  0  0  0  0  0  0  0  0
   -4.6826   -1.0710   28.8174 C   0  0  0  0  0  0  0  0  0  0  0  0
   -5.2545   -2.2989   29.1636 C   0  0  0  0  0  0  0  0  0  0  0  0
   -6.3342   -2.6974   28.3281 C   0  0  0  0  0  0  0  0  0  0  0  0
   -6.8669   -1.8569   27.3752 C   0  0  0  0  0  0  0  0  0  0  0  0
   -6.3434   -0.5776   27.2582 C   0  0  0  0  0  0  0  0  0  0  0  0
  1  2  1  0
  2  3  1  1
  2  4  1  0
  4  5  2  3
  5  6  1  0
  1 10  1  0
 10 11  1  0
 11 14  1  0
 14 15  1  0
 15 16  1  0
  6  7  2  0
  7 13  1  0
 13 12  2  0
 12  9  1  0
  9  8  2  0
  8  6  1  0
 16 17  2  0
 17 18  1  0
 18 19  2  0
 19 20  1  0
 20 21  2  0
 21 16  1  0
M  END
$$$$
