No_1779-complexes_sdf/6BKW-FPZ/2024-09-17-14-21-01/
     RDKit          3D

 40 44  0  0  0  0  0  0  0  0999 V2000
   -7.7129    4.2099   27.0854 C   0  0  0  0  0  0  0  0  0  0  0  0
   -8.2112    3.0637   26.9225 C   0  0  0  0  0  0  0  0  0  0  0  0
   -7.5138    1.9223   27.4249 C   0  0  0  0  0  0  0  0  0  0  0  0
   -6.5434    4.4363   27.9024 C   0  0  0  0  0  0  0  0  0  0  0  0
   -8.0049    0.5813   27.2334 C   0  0  0  0  0  0  0  0  0  0  0  0
   -5.7469    3.2786   28.1492 C   0  0  0  0  0  0  0  0  0  0  0  0
   -6.2627    2.0260   27.9887 C   0  0  0  0  0  0  0  0  0  0  0  0
   -7.8068   -0.1101   26.2938 C   0  0  0  0  0  0  0  0  0  0  0  0
   -8.3762   -1.4206   26.0829 C   0  0  0  0  0  0  0  0  0  0  0  0
   -8.2615   -2.0678   24.9014 C   0  0  0  0  0  0  0  0  0  0  0  0
   -7.4332   -1.4958   23.8458 C   0  0  0  0  0  0  0  0  0  0  0  0
   -6.8685   -0.2643   23.9804 C   0  0  0  0  0  0  0  0  0  0  0  0
   -7.0125    0.4476   25.0957 C   0  0  0  0  0  0  0  0  0  0  0  0
   -8.6403    5.3157   26.7861 C   0  0  1  0  0  0  0  0  0  0  0  0
   -8.6179    6.5265   27.6159 C   0  0  0  0  0  0  0  0  0  0  0  0
   -9.3953    5.2571   25.6194 C   0  0  0  0  0  0  0  0  0  0  0  0
   -5.3888    0.9095   28.3502 C   0  0  0  0  0  0  0  0  0  0  0  0
   -4.4625    0.3688   27.8327 C   0  0  0  0  0  0  0  0  0  0  0  0
   -3.6839   -0.7051   28.3416 C   0  0  0  0  0  0  0  0  0  0  0  0
   -3.9657   -1.1619   29.6385 C   0  0  0  0  0  0  0  0  0  0  0  0
   -4.9987   -0.5735   30.3251 C   0  0  0  0  0  0  0  0  0  0  0  0
   -5.6550    0.4250   29.7419 C   0  0  0  0  0  0  0  0  0  0  0  0
   -5.2926   -1.0326   31.7047 C   0  0  0  0  0  0  0  0  0  0  0  0
   -4.8117   -1.7314   32.4067 C   0  0  0  0  0  0  0  0  0  0  0  0
   -4.8471   -2.1123   33.6299 C   0  0  0  0  0  0  0  0  0  0  0  0
   -5.9945   -1.4941   34.3348 C   0  0  0  0  0  0  0  0  0  0  0  0
   -6.7635   -0.6772   33.5557 C   0  0  0  0  0  0  0  0  0  0  0  0
   -6.4037   -0.3553   32.2893 C   0  0  0  0  0  0  0  0  0  0  0  0
   -2.5286   -1.2942   27.6065 C   0  0  0  0  0  0  0  0  0  0  0  0
   -2.8407   -2.1631   26.7780 C   0  0  0  0  0  0  0  0  0  0  0  0
   -3.7467   -1.9711   25.8050 C   0  0  0  0  0  0  0  0  0  0  0  0
   -4.1573   -2.9845   24.8265 C   0  0  0  0  0  0  0  0  0  0  0  0
   -3.3622   -4.0807   24.7367 C   0  0  0  0  0  0  0  0  0  0  0  0
   -2.3168   -4.2986   25.5915 C   0  0  0  0  0  0  0  0  0  0  0  0
   -1.9914   -3.3749   26.5870 C   0  0  0  0  0  0  0  0  0  0  0  0
   -7.2680   -2.2664   22.5651 C   0  0  0  0  0  0  0  0  0  0  0  0
   -7.3138   -3.4642   22.5822 O   0  0  0  0  0  0  0  0  0  0  0  0
   -6.8861   -1.6216   21.4763 O   0  0  0  0  0  0  0  0  0  0  0  0
   -6.4046   -1.8799   35.9563 Cl  0  0  0  0  0  0  0  0  0  0  0  0
  -10.3538    4.4724   25.5708 O   0  0  0  0  0  0  0  0  0  0  0  0
  3  5  1  0
  1 14  1  0
 14 15  1  6
 14 16  1  0
  7 17  1  0
 21 23  1  0
 19 29  1  0
 29 30  1  0
 11 36  1  0
 36 37  2  0
 36 38  1  0
 26 39  1  0
 16 40  2  0
  5  8  1  0
 23 24  2  0
 24 25  1  0
 25 26  2  0
 26 27  1  0
 27 28  2  0
 28 23  1  0
 30 31  2  0
 31 32  1  0
 32 33  2  0
 33 34  1  0
 34 35  2  0
 35 30  1  0
  1  2  2  0
  2  3  1  0
  3  7  2  0
  7  6  1  0
  6  4  2  0
  4  1  1  0
 17 18  2  0
 18 19  1  0
 19 20  2  0
 20 21  1  0
 21 22  2  0
 22 17  1  0
  8  9  2  0
  9 10  1  0
 10 11  2  0
 11 12  1  0
 12 13  2  0
 13  8  1  0
M  END
$$$$
