No_1919-complexes_sdf/6BKW-FPZ/2024-09-17-14-21-01/
     RDKit          3D

 10 10  0  0  0  0  0  0  0  0999 V2000
   -7.2496    3.8871   27.4508 C   0  0  0  0  0  0  0  0  0  0  0  0
   -7.6161    2.7143   27.1523 C   0  0  0  0  0  0  0  0  0  0  0  0
   -8.6212    2.2239   26.4074 C   0  0  0  0  0  0  0  0  0  0  0  0
   -8.2539    4.9237   27.1711 C   0  0  0  0  0  0  0  0  0  0  0  0
   -9.3729    4.5807   26.4433 C   0  0  0  0  0  0  0  0  0  0  0  0
   -8.9160    0.9341   26.0822 C   0  0  0  0  0  0  0  0  0  0  0  0
   -9.6005    3.2666   26.0852 C   0  0  0  0  0  0  0  0  0  0  0  0
   -7.8519    6.5649   27.5898 Cl  0  0  0  0  0  0  0  0  0  0  0  0
   -9.2852    0.0475   26.9701 C   0  0  0  0  0  0  0  0  0  0  0  0
   -9.5529   -1.3436   26.7615 C   0  0  0  0  0  0  0  0  0  0  0  0
  3  6  1  0
  4  8  1  0
  6  9  2  3
  9 10  1  0
  1  2  2  0
  2  3  1  0
  3  7  2  0
  7  5  1  0
  5  4  2  0
  4  1  1  0
M  END
$$$$
