No_1860-complexes_sdf/6BKW-FPZ/2024-09-17-14-21-01/
     RDKit          3D

 26 30  0  0  0  0  0  0  0  0999 V2000
   -7.2496    3.8871   27.4508 C   0  0  0  0  0  0  0  0  0  0  0  0
   -7.6161    2.7143   27.1523 C   0  0  0  0  0  0  0  0  0  0  0  0
   -7.1619    1.8631   27.5232 C   0  0  0  0  0  0  0  0  0  0  0  0
   -8.0384    5.0866   27.3232 C   0  0  0  0  0  0  0  0  0  0  0  0
   -7.6402    6.3228   27.8917 C   0  0  0  0  0  0  0  0  0  0  0  0
   -7.4924    0.4564   27.3026 C   0  0  0  0  0  0  0  0  0  0  0  0
   -9.3836    4.8897   26.8950 C   0  0  0  0  0  0  0  0  0  0  0  0
   -9.8200    3.6647   26.4991 C   0  0  0  0  0  0  0  0  0  0  0  0
   -9.0298    2.5763   26.6788 C   0  0  0  0  0  0  0  0  0  0  0  0
   -8.7657    0.2584   26.7878 C   0  0  0  0  0  0  0  0  0  0  0  0
   -9.5622    1.3151   26.4814 C   0  0  0  0  0  0  0  0  0  0  0  0
   -7.6717    7.3811   27.2191 N   0  0  0  0  0  0  0  0  0  0  0  0
   -9.2107   -1.1426   26.6272 C   0  0  0  0  0  0  0  0  0  0  0  0
   -8.8436   -2.0037   27.1496 C   0  0  0  0  0  0  0  0  0  0  0  0
   -9.3706   -3.3332   27.0966 C   0  0  0  0  0  0  0  0  0  0  0  0
  -10.4787   -3.5018   26.2918 C   0  0  0  0  0  0  0  0  0  0  0  0
  -10.3980   -1.3701   25.7447 C   0  0  0  0  0  0  0  0  0  0  0  0
  -10.8752   -0.1443   24.9550 C   0  0  0  0  0  0  0  0  0  0  0  0
  -10.9592   -2.4866   25.5702 C   0  0  0  0  0  0  0  0  0  0  0  0
  -10.9125    1.1164   26.0781 C   0  0  0  0  0  0  0  0  0  0  0  0
  -10.0248    0.2828   23.8452 C   0  0  0  0  0  0  0  0  0  0  0  0
  -10.6109    0.0588   22.6638 C   0  0  0  0  0  0  0  0  0  0  0  0
   -9.8332    0.3948   21.5070 C   0  0  0  0  0  0  0  0  0  0  0  0
   -8.5620    1.0262   21.6606 C   0  0  0  0  0  0  0  0  0  0  0  0
   -8.7125    0.8877   23.7417 C   0  0  0  0  0  0  0  0  0  0  0  0
   -8.0335    1.1884   22.8196 C   0  0  0  0  0  0  0  0  0  0  0  0
  4  5  1  0
  5 12  2  0
 18 21  1  0
 21 22  2  0
 22 23  1  0
 23 24  2  0
 24 26  1  0
 26 25  2  0
 25 21  1  0
 11 20  2  0
 20 18  1  0
 18 17  2  0
 13 10  2  0
  1  2  2  0
  9  8  2  0
  8  7  1  0
  7  4  2  0
  4  1  1  0
 13 14  1  0
 14 15  2  0
 15 16  1  0
 16 19  2  0
 19 17  1  0
 17 13  1  0
  2  3  1  0
  3  6  2  0
  6 10  1  0
 10 11  1  0
 11  9  1  0
  9  2  1  0
M  END
$$$$
