No_142-complexes_sdf/6BKW-FPZ/2024-09-17-14-21-01/
     RDKit          3D

 12 13  0  0  0  0  0  0  0  0999 V2000
   -7.2496    3.8871   27.4508 C   0  0  0  0  0  0  0  0  0  0  0  0
   -7.9379    4.9063   27.8518 C   0  0  0  0  0  0  0  0  0  0  0  0
   -7.4895    6.2027   27.7481 C   0  0  0  0  0  0  0  0  0  0  0  0
   -7.8057    2.6324   27.3137 C   0  0  0  0  0  0  0  0  0  0  0  0
   -9.1872    2.4678   27.5434 C   0  0  0  0  0  0  0  0  0  0  0  0
   -9.9237    3.5447   27.9999 C   0  0  0  0  0  0  0  0  0  0  0  0
   -9.3832    4.8080   28.1012 C   0  0  0  0  0  0  0  0  0  0  0  0
  -11.6023    3.2652   28.3660 Cl  0  0  0  0  0  0  0  0  0  0  0  0
   -7.0700    1.6056   26.9084 F   0  0  0  0  0  0  0  0  0  0  0  0
   -8.1997    7.2641   27.1873 N   0  0  0  0  0  0  0  0  0  0  0  0
   -9.4114    7.0290   26.6386 C   0  0  0  0  0  0  0  0  0  0  0  0
   -9.7545    5.5828   26.7323 C   0  0  0  0  0  0  0  0  0  0  0  0
  2  3  1  0
  6  8  1  0
  4  9  1  0
  3 10  1  0
 10 11  1  0
  7 12  1  0
 11 12  1  0
  1  2  2  0
  2  7  1  0
  7  6  2  0
  6  5  1  0
  5  4  2  0
  4  1  1  0
M  END
$$$$
