No_1035-complexes_sdf/6BKW-FPZ/2024-09-17-14-21-01/
     RDKit          3D

 16 17  0  0  0  0  0  0  0  0999 V2000
   -7.9040    3.9820   27.1177 C   0  0  0  0  0  0  0  0  0  0  0  0
   -8.2057    2.8231   26.8733 C   0  0  0  0  0  0  0  0  0  0  0  0
   -9.2962    2.4021   26.1155 C   0  0  0  0  0  0  0  0  0  0  0  0
   -8.7358    5.0662   26.5917 C   0  0  0  0  0  0  0  0  0  0  0  0
   -8.4603    6.4492   26.8781 C   0  0  0  0  0  0  0  0  0  0  0  0
  -10.1146    3.3815   25.6105 C   0  0  0  0  0  0  0  0  0  0  0  0
   -9.8194    4.7235   25.8263 C   0  0  0  0  0  0  0  0  0  0  0  0
   -8.0990    7.5398   27.0611 N   0  0  0  0  0  0  0  0  0  0  0  0
   -9.5383    0.9649   25.9178 C   0  0  1  0  0  0  0  0  0  0  0  0
  -10.5149    0.4301   26.4488 C   0  0  0  0  0  0  0  0  0  0  0  0
  -11.4505    0.8720   27.0352 C   0  0  0  0  0  0  0  0  0  0  0  0
  -12.5139    0.1073   27.8012 C   0  0  0  0  0  0  0  0  0  0  0  0
  -12.3898   -1.2432   27.7389 C   0  0  0  0  0  0  0  0  0  0  0  0
  -11.3911   -1.8463   27.1219 C   0  0  0  0  0  0  0  0  0  0  0  0
  -10.3953   -1.1321   26.5496 C   0  0  0  0  0  0  0  0  0  0  0  0
   -8.5704    0.3374   25.0057 C   0  0  0  0  0  0  0  0  0  0  0  0
  4  5  1  0
  5  8  3  0
  3  9  1  0
  9 10  1  0
  9 16  1  6
  1  2  2  0
  2  3  1  0
  3  6  2  0
  6  7  1  0
  7  4  2  0
  4  1  1  0
 10 11  2  0
 11 12  1  0
 12 13  2  0
 13 14  1  0
 14 15  2  0
 15 10  1  0
M  END
$$$$
