No_1827-complexes_sdf/6BKW-FPZ/2024-09-17-14-21-01/
     RDKit          3D

 30 32  0  0  0  0  0  0  0  0999 V2000
   -7.9040    3.9820   27.1177 C   0  0  0  0  0  0  0  0  0  0  0  0
   -7.8663    4.8694   27.9238 C   0  0  0  0  0  0  0  0  0  0  0  0
   -7.4547    2.7080   27.4594 C   0  0  0  0  0  0  0  0  0  0  0  0
   -7.9337    1.5946   26.8372 C   0  0  0  0  0  0  0  0  0  0  0  0
   -8.9032    1.7881   25.8510 C   0  0  0  0  0  0  0  0  0  0  0  0
   -9.3787    2.9871   25.5530 C   0  0  0  0  0  0  0  0  0  0  0  0
   -8.9781    4.0300   26.2200 C   0  0  0  0  0  0  0  0  0  0  0  0
   -8.2454    6.2265   27.6332 N   0  0  0  0  0  0  0  0  0  0  0  0
   -9.1370    6.4942   26.6420 C   0  0  0  0  0  0  0  0  0  0  0  0
   -9.5342    5.3848   25.8994 C   0  0  0  0  0  0  0  0  0  0  0  0
   -7.3267    0.2684   27.1292 C   0  0  0  0  0  0  0  0  0  0  0  0
   -7.9608   -0.7376   27.2606 O   0  0  0  0  0  0  0  0  0  0  0  0
   -6.0326    0.2557   27.3006 O   0  0  0  0  0  0  0  0  0  0  0  0
   -5.3441   -0.6143   27.9233 C   0  0  0  0  0  0  0  0  0  0  0  0
   -3.9691   -0.5316   27.6807 C   0  0  0  0  0  0  0  0  0  0  0  0
   -3.5655    0.5644   26.9806 C   0  0  0  0  0  0  0  0  0  0  0  0
   -3.0424   -1.4990   28.0901 C   0  0  0  0  0  0  0  0  0  0  0  0
   -4.1758    1.4923   26.6280 O   0  0  0  0  0  0  0  0  0  0  0  0
   -2.1651    0.7302   26.9475 O   0  0  0  0  0  0  0  0  0  0  0  0
   -3.3413   -2.6261   27.9525 C   0  0  0  0  0  0  0  0  0  0  0  0
   -2.4156   -3.6222   28.2751 C   0  0  0  0  0  0  0  0  0  0  0  0
   -1.1837   -3.2786   28.9328 C   0  0  0  0  0  0  0  0  0  0  0  0
   -0.8985   -1.9009   29.1202 C   0  0  0  0  0  0  0  0  0  0  0  0
   -1.7932   -0.9828   28.7462 C   0  0  0  0  0  0  0  0  0  0  0  0
  -10.3318    3.0613   24.4106 C   0  0  2  0  0  0  0  0  0  0  0  0
   -9.9408    3.3658   23.1819 C   0  0  0  0  0  0  0  0  0  0  0  0
  -11.6793    2.8779   24.7170 C   0  0  0  0  0  0  0  0  0  0  0  0
  -12.1695    2.5334   25.8532 C   0  0  0  0  0  0  0  0  0  0  0  0
  -13.5280    2.3920   26.1131 C   0  0  0  0  0  0  0  0  0  0  0  0
  -14.3418    2.5885   25.0336 C   0  0  0  0  0  0  0  0  0  0  0  0
  4 11  1  0
 11 12  2  0
 11 13  1  0
 13 14  1  0
 14 15  1  0
 15 16  1  0
 15 17  1  0
 16 18  1  0
 16 19  2  0
  6 25  1  0
 25 26  1  1
 25 27  1  0
 27 28  1  0
 28 29  2  3
 29 30  1  0
 17 20  2  0
 20 21  1  0
 21 22  2  0
 22 23  1  0
 23 24  2  0
 24 17  1  0
  1  2  2  0
  2  8  1  0
  8  9  2  0
  9 10  1  0
 10  7  2  0
  1  3  1  0
  3  4  2  0
  4  5  1  0
  5  6  2  0
  6  7  1  0
  7  1  1  0
M  END
$$$$
