No_116-complexes_sdf/6BKW-FPZ/2024-09-17-14-21-01/
     RDKit          3D

 30 34  0  0  0  0  0  0  0  0999 V2000
   -7.2496    3.8871   27.4508 C   0  0  0  0  0  0  0  0  0  0  0  0
   -7.6161    2.7143   27.1523 C   0  0  0  0  0  0  0  0  0  0  0  0
   -7.1618    1.8631   27.5232 C   0  0  0  0  0  0  0  0  0  0  0  0
   -8.0384    5.0866   27.3232 C   0  0  0  0  0  0  0  0  0  0  0  0
   -9.1223    5.1097   26.4856 C   0  0  0  0  0  0  0  0  0  0  0  0
   -8.9186    2.6660   26.4794 C   0  0  0  0  0  0  0  0  0  0  0  0
   -9.6149    3.8296   26.1383 C   0  0  0  0  0  0  0  0  0  0  0  0
   -5.7249    1.8517   28.0476 C   0  0  0  0  0  0  0  0  0  0  0  0
   -4.7754    1.7672   27.7361 C   0  0  0  0  0  0  0  0  0  0  0  0
   -3.9437    1.1518   26.7363 C   0  0  0  0  0  0  0  0  0  0  0  0
   -2.5289    1.1041   26.7297 C   0  0  0  0  0  0  0  0  0  0  0  0
   -7.4791    6.4562   27.7375 C   0  0  0  0  0  0  0  0  0  0  0  0
   -7.5932    0.4003   27.3769 C   0  0  0  0  0  0  0  0  0  0  0  0
   -6.9193   -0.5731   26.9923 C   0  0  0  0  0  0  0  0  0  0  0  0
   -7.5281   -1.8603   26.8188 C   0  0  0  0  0  0  0  0  0  0  0  0
   -8.8883   -1.9198   26.9349 C   0  0  0  0  0  0  0  0  0  0  0  0
   -9.6696   -0.8709   27.3615 C   0  0  0  0  0  0  0  0  0  0  0  0
   -9.0207    0.3311   27.5676 C   0  0  0  0  0  0  0  0  0  0  0  0
   -1.9801    0.1534   25.8880 C   0  0  0  0  0  0  0  0  0  0  0  0
   -2.8670   -0.9366   25.4500 C   0  0  0  0  0  0  0  0  0  0  0  0
   -4.3388   -0.1135   26.2386 N   0  0  0  0  0  0  0  0  0  0  0  0
   -9.6487    1.4216   26.3629 C   0  0  0  0  0  0  0  0  0  0  0  0
  -10.7955    3.7892   25.2438 C   0  0  0  0  0  0  0  0  0  0  0  0
  -12.0124    3.7467   25.7779 C   0  0  0  0  0  0  0  0  0  0  0  0
  -12.2150    3.9662   27.1551 C   0  0  0  0  0  0  0  0  0  0  0  0
  -13.4913    4.0237   27.7801 C   0  0  0  0  0  0  0  0  0  0  0  0
  -14.5601    3.8777   26.9098 C   0  0  0  0  0  0  0  0  0  0  0  0
  -13.2119    3.6856   25.0511 C   0  0  0  0  0  0  0  0  0  0  0  0
  -14.4455    3.7718   25.5773 C   0  0  0  0  0  0  0  0  0  0  0  0
  -10.5761    4.0026   24.0199 O   0  0  0  0  0  0  0  0  0  0  0  0
  2  3  1  0
  3  8  2  3
  8  9  1  0
  9 10  2  3
 10 11  1  0
  4 12  1  0
  3 13  1  0
 11 19  2  0
 19 20  1  0
 10 21  1  0
 20 21  1  0
  6 22  1  0
 18 22  1  0
  7 23  1  0
 23 24  1  0
 23 30  2  0
 13 14  2  0
 14 15  1  0
 15 16  2  0
 16 17  1  0
 17 18  2  0
 18 13  1  0
 24 25  2  0
 25 26  1  0
 26 27  2  0
 27 29  1  0
 29 28  2  0
 28 24  1  0
  1  2  2  0
  2  6  1  0
  6  7  2  0
  7  5  1  0
  5  4  2  0
  4  1  1  0
M  END
$$$$
