No_1555-complexes_sdf/6BKW-FPZ/2024-09-17-14-21-01/
     RDKit          3D

 15 16  0  0  0  0  0  0  0  0999 V2000
   -7.9040    3.9820   27.1177 C   0  0  0  0  0  0  0  0  0  0  0  0
   -7.8663    4.8694   27.9238 C   0  0  0  0  0  0  0  0  0  0  0  0
   -9.0501    3.8017   26.2617 C   0  0  0  0  0  0  0  0  0  0  0  0
  -10.0189    4.7608   26.3707 C   0  0  0  0  0  0  0  0  0  0  0  0
   -8.6973    5.9722   27.8968 C   0  0  0  0  0  0  0  0  0  0  0  0
   -9.8216    5.8946   27.1241 C   0  0  0  0  0  0  0  0  0  0  0  0
   -9.3656    2.6887   25.4285 C   0  0  0  0  0  0  0  0  0  0  0  0
   -8.7688    1.4656   25.7103 C   0  0  0  0  0  0  0  0  0  0  0  0
   -8.7951    0.4320   24.8035 C   0  0  0  0  0  0  0  0  0  0  0  0
  -10.0200    2.8340   24.2434 C   0  0  0  0  0  0  0  0  0  0  0  0
  -10.5629    4.0565   23.8553 C   0  0  0  0  0  0  0  0  0  0  0  0
   -8.2527   -0.7836   25.0923 C   0  0  0  0  0  0  0  0  0  0  0  0
   -7.6008   -0.9631   26.3490 C   0  0  0  0  0  0  0  0  0  0  0  0
   -7.5168    0.0690   27.2763 C   0  0  0  0  0  0  0  0  0  0  0  0
   -8.0666    1.2320   27.0062 C   0  0  0  0  0  0  0  0  0  0  0  0
  3  7  1  0
  7  8  1  0
  7 10  1  0
 10 11  1  0
  8  9  2  0
  9 12  1  0
 12 13  2  0
 13 14  1  0
 14 15  2  0
 15  8  1  0
  1  2  2  0
  2  5  1  0
  5  6  2  0
  6  4  1  0
  4  3  2  0
  3  1  1  0
M  END
$$$$
