No_1588-complexes_sdf/6BKW-FPZ/2024-09-17-14-21-01/
     RDKit          3D

 28 33  0  0  0  0  0  0  0  0999 V2000
   -7.9040    3.9820   27.1177 C   0  0  0  0  0  0  0  0  0  0  0  0
   -7.8663    4.8694   27.9238 C   0  0  0  0  0  0  0  0  0  0  0  0
   -9.0491    3.8523   26.2542 C   0  0  0  0  0  0  0  0  0  0  0  0
   -8.7661    5.9491   27.9690 C   0  0  0  0  0  0  0  0  0  0  0  0
   -9.9295    4.8502   26.2323 C   0  0  0  0  0  0  0  0  0  0  0  0
   -9.8077    5.9288   27.0933 C   0  0  0  0  0  0  0  0  0  0  0  0
   -7.1473    2.8227   27.0397 N   0  0  0  0  0  0  0  0  0  0  0  0
   -7.6378    1.6642   26.4958 C   0  0  0  0  0  0  0  0  0  0  0  0
   -8.7166    1.4635   26.4327 C   0  0  0  0  0  0  0  0  0  0  0  0
   -9.5521    2.5833   25.8145 C   0  0  0  0  0  0  0  0  0  0  0  0
   -6.7213    0.5709   26.8799 N   0  0  0  0  0  0  0  0  0  0  0  0
   -5.5239    0.7255   27.5868 C   0  0  0  0  0  0  0  0  0  0  0  0
   -4.7734   -0.4164   27.9304 C   0  0  0  0  0  0  0  0  0  0  0  0
   -5.0295   -1.4239   27.7498 C   0  0  0  0  0  0  0  0  0  0  0  0
   -6.2409   -1.7086   26.9354 C   0  0  0  0  0  0  0  0  0  0  0  0
   -7.0268   -0.7031   26.5484 C   0  0  0  0  0  0  0  0  0  0  0  0
  -10.6491    2.4073   25.0262 C   0  0  0  0  0  0  0  0  0  0  0  0
  -11.0118    1.4244   24.5309 C   0  0  0  0  0  0  0  0  0  0  0  0
  -12.1279    1.2499   23.5748 C   0  0  0  0  0  0  0  0  0  0  0  0
  -12.8359    2.3946   23.3297 C   0  0  0  0  0  0  0  0  0  0  0  0
  -12.4860    3.6268   23.8811 C   0  0  0  0  0  0  0  0  0  0  0  0
  -11.3973    3.7296   24.7057 C   0  0  0  0  0  0  0  0  0  0  0  0
  -11.0140    4.9432   25.3707 C   0  0  0  0  0  0  0  0  0  0  0  0
   -3.5811   -0.1709   28.8683 C   0  0  0  0  0  0  0  0  0  0  0  0
   -2.5513   -0.8339   28.8659 C   0  0  0  0  0  0  0  0  0  0  0  0
   -2.6356   -2.1440   28.3510 C   0  0  0  0  0  0  0  0  0  0  0  0
   -3.8709   -2.4322   27.6700 C   0  0  0  0  0  0  0  0  0  0  0  0
   -3.4553    1.2180   29.4622 O   0  0  0  0  0  0  0  0  0  0  0  0
  8 11  1  0
 11 12  1  0
 11 16  1  0
 15 16  1  0
 10 17  1  0
  5 23  1  0
 22 23  1  0
 24 28  1  0
 12 13  1  0
 14 15  1  0
  1  2  2  0
  2  4  1  0
  4  6  2  0
  6  5  1  0
  5  3  2  0
 13 14  2  0
 14 27  1  0
 27 26  2  0
 26 25  1  0
 25 24  2  0
 24 13  1  0
  1  3  1  0
  3 10  1  0
 10  9  2  0
  9  8  1  0
  8  7  2  0
  7  1  1  0
 17 18  2  0
 18 19  1  0
 19 20  2  0
 20 21  1  0
 21 22  2  0
 22 17  1  0
M  END
$$$$
