No_1719-complexes_sdf/6BKW-FPZ/2024-09-17-14-21-01/
     RDKit          3D

 22 25  0  0  0  0  0  0  0  0999 V2000
   -7.7129    4.2099   27.0854 C   0  0  0  0  0  0  0  0  0  0  0  0
   -8.9133    4.4736   27.0998 C   0  0  0  0  0  0  0  0  0  0  0  0
   -9.4643    5.5426   27.7628 C   0  0  0  0  0  0  0  0  0  0  0  0
   -9.5376    4.3102   25.7199 C   0  0  0  0  0  0  0  0  0  0  0  0
   -6.8961    4.6728   28.2497 C   0  0  0  0  0  0  0  0  0  0  0  0
  -10.6043    3.5849   25.4628 C   0  0  0  0  0  0  0  0  0  0  0  0
  -11.1081    2.8139   26.4627 C   0  0  0  0  0  0  0  0  0  0  0  0
  -10.7523    2.5017   27.4864 C   0  0  0  0  0  0  0  0  0  0  0  0
  -11.5571    1.5894   28.4293 C   0  0  0  0  0  0  0  0  0  0  0  0
   -7.3702    5.8495   28.8929 C   0  0  0  0  0  0  0  0  0  0  0  0
   -8.6878    6.2267   28.7079 C   0  0  0  0  0  0  0  0  0  0  0  0
  -12.7775    1.2001   28.0725 C   0  0  0  0  0  0  0  0  0  0  0  0
  -12.5432    2.3728   26.0867 C   0  0  0  0  0  0  0  0  0  0  0  0
  -13.2729    1.5904   26.9162 C   0  0  0  0  0  0  0  0  0  0  0  0
  -11.0763    3.5400   24.0659 C   0  0  0  0  0  0  0  0  0  0  0  0
  -10.4905    3.4367   23.1436 C   0  0  0  0  0  0  0  0  0  0  0  0
  -10.9591    3.4497   21.7535 C   0  0  0  0  0  0  0  0  0  0  0  0
  -12.3055    3.3807   21.5988 C   0  0  0  0  0  0  0  0  0  0  0  0
  -13.0916    3.3902   22.7270 C   0  0  0  0  0  0  0  0  0  0  0  0
  -12.5333    3.5097   23.9898 C   0  0  0  0  0  0  0  0  0  0  0  0
  -13.1120    2.7589   24.8453 C   0  0  0  0  0  0  0  0  0  0  0  0
  -14.4116    2.5426   24.7673 O   0  0  0  0  0  0  0  0  0  0  0  0
  2  4  1  0
  4  6  2  3
  6  7  1  0
  6 15  1  0
 13 21  1  0
 20 21  1  0
 21 22  2  0
  1  2  2  0
  2  3  1  0
  3 11  2  0
 11 10  1  0
 10  5  2  0
  5  1  1  0
  7  8  2  0
  8  9  1  0
  9 12  2  0
 12 14  1  0
 14 13  2  0
 13  7  1  0
 15 16  2  0
 16 17  1  0
 17 18  2  0
 18 19  1  0
 19 20  2  0
 20 15  1  0
M  END
$$$$
