No_162-complexes_sdf/6BKW-FPZ/2024-09-17-14-21-01/
     RDKit          3D

 32 35  0  0  0  0  0  0  0  0999 V2000
   -7.7129    4.2099   27.0854 C   0  0  0  0  0  0  0  0  0  0  0  0
   -8.9133    4.4736   27.0998 C   0  0  0  0  0  0  0  0  0  0  0  0
   -9.8363    3.8127   27.2418 C   0  0  0  0  0  0  0  0  0  0  0  0
   -7.2995    2.8520   27.3808 C   0  0  0  0  0  0  0  0  0  0  0  0
   -5.9933    2.4049   27.5182 C   0  0  0  0  0  0  0  0  0  0  0  0
   -9.6474    2.3715   27.5497 C   0  0  0  0  0  0  0  0  0  0  0  0
   -8.3521    1.9371   27.6397 C   0  0  0  0  0  0  0  0  0  0  0  0
   -5.6116    1.0765   27.5980 C   0  0  0  0  0  0  0  0  0  0  0  0
   -6.7151    0.1476   27.7141 C   0  0  0  0  0  0  0  0  0  0  0  0
   -8.0150    0.5643   27.7555 C   0  0  0  0  0  0  0  0  0  0  0  0
   -9.1652    6.0450   26.7637 C   0  0  0  0  0  0  0  0  0  0  0  0
   -9.2421    6.8583   27.7009 N   0  0  0  0  0  0  0  0  0  0  0  0
   -8.7847    6.4718   25.6234 O   0  0  0  0  0  0  0  0  0  0  0  0
   -4.2853    0.6449   27.7006 C   0  0  0  0  0  0  0  0  0  0  0  0
   -3.5993    0.6948   28.8602 C   0  0  0  0  0  0  0  0  0  0  0  0
   -3.6012    0.1828   26.5353 C   0  0  0  0  0  0  0  0  0  0  0  0
   -2.4908   -0.0993   29.0109 N   0  0  0  0  0  0  0  0  0  0  0  0
   -2.3240   -0.4418   26.6236 C   0  0  0  0  0  0  0  0  0  0  0  0
   -1.7808   -0.4954   27.9023 C   0  0  0  0  0  0  0  0  0  0  0  0
   -6.3841   -1.2832   27.9355 C   0  0  0  0  0  0  0  0  0  0  0  0
   -7.1965   -2.2211   27.4388 C   0  0  0  0  0  0  0  0  0  0  0  0
   -8.0774   -2.2225   26.8480 C   0  0  0  0  0  0  0  0  0  0  0  0
   -8.9034   -3.3677   26.3684 C   0  0  0  0  0  0  0  0  0  0  0  0
   -8.4277   -4.5232   26.7866 C   0  0  0  0  0  0  0  0  0  0  0  0
   -7.3528   -4.6735   27.5510 C   0  0  0  0  0  0  0  0  0  0  0  0
   -6.6180   -3.5671   27.9769 C   0  0  0  0  0  0  0  0  0  0  0  0
   -6.9300   -5.9389   27.9066 O   0  0  0  0  0  0  0  0  0  0  0  0
  -10.7980    1.5260   27.8324 C   0  0  0  0  0  0  0  0  0  0  0  0
  -11.9430    1.7086   27.0702 C   0  0  0  0  0  0  0  0  0  0  0  0
  -12.1364    2.4037   26.2439 C   0  0  0  0  0  0  0  0  0  0  0  0
  -13.4120    2.5334   25.4323 C   0  0  0  0  0  0  0  0  0  0  0  0
  -14.3186    1.6098   25.7953 C   0  0  0  0  0  0  0  0  0  0  0  0
  2 11  1  0
 11 12  1  0
 11 13  2  0
  8 14  1  0
  9 20  1  0
 20 21  1  0
 25 27  1  0
  6 28  1  0
 28 29  2  3
 29 30  1  0
 30 31  2  3
 31 32  1  0
  1  2  2  0
  2  3  1  0
  3  6  2  0
  6  7  1  0
  4  1  1  0
  4  5  2  0
  5  8  1  0
  8  9  2  0
  9 10  1  0
 10  7  2  0
  7  4  1  0
 14 15  2  0
 15 17  1  0
 17 19  2  0
 19 18  1  0
 18 16  2  0
 16 14  1  0
 21 22  2  0
 22 23  1  0
 23 24  2  0
 24 25  1  0
 25 26  2  0
 26 21  1  0
M  END
$$$$
