No_1958-complexes_sdf/6BKW-FPZ/2024-09-17-14-21-01/
     RDKit          3D

 37 39  0  0  0  0  0  0  0  0999 V2000
   -7.9040    3.9820   27.1177 C   0  0  0  0  0  0  0  0  0  0  0  0
   -8.2057    2.8231   26.8733 C   0  0  0  0  0  0  0  0  0  0  0  0
   -9.2962    2.4021   26.1155 C   0  0  0  0  0  0  0  0  0  0  0  0
   -8.7358    5.0662   26.5917 C   0  0  0  0  0  0  0  0  0  0  0  0
   -9.7618    4.7023   25.7546 C   0  0  0  0  0  0  0  0  0  0  0  0
  -10.0066    3.4105   25.4922 C   0  0  0  0  0  0  0  0  0  0  0  0
   -8.3936    6.4769   26.8843 C   0  0  0  0  0  0  0  0  0  0  0  0
   -8.6672    7.3248   26.1418 F   0  0  0  0  0  0  0  0  0  0  0  0
   -8.9022    6.6135   28.1638 F   0  0  0  0  0  0  0  0  0  0  0  0
   -7.0220    6.5735   27.1791 F   0  0  0  0  0  0  0  0  0  0  0  0
   -7.3503    1.6665   27.4956 C   0  0  0  0  0  0  0  0  0  0  0  0
   -7.6358    0.1098   27.2561 P   0  0  1  0  0  0  0  0  0  0  0  0
   -8.9182   -0.2051   27.5818 O   0  0  0  0  0  0  0  0  0  0  0  0
   -7.6025   -0.0863   25.6752 O   0  0  0  0  0  0  0  0  0  0  0  0
   -6.6277   -0.7625   27.8574 O   0  0  0  0  0  0  0  0  0  0  0  0
   -5.3762   -0.4243   28.0202 C   0  0  0  0  0  0  0  0  0  0  0  0
   -4.9141   -0.5180   29.3977 C   0  0  0  0  0  0  0  0  0  0  0  0
   -3.6527    0.1784   29.7106 C   0  0  0  0  0  0  0  0  0  0  0  0
   -3.1469   -0.0498   31.0132 C   0  0  0  0  0  0  0  0  0  0  0  0
   -3.8804   -0.7038   32.0286 C   0  0  0  0  0  0  0  0  0  0  0  0
   -5.1131   -1.2360   31.6644 C   0  0  0  0  0  0  0  0  0  0  0  0
   -5.5840   -1.1115   30.4051 C   0  0  0  0  0  0  0  0  0  0  0  0
   -5.9192   -1.8437   32.7588 C   0  0  0  0  0  0  0  0  0  0  0  0
   -5.5271   -2.9615   33.1900 N   0  0  0  0  0  0  0  0  0  0  0  0
   -4.8099   -3.2549   33.8364 C   0  0  0  0  0  0  0  0  0  0  0  0
   -4.4189   -3.4711   34.8023 C   0  0  0  0  0  0  0  0  0  0  0  0
   -5.3177   -3.3140   36.0355 C   0  0  0  0  0  0  0  0  0  0  0  0
   -6.4491   -3.4258   36.1209 C   0  0  0  0  0  0  0  0  0  0  0  0
   -7.2693   -3.1911   37.3417 C   0  0  0  0  0  0  0  0  0  0  0  0
   -6.8837   -2.4824   37.9995 C   0  0  0  0  0  0  0  0  0  0  0  0
   -5.5295   -1.9360   38.1697 C   0  0  0  0  0  0  0  0  0  0  0  0
   -5.0048   -1.0688   39.1461 C   0  0  0  0  0  0  0  0  0  0  0  0
   -4.7427   -2.3088   37.1107 C   0  0  0  0  0  0  0  0  0  0  0  0
   -6.5109   -3.9676   32.5754 C   0  0  0  0  0  0  0  0  0  0  0  0
   -5.3155    0.1605   39.1090 C   0  0  0  0  0  0  0  0  0  0  0  0
   -4.7272    1.1726   40.0053 C   0  0  0  0  0  0  0  0  0  0  0  0
   -3.9611    0.8471   40.8815 C   0  0  0  0  0  0  0  0  0  0  0  0
  4  7  1  0
  7  8  1  0
  7  9  1  0
  7 10  1  0
  2 11  1  0
 11 12  1  0
 12 13  1  1
 12 14  2  0
 12 15  1  0
 15 16  1  0
 16 17  1  0
 21 23  1  0
 23 24  1  0
 24 25  1  0
 25 26  2  3
 26 27  1  0
 24 34  1  0
 32 35  1  0
 35 36  1  0
 36 37  2  0
 32 31  1  0
 17 18  2  0
 18 19  1  0
 19 20  2  0
 20 21  1  0
 21 22  2  0
 22 17  1  0
  1  2  2  0
  2  3  1  0
  3  6  2  0
  6  5  1  0
  5  4  2  0
  4  1  1  0
 27 28  2  0
 28 29  1  0
 29 30  2  0
 30 31  1  0
 31 33  2  0
 33 27  1  0
M  END
$$$$
