No_1293-complexes_sdf/6BKW-FPZ/2024-09-17-14-21-01/
     RDKit          3D

 34 37  0  0  0  0  0  0  0  0999 V2000
   -7.7129    4.2099   27.0854 C   0  0  0  0  0  0  0  0  0  0  0  0
   -7.7814    5.1722   27.8972 C   0  0  0  0  0  0  0  0  0  0  0  0
   -8.8998    3.8713   26.3707 C   0  0  0  0  0  0  0  0  0  0  0  0
   -9.9938    4.6774   26.5446 C   0  0  0  0  0  0  0  0  0  0  0  0
   -8.7789    6.1536   27.9256 C   0  0  0  0  0  0  0  0  0  0  0  0
   -9.9428    5.8398   27.2296 C   0  0  0  0  0  0  0  0  0  0  0  0
   -8.9119    2.6447   25.5685 C   0  0  0  0  0  0  0  0  0  0  0  0
   -9.7255    1.8263   25.8239 N   0  0  0  0  0  0  0  0  0  0  0  0
  -10.6069    1.6210   26.3234 C   0  0  0  0  0  0  0  0  0  0  0  0
  -11.5820    2.1455   26.5165 C   0  0  0  0  0  0  0  0  0  0  0  0
  -12.7674    1.7185   27.3893 C   0  0  0  0  0  0  0  0  0  0  0  0
  -12.5820    0.4851   28.0209 C   0  0  0  0  0  0  0  0  0  0  0  0
  -11.4496   -0.2609   27.8869 C   0  0  0  0  0  0  0  0  0  0  0  0
  -10.4491    0.2099   27.1575 C   0  0  0  0  0  0  0  0  0  0  0  0
   -9.7082    0.8817   24.5980 C   0  0  0  0  0  0  0  0  0  0  0  0
  -10.1840    1.4209   23.4638 C   0  0  0  0  0  0  0  0  0  0  0  0
  -10.0730    0.7196   22.3209 C   0  0  0  0  0  0  0  0  0  0  0  0
  -10.5765    1.3100   21.0804 C   0  0  0  0  0  0  0  0  0  0  0  0
  -11.1495    2.5759   21.1356 C   0  0  0  0  0  0  0  0  0  0  0  0
  -11.1857    3.2765   22.2941 C   0  0  0  0  0  0  0  0  0  0  0  0
  -10.7544    2.7820   23.4331 C   0  0  0  0  0  0  0  0  0  0  0  0
   -9.2082   -0.5615   27.0032 C   0  0  2  0  0  0  0  0  0  0  0  0
   -9.1982   -1.7330   26.3820 C   0  0  0  0  0  0  0  0  0  0  0  0
  -10.3663   -2.4631   26.2233 C   0  0  0  0  0  0  0  0  0  0  0  0
  -10.3469   -3.6710   25.4980 C   0  0  0  0  0  0  0  0  0  0  0  0
   -8.0126   -2.2909   25.8914 C   0  0  0  0  0  0  0  0  0  0  0  0
   -6.7157   -1.5906   26.0823 C   0  0  0  0  0  0  0  0  0  0  0  0
   -9.1536   -4.1412   25.0490 C   0  0  0  0  0  0  0  0  0  0  0  0
   -7.9832   -3.5118   25.2042 C   0  0  0  0  0  0  0  0  0  0  0  0
   -6.8692   -0.5492   26.7526 F   0  0  0  0  0  0  0  0  0  0  0  0
   -6.2437   -1.1875   24.8337 F   0  0  0  0  0  0  0  0  0  0  0  0
   -5.8299   -2.4519   26.5242 F   0  0  0  0  0  0  0  0  0  0  0  0
   -8.7324   -0.6318   28.5631 C   0  0  0  0  0  0  0  0  0  0  0  0
   -6.6307    5.6275   28.6085 O   0  0  0  0  0  0  0  0  0  0  0  0
  3  7  1  0
  7  8  1  0
  8  9  1  0
  8 15  1  0
 15 16  1  0
 14 22  1  0
 26 27  1  0
 27 30  1  0
 27 31  1  0
 27 32  1  0
 22 33  1  1
  2 34  1  0
 22 23  1  0
  9 10  2  0
 10 11  1  0
 11 12  2  0
 12 13  1  0
 13 14  2  0
 14  9  1  0
 23 24  2  0
 24 25  1  0
 25 28  2  0
 28 29  1  0
 29 26  2  0
 26 23  1  0
  1  2  2  0
  2  5  1  0
  5  6  2  0
  6  4  1  0
  4  3  2  0
  3  1  1  0
 16 17  2  0
 17 18  1  0
 18 19  2  0
 19 20  1  0
 20 21  2  0
 21 16  1  0
M  END
$$$$
