No_1605-complexes_sdf/6BKW-FPZ/2024-09-17-14-21-01/
     RDKit          3D

 33 37  0  0  0  0  0  0  0  0999 V2000
   -7.2496    3.8871   27.4508 C   0  0  0  0  0  0  0  0  0  0  0  0
   -7.6161    2.7143   27.1523 C   0  0  0  0  0  0  0  0  0  0  0  0
   -8.8302    2.4659   26.5056 C   0  0  0  0  0  0  0  0  0  0  0  0
   -8.1584    5.0090   27.3234 C   0  0  0  0  0  0  0  0  0  0  0  0
   -9.3788    4.7965   26.7695 C   0  0  0  0  0  0  0  0  0  0  0  0
   -9.7028    3.5649   26.3276 C   0  0  0  0  0  0  0  0  0  0  0  0
   -6.5643    1.3669   27.4061 Cl  0  0  0  0  0  0  0  0  0  0  0  0
   -7.8880    6.2837   27.8134 O   0  0  0  0  0  0  0  0  0  0  0  0
  -10.9951    3.3437   25.6417 C   0  0  1  0  0  0  0  0  0  0  0  0
  -10.9169    3.0096   24.3474 C   0  0  0  0  0  0  0  0  0  0  0  0
  -11.8764    3.1197   23.4789 C   0  0  0  0  0  0  0  0  0  0  0  0
  -11.7141    2.7491   22.0752 C   0  0  0  0  0  0  0  0  0  0  0  0
  -10.4816    2.3111   21.6410 C   0  0  0  0  0  0  0  0  0  0  0  0
   -9.4532    2.1066   22.5393 C   0  0  0  0  0  0  0  0  0  0  0  0
   -9.5938    2.4562   23.8508 C   0  0  0  0  0  0  0  0  0  0  0  0
  -12.1573    2.6601   26.3898 C   0  0  2  0  0  0  0  0  0  0  0  0
  -12.0117    2.4079   27.6075 C   0  0  0  0  0  0  0  0  0  0  0  0
  -12.3261    1.9470   28.4714 C   0  0  0  0  0  0  0  0  0  0  0  0
  -12.5273    1.4854   29.8638 C   0  0  0  0  0  0  0  0  0  0  0  0
  -13.1342    2.0821   25.5848 C   0  0  0  0  0  0  0  0  0  0  0  0
  -13.4073    0.8614   25.7786 C   0  0  0  0  0  0  0  0  0  0  0  0
  -14.3975    0.2012   24.9779 C   0  0  0  0  0  0  0  0  0  0  0  0
  -15.0160    0.9630   24.0587 C   0  0  0  0  0  0  0  0  0  0  0  0
  -14.8109    2.2809   23.8875 C   0  0  0  0  0  0  0  0  0  0  0  0
  -13.7942    2.8954   24.6436 C   0  0  2  0  0  0  0  0  0  0  0  0
  -13.1712    3.5352   23.8571 C   0  0  0  0  0  0  0  0  0  0  0  0
  -14.6032    3.9098   25.6411 C   0  0  0  0  0  0  0  0  0  0  0  0
  -14.1460    4.2806   26.8588 C   0  0  0  0  0  0  0  0  0  0  0  0
  -14.8970    5.3175   27.6050 C   0  0  0  0  0  0  0  0  0  0  0  0
  -15.8199    4.5572   25.2393 C   0  0  0  0  0  0  0  0  0  0  0  0
  -16.4971    5.5177   25.9810 C   0  0  0  0  0  0  0  0  0  0  0  0
  -15.9729    5.9154   27.1931 C   0  0  0  0  0  0  0  0  0  0  0  0
  -15.6916    2.9478   22.9237 C   0  0  0  0  0  0  0  0  0  0  0  0
  2  7  1  0
  4  8  1  0
  9  6  1  1
  9 10  1  0
  9 16  1  0
 16 17  1  1
 17 18  2  3
 18 19  1  0
 16 20  1  0
 20 21  1  0
 22 23  1  0
 20 25  1  0
 24 25  1  0
 11 26  1  0
 25 26  1  0
 25 27  1  1
 24 33  1  0
 21 22  1  0
 23 24  1  0
  1  2  2  0
  2  3  1  0
  3  6  2  0
  6  5  1  0
  5  4  2  0
  4  1  1  0
 10 11  1  0
 11 12  2  0
 12 13  1  0
 13 14  2  0
 14 15  1  0
 15 10  2  0
 27 28  2  0
 28 29  1  0
 29 32  2  0
 32 31  1  0
 31 30  2  0
 30 27  1  0
M  END
$$$$
