No_1675-complexes_sdf/6BKW-FPZ/2024-09-17-14-21-01/
     RDKit          3D

 26 28  0  0  0  0  0  0  0  0999 V2000
   -7.7129    4.2099   27.0854 C   0  0  0  0  0  0  0  0  0  0  0  0
   -8.2112    3.0637   26.9225 C   0  0  0  0  0  0  0  0  0  0  0  0
   -7.5138    1.9223   27.4249 C   0  0  2  0  0  0  0  0  0  0  0  0
   -8.5309    5.4147   26.8151 C   0  0  0  0  0  0  0  0  0  0  0  0
   -9.6817    5.2393   26.1100 C   0  0  0  0  0  0  0  0  0  0  0  0
  -10.1032    3.9957   25.8534 C   0  0  0  0  0  0  0  0  0  0  0  0
   -9.4035    2.8430   26.2573 C   0  0  0  0  0  0  0  0  0  0  0  0
   -6.0027    2.0658   28.1024 Cl  0  0  0  0  0  0  0  0  0  0  0  0
   -7.9982    0.5621   27.3066 C   0  0  1  0  0  0  0  0  0  0  0  0
   -7.2965   -0.3949   26.8023 C   0  0  0  0  0  0  0  0  0  0  0  0
   -6.1321   -0.4718   26.7589 C   0  0  0  0  0  0  0  0  0  0  0  0
   -5.4546   -1.6770   26.2646 C   0  0  0  0  0  0  0  0  0  0  0  0
   -6.2227   -2.5715   25.5978 C   0  0  0  0  0  0  0  0  0  0  0  0
   -8.0578   -1.4328   26.1844 C   0  0  0  0  0  0  0  0  0  0  0  0
   -7.5173   -2.4988   25.5904 C   0  0  0  0  0  0  0  0  0  0  0  0
   -7.9730    6.7543   27.1040 C   0  0  0  0  0  0  0  0  0  0  0  0
   -8.6479    7.8565   26.7411 N   0  0  0  0  0  0  0  0  0  0  0  0
   -6.8869    6.8549   27.7803 O   0  0  0  0  0  0  0  0  0  0  0  0
  -11.3679    3.8431   25.0812 C   0  0  0  0  0  0  0  0  0  0  0  0
  -12.5532    3.4700   25.7263 C   0  0  0  0  0  0  0  0  0  0  0  0
  -13.7256    3.5202   25.1076 C   0  0  0  0  0  0  0  0  0  0  0  0
  -11.4375    3.7981   23.6913 C   0  0  0  0  0  0  0  0  0  0  0  0
  -12.5610    3.8283   22.9812 C   0  0  0  0  0  0  0  0  0  0  0  0
  -13.7609    3.6908   23.6880 C   0  0  0  0  0  0  0  0  0  0  0  0
  -15.2239    3.6435   22.8256 Cl  0  0  0  0  0  0  0  0  0  0  0  0
   -9.3027    0.4090   27.9919 C   0  0  0  0  0  0  0  0  0  0  0  0
  2  3  1  0
  3  8  1  6
  3  9  1  0
  9 10  1  0
  4 16  1  0
 16 17  2  0
 16 18  1  0
  6 19  1  0
 24 25  1  0
  9 26  1  1
 19 20  2  0
 20 21  1  0
 21 24  2  0
 24 23  1  0
 23 22  2  0
 22 19  1  0
  1  2  2  0
  2  7  1  0
  7  6  2  0
  6  5  1  0
  5  4  2  0
  4  1  1  0
 10 11  2  0
 11 12  1  0
 12 13  2  0
 13 15  1  0
 15 14  2  0
 14 10  1  0
M  END
$$$$
