No_1570-complexes_sdf/6BKW-FPZ/2024-09-17-14-21-01/
     RDKit          3D

 24 27  0  0  0  0  0  0  0  0999 V2000
   -7.7129    4.2099   27.0854 C   0  0  0  0  0  0  0  0  0  0  0  0
   -8.2112    3.0637   26.9225 C   0  0  0  0  0  0  0  0  0  0  0  0
   -8.4224    5.2106   27.8516 C   0  0  0  0  0  0  0  0  0  0  0  0
   -7.4917    1.9381   26.3986 C   0  0  0  0  0  0  0  0  0  0  0  0
   -9.7695    5.0306   28.1322 C   0  0  0  0  0  0  0  0  0  0  0  0
   -9.5975    2.7583   27.3362 C   0  0  0  0  0  0  0  0  0  0  0  0
  -10.1676    1.5100   27.0727 C   0  0  0  0  0  0  0  0  0  0  0  0
  -10.3192    3.7988   27.9268 C   0  0  0  0  0  0  0  0  0  0  0  0
   -9.3758    0.4297   26.7828 C   0  0  0  0  0  0  0  0  0  0  0  0
   -8.0571    0.6817   26.3139 C   0  0  0  0  0  0  0  0  0  0  0  0
  -11.6809    3.5553   28.4523 C   0  0  0  0  0  0  0  0  0  0  0  0
  -12.7191    4.3507   28.2282 C   0  0  0  0  0  0  0  0  0  0  0  0
  -13.7012    3.9647   27.8185 C   0  0  0  0  0  0  0  0  0  0  0  0
  -14.2207    2.8146   27.9590 C   0  0  0  0  0  0  0  0  0  0  0  0
  -13.2739    1.8473   28.4791 C   0  0  0  0  0  0  0  0  0  0  0  0
  -12.0113    2.1949   28.6935 C   0  0  0  0  0  0  0  0  0  0  0  0
  -13.7260    0.4141   28.7168 C   0  0  2  0  0  0  0  0  0  0  0  0
  -13.4206   -0.4088   27.8480 N   0  0  0  0  0  0  0  0  0  0  0  0
  -12.7343   -1.4945   28.0272 C   0  0  0  0  0  0  0  0  0  0  0  0
  -12.3553   -2.2888   26.8938 C   0  0  0  0  0  0  0  0  0  0  0  0
  -13.8317   -0.2250   26.4921 C   0  0  0  0  0  0  0  0  0  0  0  0
  -13.5105   -0.9940   25.4448 C   0  0  0  0  0  0  0  0  0  0  0  0
  -12.7651   -2.0785   25.6801 C   0  0  0  0  0  0  0  0  0  0  0  0
  -15.1539    0.3687   29.2232 C   0  0  0  0  0  0  0  0  0  0  0  0
  8 11  1  0
 15 17  1  0
 17 18  1  0
 18 19  1  0
 18 21  1  0
 20 23  1  0
 22 23  1  0
 17 24  1  6
 19 20  1  0
 22 21  1  0
 11 12  2  0
 12 13  1  0
 13 14  2  0
 14 15  1  0
 15 16  2  0
 16 11  1  0
  2  4  1  0
  4 10  2  0
 10  9  1  0
  9  7  2  0
  7  6  1  0
  1  2  2  0
  2  6  1  0
  6  8  2  0
  8  5  1  0
  5  3  2  0
  3  1  1  0
M  END
$$$$
