No_1407-complexes_sdf/6BKW-FPZ/2024-09-17-14-21-01/
     RDKit          3D

 30 32  0  0  0  0  0  0  0  0999 V2000
   -7.9040    3.9820   27.1177 C   0  0  0  0  0  0  0  0  0  0  0  0
   -7.8663    4.8694   27.9238 C   0  0  0  0  0  0  0  0  0  0  0  0
   -9.0806    3.1428   27.1220 C   0  0  1  0  0  0  0  0  0  0  0  0
   -8.9544    1.8782   26.5467 C   0  0  1  0  0  0  0  0  0  0  0  0
   -6.7151    5.8072   27.9111 C   0  0  0  0  0  0  0  0  0  0  0  0
   -9.6830    1.5813   25.4472 C   0  0  0  0  0  0  0  0  0  0  0  0
  -10.6877    0.7542   25.6431 C   0  0  2  0  0  0  0  0  0  0  0  0
  -11.9662    1.0773   25.3922 C   0  0  0  0  0  0  0  0  0  0  0  0
  -12.5841    0.5750   24.6562 C   0  0  0  0  0  0  0  0  0  0  0  0
  -10.2273    3.4493   27.7969 C   0  0  0  0  0  0  0  0  0  0  0  0
  -10.8250    4.7906   27.6760 C   0  0  0  0  0  0  0  0  0  0  0  0
  -10.2149    3.1451   29.3095 C   0  0  0  0  0  0  0  0  0  0  0  0
  -13.8507    1.1675   24.1474 C   0  0  0  0  0  0  0  0  0  0  0  0
  -14.0932    2.2331   24.3605 C   0  0  0  0  0  0  0  0  0  0  0  0
  -13.3846    3.1089   25.2755 C   0  0  0  0  0  0  0  0  0  0  0  0
  -12.1537    2.5313   25.7124 C   0  0  0  0  0  0  0  0  0  0  0  0
  -10.4498   -0.5539   26.3027 C   0  0  0  0  0  0  0  0  0  0  0  0
   -9.1975   -1.0521   26.4689 C   0  0  0  0  0  0  0  0  0  0  0  0
   -7.8647    0.9232   27.0383 C   0  0  0  0  0  0  0  0  0  0  0  0
   -9.1118   -2.4650   26.7273 C   0  0  0  0  0  0  0  0  0  0  0  0
   -7.8496   -0.4409   26.4997 C   0  0  0  0  0  0  0  0  0  0  0  0
   -8.2304   -3.1463   26.6723 N   0  0  0  0  0  0  0  0  0  0  0  0
  -10.3714   -3.0597   27.0551 N   0  0  0  0  0  0  0  0  0  0  0  0
   -8.1604   -4.5371   26.9176 C   0  0  0  0  0  0  0  0  0  0  0  0
  -10.4532   -4.3895   27.3018 C   0  0  0  0  0  0  0  0  0  0  0  0
   -9.3295   -5.1151   27.2234 N   0  0  0  0  0  0  0  0  0  0  0  0
   -7.0340   -5.2282   26.8687 N   0  0  0  0  0  0  0  0  0  0  0  0
   -6.1491   -5.0384   27.8200 C   0  0  0  0  0  0  0  0  0  0  0  0
   -6.1617   -5.1902   28.9562 C   0  0  0  0  0  0  0  0  0  0  0  0
   -5.1227   -4.9144   29.9706 C   0  0  0  0  0  0  0  0  0  0  0  0
  1  2  1  0
  3  1  1  1
  3  4  1  0
  2  5  1  0
  4  6  1  6
  6  7  1  0
  7  8  1  1
  3 10  1  0
 10 11  1  0
 10 12  1  0
  7 17  1  0
 17 18  2  0
  4 19  1  0
 18 20  1  0
 18 21  1  0
 19 21  2  0
 24 27  1  0
 27 28  1  0
 28 29  2  3
 29 30  1  0
  8  9  2  0
  9 13  1  0
 13 14  2  0
 14 15  1  0
 15 16  2  0
 16  8  1  0
 20 22  2  0
 22 24  1  0
 24 26  2  0
 26 25  1  0
 25 23  2  0
 23 20  1  0
M  END
$$$$
