No_1765-complexes_sdf/6BKW-FPZ/2024-09-17-14-21-01/
     RDKit          3D

 20 22  0  0  0  0  0  0  0  0999 V2000
   -7.9040    3.9820   27.1177 C   0  0  0  0  0  0  0  0  0  0  0  0
   -9.0711    4.3164   27.0630 C   0  0  0  0  0  0  0  0  0  0  0  0
   -9.5294    5.4517   27.7215 C   0  0  0  0  0  0  0  0  0  0  0  0
   -7.4336    2.7132   26.5681 C   0  0  0  0  0  0  0  0  0  0  0  0
   -8.3353    1.8569   26.0442 C   0  0  0  0  0  0  0  0  0  0  0  0
   -9.6477    2.2853   25.9146 C   0  0  0  0  0  0  0  0  0  0  0  0
  -10.0346    3.4497   26.4483 C   0  0  0  0  0  0  0  0  0  0  0  0
   -7.8608    0.5626   25.5840 C   0  0  0  0  0  0  0  0  0  0  0  0
   -6.9522   -0.0148   26.1481 O   0  0  0  0  0  0  0  0  0  0  0  0
   -8.4820    0.0031   24.5772 O   0  0  0  0  0  0  0  0  0  0  0  0
   -6.9167    4.7065   27.8571 N   0  0  0  0  0  0  0  0  0  0  0  0
   -7.2615    5.8705   28.4569 C   0  0  0  0  0  0  0  0  0  0  0  0
   -8.5712    6.2501   28.3295 N   0  0  0  0  0  0  0  0  0  0  0  0
  -11.4205    3.8789   26.1764 C   0  0  0  0  0  0  0  0  0  0  0  0
  -12.3193    3.6774   27.2573 C   0  0  0  0  0  0  0  0  0  0  0  0
  -13.5868    4.1577   27.2543 C   0  0  0  0  0  0  0  0  0  0  0  0
  -14.0578    4.5955   25.9488 C   0  0  0  0  0  0  0  0  0  0  0  0
  -13.1765    4.6706   24.8609 C   0  0  0  0  0  0  0  0  0  0  0  0
  -11.8276    4.3394   24.9993 C   0  0  0  0  0  0  0  0  0  0  0  0
  -10.8283    4.4590   23.6563 Cl  0  0  0  0  0  0  0  0  0  0  0  0
  5  8  1  0
  8  9  2  0
  8 10  1  0
  7 14  1  0
 19 20  1  0
 14 15  2  0
 15 16  1  0
 16 17  2  0
 17 18  1  0
 18 19  2  0
 19 14  1  0
  2  7  1  0
  7  6  2  0
  6  5  1  0
  5  4  2  0
  4  1  1  0
  1  2  1  0
  2  3  2  0
  3 13  1  0
 13 12  2  0
 12 11  1  0
 11  1  2  0
M  END
$$$$
