No_1731-complexes_sdf/6BKW-FPZ/2024-09-17-14-21-01/
     RDKit          3D

 16 17  0  0  0  0  0  0  0  0999 V2000
   -7.9040    3.9820   27.1177 C   0  0  0  0  0  0  0  0  0  0  0  0
   -7.8663    4.8694   27.9238 C   0  0  0  0  0  0  0  0  0  0  0  0
   -9.0491    3.8523   26.2542 C   0  0  0  0  0  0  0  0  0  0  0  0
   -8.7661    5.9491   27.9690 C   0  0  0  0  0  0  0  0  0  0  0  0
   -9.9295    4.8502   26.2323 C   0  0  0  0  0  0  0  0  0  0  0  0
   -9.8077    5.9288   27.0933 C   0  0  0  0  0  0  0  0  0  0  0  0
   -6.9377    2.5632   27.0872 Cl  0  0  0  0  0  0  0  0  0  0  0  0
   -9.1620    2.7269   25.2654 C   0  0  0  0  0  0  0  0  0  0  0  0
  -10.0213    2.9593   24.2431 N   0  0  0  0  0  0  0  0  0  0  0  0
  -10.9587    2.3261   23.9100 C   0  0  0  0  0  0  0  0  0  0  0  0
  -11.7460    2.6797   22.7675 C   0  0  0  0  0  0  0  0  0  0  0  0
  -11.3925    1.0814   24.5146 C   0  0  0  0  0  0  0  0  0  0  0  0
  -12.4863    0.3708   24.0553 C   0  0  0  0  0  0  0  0  0  0  0  0
  -12.8604    1.9808   22.2940 C   0  0  0  0  0  0  0  0  0  0  0  0
  -13.1967    0.8277   22.9615 C   0  0  0  0  0  0  0  0  0  0  0  0
   -8.6978    1.5967   25.4637 O   0  0  0  0  0  0  0  0  0  0  0  0
  1  7  1  0
  3  8  1  0
  8  9  1  0
  9 10  1  0
  8 16  2  0
  1  2  2  0
  2  4  1  0
  4  6  2  0
  6  5  1  0
  5  3  2  0
  3  1  1  0
 10 11  2  0
 11 14  1  0
 14 15  2  0
 15 13  1  0
 13 12  2  0
 12 10  1  0
M  END
$$$$
