No_1484-complexes_sdf/6BKW-FPZ/2024-09-17-14-21-01/
     RDKit          3D

 22 24  0  0  0  0  0  0  0  0999 V2000
   -7.9040    3.9820   27.1177 C   0  0  0  0  0  0  0  0  0  0  0  0
   -9.0711    4.3164   27.0630 C   0  0  0  0  0  0  0  0  0  0  0  0
   -9.9692    3.7224   26.1073 C   0  0  0  0  0  0  0  0  0  0  0  0
   -6.9787    4.6761   28.1003 C   0  0  0  0  0  0  0  0  0  0  0  0
  -11.1978    4.2793   25.7845 C   0  0  0  0  0  0  0  0  0  0  0  0
  -11.9722    3.7671   24.7671 C   0  0  0  0  0  0  0  0  0  0  0  0
  -11.4321    2.7931   23.9433 C   0  0  0  0  0  0  0  0  0  0  0  0
  -10.2070    2.2970   24.1835 C   0  0  0  0  0  0  0  0  0  0  0  0
   -9.3944    2.8078   25.1975 C   0  0  0  0  0  0  0  0  0  0  0  0
   -7.5140    5.6743   28.8888 C   0  0  0  0  0  0  0  0  0  0  0  0
   -9.4880    5.3919   27.8970 C   0  0  0  0  0  0  0  0  0  0  0  0
   -8.7303    6.0841   28.7261 C   0  0  0  0  0  0  0  0  0  0  0  0
  -12.2312    2.1974   22.8297 C   0  0  2  0  0  0  0  0  0  0  0  0
  -13.1462    1.9329   22.4690 N   0  0  0  0  0  0  0  0  0  0  0  0
  -14.1672    2.0184   23.4141 C   0  0  0  0  0  0  0  0  0  0  0  0
  -14.3734    1.3359   24.3230 C   0  0  0  0  0  0  0  0  0  0  0  0
  -15.4342    1.4668   25.3011 C   0  0  0  0  0  0  0  0  0  0  0  0
  -16.3704    2.4628   25.0796 C   0  0  0  0  0  0  0  0  0  0  0  0
  -15.1110    3.2166   23.1633 C   0  0  0  0  0  0  0  0  0  0  0  0
  -16.1651    3.3796   24.0229 C   0  0  0  0  0  0  0  0  0  0  0  0
  -10.7628    1.4698   21.9631 Cl  0  0  0  0  0  0  0  0  0  0  0  0
  -13.5971    1.6574   21.1310 C   0  0  0  0  0  0  0  0  0  0  0  0
  2  3  1  0
  7 13  1  0
 13 14  1  0
 14 15  1  0
 13 21  1  1
 14 22  1  0
 15 16  2  0
 16 17  1  0
 17 18  2  0
 18 20  1  0
 20 19  2  0
 19 15  1  0
  3  5  2  0
  5  6  1  0
  6  7  2  0
  7  8  1  0
  8  9  2  0
  9  3  1  0
  1  2  2  0
  2 11  1  0
 11 12  2  0
 12 10  1  0
 10  4  2  0
  4  1  1  0
M  END
$$$$
