No_2382-complexes_sdf/6BKW-FPZ/2024-09-17-14-21-01/
     RDKit          3D

 18 19  0  0  0  0  0  0  0  0999 V2000
   -7.9040    3.9820   27.1177 C   0  0  0  0  0  0  0  0  0  0  0  0
   -7.8663    4.8694   27.9238 C   0  0  0  0  0  0  0  0  0  0  0  0
   -9.0491    3.8523   26.2542 C   0  0  0  0  0  0  0  0  0  0  0  0
   -8.7661    5.9491   27.9690 C   0  0  0  0  0  0  0  0  0  0  0  0
   -9.9279    4.8544   26.1938 C   0  0  0  0  0  0  0  0  0  0  0  0
   -9.8044    5.9413   27.0782 C   0  0  0  0  0  0  0  0  0  0  0  0
   -7.0257    2.8867   27.1969 N   0  0  0  0  0  0  0  0  0  0  0  0
   -7.1785    1.6395   27.5325 C   0  0  1  0  0  0  0  0  0  0  0  0
   -8.3142    1.2517   27.7652 F   0  0  0  0  0  0  0  0  0  0  0  0
   -6.1095    0.7743   27.4867 C   0  0  0  0  0  0  0  0  0  0  0  0
   -4.9021    1.1208   27.8959 N   0  0  0  0  0  0  0  0  0  0  0  0
   -3.7845    0.3232   27.8570 C   0  0  0  0  0  0  0  0  0  0  0  0
   -2.6770    0.6954   28.5138 C   0  0  0  0  0  0  0  0  0  0  0  0
   -4.0026   -0.9016   27.2070 C   0  0  0  0  0  0  0  0  0  0  0  0
   -6.4598   -0.4845   27.3989 O   0  0  0  0  0  0  0  0  0  0  0  0
   -1.5792   -0.2296   28.4171 C   0  0  0  0  0  0  0  0  0  0  0  0
   -2.7635   -1.7425   27.0382 C   0  0  0  0  0  0  0  0  0  0  0  0
   -1.6224   -1.3806   27.7270 C   0  0  0  0  0  0  0  0  0  0  0  0
  1  7  1  0
  7  8  1  0
  8  9  1  6
  8 10  1  0
 10 11  1  0
 10 15  2  0
 11 12  1  0
 12 13  2  0
 13 16  1  0
 16 18  2  0
 18 17  1  0
 17 14  2  0
 14 12  1  0
  1  2  2  0
  2  4  1  0
  4  6  2  0
  6  5  1  0
  5  3  2  0
  3  1  1  0
M  END
$$$$
