No_2479-complexes_sdf/6BKW-FPZ/2024-09-17-14-21-01/
     RDKit          3D

 16 17  0  0  0  0  0  0  0  0999 V2000
   -7.7129    4.2099   27.0854 C   0  0  0  0  0  0  0  0  0  0  0  0
   -8.2112    3.0637   26.9225 C   0  0  0  0  0  0  0  0  0  0  0  0
   -9.4446    2.8304   26.1868 C   0  0  0  0  0  0  0  0  0  0  0  0
   -8.4697    5.3956   26.7238 C   0  0  0  0  0  0  0  0  0  0  0  0
   -9.6172    5.2111   25.9513 C   0  0  0  0  0  0  0  0  0  0  0  0
  -10.0424    3.9782   25.6873 C   0  0  0  0  0  0  0  0  0  0  0  0
   -7.8256    6.9333   27.0525 Cl  0  0  0  0  0  0  0  0  0  0  0  0
   -7.5378    1.9230   27.3755 N   0  0  0  0  0  0  0  0  0  0  0  0
   -6.8930    1.0394   26.6813 C   0  0  0  0  0  0  0  0  0  0  0  0
   -6.8255   -0.1334   27.2480 C   0  0  0  0  0  0  0  0  0  0  0  0
   -5.6493   -0.4023   27.9220 C   0  0  0  0  0  0  0  0  0  0  0  0
   -5.4362   -1.5658   28.7230 C   0  0  0  0  0  0  0  0  0  0  0  0
   -4.3248   -1.6841   29.5899 C   0  0  0  0  0  0  0  0  0  0  0  0
   -3.3908   -0.6200   29.6474 C   0  0  0  0  0  0  0  0  0  0  0  0
   -3.6119    0.5520   28.8788 C   0  0  0  0  0  0  0  0  0  0  0  0
   -4.7132    0.6871   28.1356 C   0  0  0  0  0  0  0  0  0  0  0  0
  4  7  1  0
  2  8  1  0
  8  9  1  0
  9 10  1  0
 10 11  1  0
 11 12  2  0
 12 13  1  0
 13 14  2  0
 14 15  1  0
 15 16  2  0
 16 11  1  0
  1  2  2  0
  2  3  1  0
  3  6  2  0
  6  5  1  0
  5  4  2  0
  4  1  1  0
M  END
$$$$
