No_2042-complexes_sdf/6BKW-FPZ/2024-09-17-14-21-01/
     RDKit          3D

 18 19  0  0  0  0  0  0  0  0999 V2000
   -7.9040    3.9820   27.1177 C   0  0  0  0  0  0  0  0  0  0  0  0
   -7.8663    4.8694   27.9238 C   0  0  0  0  0  0  0  0  0  0  0  0
   -9.0806    3.1428   27.1220 C   0  0  0  0  0  0  0  0  0  0  0  0
  -10.0909    3.4892   26.5180 C   0  0  0  0  0  0  0  0  0  0  0  0
   -8.8400    5.9983   27.4627 C   0  0  0  0  0  0  0  0  0  0  0  0
  -11.2628    2.6604   26.3963 C   0  0  0  0  0  0  0  0  0  0  0  0
  -12.3940    3.0772   26.0447 C   0  0  0  0  0  0  0  0  0  0  0  0
  -10.2327    5.7310   27.2341 C   0  0  0  0  0  0  0  0  0  0  0  0
  -10.6441    4.8543   27.2463 C   0  0  0  0  0  0  0  0  0  0  0  0
   -9.8180    3.9934   25.0657 C   0  0  0  0  0  0  0  0  0  0  0  0
  -10.8739    1.3970   25.4964 C   0  0  0  0  0  0  0  0  0  0  0  0
  -11.4420    2.0158   27.8620 C   0  0  0  0  0  0  0  0  0  0  0  0
   -9.8792    0.6464   25.9457 C   0  0  0  0  0  0  0  0  0  0  0  0
   -9.7037   -0.6065   25.3829 C   0  0  0  0  0  0  0  0  0  0  0  0
   -8.6165   -1.3552   25.8938 C   0  0  0  0  0  0  0  0  0  0  0  0
   -7.7838   -0.8609   26.4562 C   0  0  0  0  0  0  0  0  0  0  0  0
   -7.6907    0.4748   27.0221 C   0  0  0  0  0  0  0  0  0  0  0  0
   -8.7471    1.1845   26.7205 C   0  0  0  0  0  0  0  0  0  0  0  0
  1  2  1  0
  1  3  1  0
  3  4  1  0
  2  5  1  0
  4  6  1  0
  6  7  1  0
  5  8  1  0
  4  9  1  0
  8  9  1  0
  4 10  1  0
  6 11  1  0
  6 12  1  0
 11 13  1  0
 13 14  2  0
 14 15  1  0
 15 16  2  0
 16 17  1  0
 17 18  2  0
 18 13  1  0
M  END
$$$$
