No_2446-complexes_sdf/6BKW-FPZ/2024-09-17-14-21-01/
     RDKit          3D

 19 21  0  0  0  0  0  0  0  0999 V2000
   -7.9040    3.9820   27.1177 C   0  0  0  0  0  0  0  0  0  0  0  0
   -9.0711    4.3164   27.0630 C   0  0  0  0  0  0  0  0  0  0  0  0
   -9.5294    5.4517   27.7215 C   0  0  0  0  0  0  0  0  0  0  0  0
   -6.9328    4.7309   27.8881 C   0  0  0  0  0  0  0  0  0  0  0  0
   -7.3377    5.8421   28.5537 C   0  0  0  0  0  0  0  0  0  0  0  0
   -8.6411    6.2609   28.3972 C   0  0  0  0  0  0  0  0  0  0  0  0
  -10.0467    3.4917   26.2630 C   0  0  0  0  0  0  0  0  0  0  0  0
   -9.5472    2.5898   25.4413 C   0  0  0  0  0  0  0  0  0  0  0  0
  -10.4174    1.8980   24.6013 C   0  0  0  0  0  0  0  0  0  0  0  0
  -11.7396    2.2647   24.5006 C   0  0  0  0  0  0  0  0  0  0  0  0
  -11.4034    3.8066   25.9985 C   0  0  0  0  0  0  0  0  0  0  0  0
  -12.2164    3.2577   25.2483 C   0  0  0  0  0  0  0  0  0  0  0  0
   -9.8728    0.7624   23.7446 C   0  0  0  0  0  0  0  0  0  0  0  0
   -9.1305   -0.1583   24.0852 C   0  0  0  0  0  0  0  0  0  0  0  0
   -8.7750   -0.2432   25.5256 C   0  0  0  0  0  0  0  0  0  0  0  0
   -7.7275   -1.1884   25.9006 C   0  0  0  0  0  0  0  0  0  0  0  0
   -7.1693   -1.9163   24.8725 C   0  0  0  0  0  0  0  0  0  0  0  0
   -7.4285   -1.8053   23.5645 C   0  0  0  0  0  0  0  0  0  0  0  0
   -8.3689   -0.8565   23.1814 C   0  0  0  0  0  0  0  0  0  0  0  0
  2  7  1  0
  9 13  1  0
 13 14  1  0
  7  8  2  0
  8  9  1  0
  9 10  2  0
 10 12  1  0
 12 11  2  0
 11  7  1  0
 14 15  2  0
 15 16  1  0
 16 17  2  0
 17 18  1  0
 18 19  2  0
 19 14  1  0
  1  2  2  0
  2  3  1  0
  3  6  2  0
  6  5  1  0
  5  4  2  0
  4  1  1  0
M  END
$$$$
