No_260-complexes_sdf/6BKW-FPZ/2024-09-17-14-21-01/
     RDKit          3D

 27 28  0  0  0  0  0  0  0  0999 V2000
   -7.9040    3.9820   27.1177 C   0  0  0  0  0  0  0  0  0  0  0  0
   -8.2057    2.8231   26.8733 C   0  0  0  0  0  0  0  0  0  0  0  0
   -9.2962    2.4021   26.1155 C   0  0  0  0  0  0  0  0  0  0  0  0
   -8.7358    5.0662   26.5917 C   0  0  0  0  0  0  0  0  0  0  0  0
   -9.7618    4.7023   25.7546 C   0  0  0  0  0  0  0  0  0  0  0  0
  -10.0066    3.4105   25.4922 C   0  0  0  0  0  0  0  0  0  0  0  0
   -8.3943    6.4760   26.8801 C   0  0  0  0  0  0  0  0  0  0  0  0
   -8.0394    6.8605   28.0789 N   0  0  0  0  0  0  0  0  0  0  0  0
   -8.3305    7.3748   25.9292 N   0  0  0  0  0  0  0  0  0  0  0  0
   -7.3592    1.6789   27.4987 C   0  0  0  0  0  0  0  0  0  0  0  0
   -6.5270    0.9638   26.7584 C   0  0  0  0  0  0  0  0  0  0  0  0
   -5.6114    0.1494   27.5465 C   0  0  0  0  0  0  0  0  0  0  0  0
   -5.6216   -0.7488   27.9871 C   0  0  0  0  0  0  0  0  0  0  0  0
   -4.5956   -1.3304   28.9686 C   0  0  0  0  0  0  0  0  0  0  0  0
   -3.4629   -0.6070   29.1445 C   0  0  0  0  0  0  0  0  0  0  0  0
   -3.3607    0.6391   28.5272 C   0  0  0  0  0  0  0  0  0  0  0  0
   -4.3289    1.1022   27.8217 C   0  0  0  0  0  0  0  0  0  0  0  0
   -2.3785   -1.1445   30.0363 C   0  0  0  0  0  0  0  0  0  0  0  0
   -2.6165   -2.2410   30.5574 O   0  0  0  0  0  0  0  0  0  0  0  0
   -2.5126   -2.4691   31.7228 C   0  0  0  0  0  0  0  0  0  0  0  0
   -3.4711   -1.8557   32.5843 C   0  0  0  0  0  0  0  0  0  0  0  0
   -4.5846   -1.2222   31.9105 Cl  0  0  0  0  0  0  0  0  0  0  0  0
   -3.4078   -1.8776   33.8521 F   0  0  0  0  0  0  0  0  0  0  0  0
  -11.1069    3.1155   24.5677 C   0  0  0  0  0  0  0  0  0  0  0  0
  -12.2877    2.7066   25.0199 C   0  0  0  0  0  0  0  0  0  0  0  0
  -10.8916    3.2147   23.1600 C   0  0  0  0  0  0  0  0  0  0  0  0
  -10.1517    3.6870   22.4940 C   0  0  0  0  0  0  0  0  0  0  0  0
  4  7  1  0
  7  8  2  0
  7  9  1  0
  2 10  1  0
 10 11  1  0
 11 12  1  0
 15 18  1  0
 18 19  1  0
 19 20  1  0
 20 21  1  0
 21 22  1  0
 21 23  1  0
  6 24  1  0
 24 25  1  0
 24 26  1  0
 26 27  2  0
 12 13  2  0
 13 14  1  0
 14 15  2  0
 15 16  1  0
 16 17  2  0
 17 12  1  0
  1  2  2  0
  2  3  1  0
  3  6  2  0
  6  5  1  0
  5  4  2  0
  4  1  1  0
M  END
$$$$
