No_2401-complexes_sdf/6BKW-FPZ/2024-09-17-14-21-01/
     RDKit          3D

 25 27  0  0  0  0  0  0  0  0999 V2000
   -7.9040    3.9820   27.1177 C   0  0  0  0  0  0  0  0  0  0  0  0
   -8.2057    2.8231   26.8733 C   0  0  0  0  0  0  0  0  0  0  0  0
   -8.7695    5.0740   26.7916 C   0  0  0  0  0  0  0  0  0  0  0  0
   -8.4337    6.4678   27.0913 C   0  0  0  0  0  0  0  0  0  0  0  0
   -9.3742    2.4311   26.2346 C   0  0  0  0  0  0  0  0  0  0  0  0
  -10.2395    3.4267   25.8887 C   0  0  0  0  0  0  0  0  0  0  0  0
   -9.9567    4.7548   26.1374 C   0  0  0  0  0  0  0  0  0  0  0  0
   -8.5581    6.7982   28.2290 F   0  0  0  0  0  0  0  0  0  0  0  0
   -7.1198    6.7558   26.7218 F   0  0  0  0  0  0  0  0  0  0  0  0
   -9.1462    7.3254   26.2867 F   0  0  0  0  0  0  0  0  0  0  0  0
   -7.0856    1.8124   27.3649 C   0  0  0  0  0  0  0  0  0  0  0  0
   -5.8072    2.1609   27.7033 C   0  0  0  0  0  0  0  0  0  0  0  0
   -4.8906    1.1703   28.1616 C   0  0  0  0  0  0  0  0  0  0  0  0
   -5.2575   -0.1510   28.1524 C   0  0  0  0  0  0  0  0  0  0  0  0
   -7.4088    0.3975   27.3558 C   0  0  0  0  0  0  0  0  0  0  0  0
   -6.5566   -0.3747   27.7826 C   0  0  0  0  0  0  0  0  0  0  0  0
   -4.3369   -1.1268   28.6959 C   0  0  0  0  0  0  0  0  0  0  0  0
   -4.4924   -2.1911   28.8056 C   0  0  0  0  0  0  0  0  0  0  0  0
   -3.5008   -3.1756   29.3629 C   0  0  0  0  0  0  0  0  0  0  0  0
   -2.2407   -2.6762   29.7298 C   0  0  0  0  0  0  0  0  0  0  0  0
   -2.9931   -0.4805   29.2109 C   0  0  0  0  0  0  0  0  0  0  0  0
   -2.0358   -1.3025   29.6467 C   0  0  0  0  0  0  0  0  0  0  0  0
  -11.2661    3.2830   24.9239 C   0  0  0  0  0  0  0  0  0  0  0  0
  -12.3951    3.5037   24.9440 C   0  0  0  0  0  0  0  0  0  0  0  0
  -13.4444    3.3264   23.9699 C   0  0  0  0  0  0  0  0  0  0  0  0
  3  4  1  0
  4  8  1  0
  4  9  1  0
  4 10  1  0
  2 11  1  0
 14 17  1  0
  6 23  1  0
 23 24  2  3
 24 25  1  0
 17 18  2  0
 18 19  1  0
 19 20  2  0
 20 22  1  0
 22 21  2  0
 21 17  1  0
 11 12  2  0
 12 13  1  0
 13 14  2  0
 14 16  1  0
 16 15  2  0
 15 11  1  0
  1  2  2  0
  2  5  1  0
  5  6  2  0
  6  7  1  0
  7  3  2  0
  3  1  1  0
M  END
$$$$
