No_2730-complexes_sdf/6BKW-FPZ/2024-09-17-14-21-01/
     RDKit          3D

 14 16  0  0  0  0  0  0  0  0999 V2000
   -7.7129    4.2099   27.0854 C   0  0  0  0  0  0  0  0  0  0  0  0
   -7.7814    5.1722   27.8972 C   0  0  0  0  0  0  0  0  0  0  0  0
   -8.8776    3.8408   26.3416 C   0  0  0  0  0  0  0  0  0  0  0  0
   -9.9844    4.6492   26.4743 C   0  0  0  0  0  0  0  0  0  0  0  0
   -8.7830    6.1594   27.8870 C   0  0  0  0  0  0  0  0  0  0  0  0
   -9.9269    5.8191   27.1183 C   0  0  0  0  0  0  0  0  0  0  0  0
   -8.8833    2.5999   25.5655 C   0  0  0  0  0  0  0  0  0  0  0  0
   -9.7748    2.4367   24.5471 C   0  0  0  0  0  0  0  0  0  0  0  0
  -10.6391    3.4926   24.3293 C   0  0  0  0  0  0  0  0  0  0  0  0
  -10.8905    4.5157   25.3578 N   0  0  0  0  0  0  0  0  0  0  0  0
   -9.7263    1.3629   23.6638 C   0  0  0  0  0  0  0  0  0  0  0  0
  -10.3122    1.4040   22.3844 C   0  0  0  0  0  0  0  0  0  0  0  0
  -10.9666    2.6134   22.0452 C   0  0  0  0  0  0  0  0  0  0  0  0
  -11.3671    3.5762   23.0879 C   0  0  0  0  0  0  0  0  0  0  0  0
  4 10  2  0
 10  9  1  0
  8  7  1  0
  7  3  2  0
  8  9  2  0
  9 14  1  0
 14 13  2  0
 13 12  1  0
 12 11  2  0
 11  8  1  0
  1  2  2  0
  2  5  1  0
  5  6  2  0
  6  4  1  0
  4  3  1  0
  3  1  1  0
M  END
$$$$
