No_2065-complexes_sdf/6BKW-FPZ/2024-09-17-14-21-01/
     RDKit          3D

 18 19  0  0  0  0  0  0  0  0999 V2000
   -7.9040    3.9820   27.1177 C   0  0  0  0  0  0  0  0  0  0  0  0
   -7.8663    4.8694   27.9238 C   0  0  0  0  0  0  0  0  0  0  0  0
   -9.0491    3.8523   26.2542 C   0  0  0  0  0  0  0  0  0  0  0  0
   -8.7661    5.9491   27.9690 C   0  0  0  0  0  0  0  0  0  0  0  0
   -9.9279    4.8544   26.1938 C   0  0  0  0  0  0  0  0  0  0  0  0
   -9.8044    5.9413   27.0782 C   0  0  0  0  0  0  0  0  0  0  0  0
   -6.8172    2.6194   27.2211 Cl  0  0  0  0  0  0  0  0  0  0  0  0
   -9.1184    2.5382   25.1110 Cl  0  0  0  0  0  0  0  0  0  0  0  0
  -10.8610    4.8748   25.2771 O   0  0  0  0  0  0  0  0  0  0  0  0
  -11.8261    3.9801   25.3611 C   0  0  0  0  0  0  0  0  0  0  0  0
  -12.4692    3.8469   26.3096 C   0  0  0  0  0  0  0  0  0  0  0  0
  -13.6241    2.9971   26.4362 C   0  0  0  0  0  0  0  0  0  0  0  0
  -13.8582    2.2535   25.2896 C   0  0  0  0  0  0  0  0  0  0  0  0
  -12.2570    3.0929   24.2528 C   0  0  0  0  0  0  0  0  0  0  0  0
  -11.3674    3.3318   22.9684 C   0  0  0  0  0  0  0  0  0  0  0  0
  -13.2134    2.3275   24.2033 C   0  0  0  0  0  0  0  0  0  0  0  0
  -11.0466    4.6076   22.5624 C   0  0  0  0  0  0  0  0  0  0  0  0
  -10.2636    4.7518   21.3845 C   0  0  0  0  0  0  0  0  0  0  0  0
  1  7  1  0
  3  8  1  0
  5  9  1  0
  9 10  1  0
 14 15  1  0
 15 17  2  3
 17 18  1  0
 10 11  2  0
 11 12  1  0
 12 13  2  0
 13 16  1  0
 16 14  2  0
 14 10  1  0
  1  2  2  0
  2  4  1  0
  4  6  2  0
  6  5  1  0
  5  3  2  0
  3  1  1  0
M  END
$$$$
