No_2081-complexes_sdf/6BKW-FPZ/2024-09-17-14-21-01/
     RDKit          3D

  7  7  0  0  0  0  0  0  0  0999 V2000
   -7.7129    4.2099   27.0854 C   0  0  0  0  0  0  0  0  0  0  0  0
   -8.9133    4.4736   27.0998 C   0  0  0  0  0  0  0  0  0  0  0  0
   -9.7937    3.7367   26.2091 C   0  0  0  0  0  0  0  0  0  0  0  0
   -7.4126    2.9835   27.2940 C   0  0  0  0  0  0  0  0  0  0  0  0
   -8.2271    1.9809   26.6470 C   0  0  0  0  0  0  0  0  0  0  0  0
   -9.4184    2.4342   26.1916 C   0  0  0  0  0  0  0  0  0  0  0  0
   -9.3023    6.0291   27.0890 C   0  0  0  0  0  0  0  0  0  0  0  0
  2  7  1  0
  1  2  2  0
  2  3  1  0
  3  6  2  0
  6  5  1  0
  5  4  2  0
  4  1  1  0
M  END
$$$$
