No_2669-complexes_sdf/6BKW-FPZ/2024-09-17-14-21-01/
     RDKit          3D

 23 25  0  0  0  0  0  0  0  0999 V2000
   -7.7129    4.2099   27.0854 C   0  0  0  0  0  0  0  0  0  0  0  0
   -8.9133    4.4736   27.0998 C   0  0  0  0  0  0  0  0  0  0  0  0
   -9.4643    5.5426   27.7628 C   0  0  0  0  0  0  0  0  0  0  0  0
   -6.8373    4.9942   27.9785 C   0  0  0  0  0  0  0  0  0  0  0  0
   -7.3717    6.0428   28.6744 C   0  0  0  0  0  0  0  0  0  0  0  0
   -8.6869    6.3937   28.5345 C   0  0  0  0  0  0  0  0  0  0  0  0
   -9.9418    3.7066   26.3114 C   0  0  0  0  0  0  0  0  0  0  0  0
   -9.4361    2.6888   25.6105 C   0  0  0  0  0  0  0  0  0  0  0  0
  -10.0620    1.8135   25.3328 C   0  0  0  0  0  0  0  0  0  0  0  0
  -11.5048    1.8382   25.2780 C   0  0  0  0  0  0  0  0  0  0  0  0
  -11.2852    3.8396   26.3083 C   0  0  0  0  0  0  0  0  0  0  0  0
  -12.1185    2.9118   25.9090 C   0  0  0  0  0  0  0  0  0  0  0  0
   -9.5416    0.5429   24.4925 C   0  0  1  0  0  0  0  0  0  0  0  0
   -9.5641    0.5251   23.1577 C   0  0  0  0  0  0  0  0  0  0  0  0
  -10.0040    1.4555   22.3423 C   0  0  0  0  0  0  0  0  0  0  0  0
   -9.9809    1.3274   20.9333 C   0  0  0  0  0  0  0  0  0  0  0  0
   -9.6313    0.0629   20.4320 C   0  0  0  0  0  0  0  0  0  0  0  0
   -9.1668   -0.6968   22.4290 C   0  0  0  0  0  0  0  0  0  0  0  0
   -9.2112   -0.8801   21.1797 C   0  0  0  0  0  0  0  0  0  0  0  0
   -8.8722   -0.3980   25.3924 C   0  0  0  0  0  0  0  0  0  0  0  0
   -7.9093   -0.5209   25.7198 C   0  0  0  0  0  0  0  0  0  0  0  0
   -7.2864   -1.5063   26.6113 C   0  0  0  0  0  0  0  0  0  0  0  0
   -8.1538   -2.5352   26.9544 C   0  0  0  0  0  0  0  0  0  0  0  0
  2  7  1  0
 13  9  1  6
 13 14  1  0
 13 20  1  0
 20 21  2  3
 21 22  1  0
 22 23  2  0
  7  8  2  0
  8  9  1  0
  9 10  2  0
 10 12  1  0
 12 11  2  0
 11  7  1  0
 14 15  2  0
 15 16  1  0
 16 17  2  0
 17 19  1  0
 19 18  2  0
 18 14  1  0
  1  2  2  0
  2  3  1  0
  3  6  2  0
  6  5  1  0
  5  4  2  0
  4  1  1  0
M  END
$$$$
