No_2703-complexes_sdf/6BKW-FPZ/2024-09-17-14-21-01/
     RDKit          3D

 40 46  0  0  0  0  0  0  0  0999 V2000
   -7.7129    4.2099   27.0854 C   0  0  0  0  0  0  0  0  0  0  0  0
   -8.9133    4.4736   27.0998 C   0  0  0  0  0  0  0  0  0  0  0  0
   -9.4643    5.5426   27.7628 C   0  0  0  0  0  0  0  0  0  0  0  0
   -6.8373    4.9942   27.9785 C   0  0  0  0  0  0  0  0  0  0  0  0
   -7.3717    6.0428   28.6744 C   0  0  0  0  0  0  0  0  0  0  0  0
   -8.6869    6.3937   28.5345 C   0  0  0  0  0  0  0  0  0  0  0  0
   -9.6463    3.5300   26.1468 C   0  0  1  0  0  0  0  0  0  0  0  0
  -10.2511    4.0997   25.0740 C   0  0  0  0  0  0  0  0  0  0  0  0
  -10.8727    3.4127   24.0343 C   0  0  0  0  0  0  0  0  0  0  0  0
  -11.4055    4.1235   22.9152 C   0  0  0  0  0  0  0  0  0  0  0  0
  -10.8995    5.4207   22.7551 C   0  0  0  0  0  0  0  0  0  0  0  0
  -10.0318    5.9688   23.6240 C   0  0  0  0  0  0  0  0  0  0  0  0
   -9.6745    5.4294   24.7679 C   0  0  0  0  0  0  0  0  0  0  0  0
   -8.9020    2.2292   25.8755 C   0  0  1  0  0  0  0  0  0  0  0  0
   -9.3815    1.0650   26.6058 C   0  0  0  0  0  0  0  0  0  0  0  0
   -9.6739    0.1603   26.1416 C   0  0  0  0  0  0  0  0  0  0  0  0
   -9.6758   -0.0978   24.7084 C   0  0  1  0  0  0  0  0  0  0  0  0
   -8.8142    0.6763   23.9677 C   0  0  0  0  0  0  0  0  0  0  0  0
   -9.1058    1.9311   24.4208 C   0  0  2  0  0  0  0  0  0  0  0  0
   -9.1653    2.7317   23.5595 N   0  0  0  0  0  0  0  0  0  0  0  0
   -9.6181    2.2242   22.1213 C   0  0  0  0  0  0  0  0  0  0  0  0
  -11.8883    2.5625   24.6547 C   0  0  0  0  0  0  0  0  0  0  0  0
   -8.4830    3.7057   23.5572 C   0  0  0  0  0  0  0  0  0  0  0  0
  -13.1433    3.0304   24.8875 C   0  0  0  0  0  0  0  0  0  0  0  0
  -13.9966    2.3396   25.6979 C   0  0  0  0  0  0  0  0  0  0  0  0
   -7.3716    2.3852   26.1212 C   0  0  0  0  0  0  0  0  0  0  0  0
   -7.0998    3.0694   26.6681 N   0  0  0  0  0  0  0  0  0  0  0  0
  -15.1579    2.9498   26.1340 C   0  0  0  0  0  0  0  0  0  0  0  0
  -15.5652    4.2051   25.6068 C   0  0  0  0  0  0  0  0  0  0  0  0
  -14.7241    4.8965   24.7538 C   0  0  0  0  0  0  0  0  0  0  0  0
  -13.5179    4.3866   24.4922 C   0  0  0  0  0  0  0  0  0  0  0  0
  -12.1211    3.4665   21.9430 C   0  0  0  0  0  0  0  0  0  0  0  0
  -11.7947    2.5428   21.3739 C   0  0  0  0  0  0  0  0  0  0  0  0
  -10.4433    2.1269   21.2057 C   0  0  0  0  0  0  0  0  0  0  0  0
   -9.5662   -1.6183   24.3397 C   0  0  0  0  0  0  0  0  0  0  0  0
  -10.8047   -2.1960   24.4082 C   0  0  0  0  0  0  0  0  0  0  0  0
  -10.9408   -3.4493   23.9190 C   0  0  0  0  0  0  0  0  0  0  0  0
   -9.8349   -4.1118   23.4345 C   0  0  0  0  0  0  0  0  0  0  0  0
   -8.5856   -2.3634   23.7704 C   0  0  0  0  0  0  0  0  0  0  0  0
   -8.6545   -3.5737   23.3481 C   0  0  0  0  0  0  0  0  0  0  0  0
  7  2  1  6
  7 14  1  0
 14 15  1  1
 16 17  1  0
 14 19  1  0
 19 18  1  6
 19 20  1  0
 20 21  1  0
  9 22  1  0
 20 23  1  0
 22 24  1  0
 14 26  1  0
  1 27  1  0
 10 32  1  0
 32 33  2  3
 21 34  1  0
 33 34  1  0
 17 35  1  1
  8  7  1  0
 15 16  1  0
 17 18  1  0
 27 26  1  0
  1  2  1  0
  2  3  2  0
  3  6  1  0
  6  5  2  0
  5  4  1  0
  4  1  2  0
 24 25  2  0
 25 28  1  0
 28 29  2  0
 29 30  1  0
 30 31  2  0
 31 24  1  0
 35 36  2  0
 36 37  1  0
 37 38  2  0
 38 40  1  0
 40 39  2  0
 39 35  1  0
  8  9  2  0
  9 10  1  0
 10 11  2  0
 11 12  1  0
 12 13  2  0
 13  8  1  0
M  END
$$$$
