No_2184-complexes_sdf/6BKW-FPZ/2024-09-17-14-21-01/
     RDKit          3D

 21 23  0  0  0  0  0  0  0  0999 V2000
   -7.2496    3.8871   27.4508 C   0  0  0  0  0  0  0  0  0  0  0  0
   -7.9379    4.9063   27.8518 C   0  0  0  0  0  0  0  0  0  0  0  0
   -9.3460    4.8223   27.8695 C   0  0  0  0  0  0  0  0  0  0  0  0
   -7.8628    2.6163   27.1065 C   0  0  0  0  0  0  0  0  0  0  0  0
   -9.2787    2.5744   27.1970 C   0  0  0  0  0  0  0  0  0  0  0  0
  -10.0108    3.6770   27.6340 C   0  0  0  0  0  0  0  0  0  0  0  0
  -11.4834    3.5674   27.7432 C   0  0  0  0  0  0  0  0  0  0  0  0
  -11.9395    2.6434   28.4995 C   0  0  0  0  0  0  0  0  0  0  0  0
  -13.3550    2.4593   28.7913 C   0  0  0  0  0  0  0  0  0  0  0  0
  -13.8026    1.4019   29.5768 C   0  0  0  0  0  0  0  0  0  0  0  0
  -14.6628    1.6249   30.5371 C   0  0  0  0  0  0  0  0  0  0  0  0
  -14.9929    0.6477   31.5254 C   0  0  0  0  0  0  0  0  0  0  0  0
  -14.4345   -0.6241   31.3371 C   0  0  0  0  0  0  0  0  0  0  0  0
  -13.5596   -0.8847   30.3302 C   0  0  0  0  0  0  0  0  0  0  0  0
  -13.1395    0.1625   29.5170 C   0  0  0  0  0  0  0  0  0  0  0  0
  -14.2408    3.4674   28.3520 C   0  0  0  0  0  0  0  0  0  0  0  0
  -12.2093    4.6233   27.2205 C   0  0  0  0  0  0  0  0  0  0  0  0
  -13.6487    4.5645   27.5120 C   0  0  0  0  0  0  0  0  0  0  0  0
   -6.8448    1.1537   26.6813 Br  0  0  0  0  0  0  0  0  0  0  0  0
   -7.3424    6.0466   28.0723 F   0  0  0  0  0  0  0  0  0  0  0  0
  -12.7910   -2.3900   30.1946 Cl  0  0  0  0  0  0  0  0  0  0  0  0
  6  7  1  0
  9 10  1  0
  4 19  1  0
  2 20  1  0
 14 21  1  0
  7  8  2  0
  8  9  1  0
  9 16  2  0
 16 18  1  0
 18 17  2  0
 17  7  1  0
  1  2  2  0
  2  3  1  0
  3  6  2  0
  6  5  1  0
  5  4  2  0
  4  1  1  0
 10 11  2  0
 11 12  1  0
 12 13  2  0
 13 14  1  0
 14 15  2  0
 15 10  1  0
M  END
$$$$
