No_2673-complexes_sdf/6BKW-FPZ/2024-09-17-14-21-01/
     RDKit          3D

 23 25  0  0  0  0  0  0  0  0999 V2000
   -7.9040    3.9820   27.1177 C   0  0  0  0  0  0  0  0  0  0  0  0
   -9.0711    4.3164   27.0630 C   0  0  0  0  0  0  0  0  0  0  0  0
   -9.5294    5.4517   27.7215 C   0  0  0  0  0  0  0  0  0  0  0  0
   -9.9845    3.5634   26.2189 C   0  0  0  0  0  0  0  0  0  0  0  0
   -9.6295    2.5733   25.6121 C   0  0  0  0  0  0  0  0  0  0  0  0
   -7.4279    2.5995   26.8424 C   0  0  0  0  0  0  0  0  0  0  0  0
   -8.3597    1.9436   25.9858 C   0  0  0  0  0  0  0  0  0  0  0  0
   -7.9463    0.6091   25.4925 C   0  0  0  0  0  0  0  0  0  0  0  0
   -8.5559   -0.2886   25.8405 N   0  0  0  0  0  0  0  0  0  0  0  0
   -9.3940   -0.4158   26.6657 C   0  0  0  0  0  0  0  0  0  0  0  0
   -9.7593    0.0597   27.5079 C   0  0  0  0  0  0  0  0  0  0  0  0
  -10.8643   -0.3259   28.5472 C   0  0  0  0  0  0  0  0  0  0  0  0
  -11.2698   -1.5898   28.4883 C   0  0  0  0  0  0  0  0  0  0  0  0
  -10.8880   -2.3946   27.4427 C   0  0  0  0  0  0  0  0  0  0  0  0
   -9.9657   -1.9382   26.6326 C   0  0  0  0  0  0  0  0  0  0  0  0
   -8.1427   -1.5293   24.9209 C   0  0  0  0  0  0  0  0  0  0  0  0
   -7.5787   -1.4510   24.0451 C   0  0  0  0  0  0  0  0  0  0  0  0
   -9.0484   -2.6451   25.3405 C   0  0  0  0  0  0  0  0  0  0  0  0
   -7.8859   -1.6988   22.7576 C   0  0  0  0  0  0  0  0  0  0  0  0
   -9.0334   -1.6704   22.3129 C   0  0  0  0  0  0  0  0  0  0  0  0
   -9.3670   -1.9658   20.8915 C   0  0  0  0  0  0  0  0  0  0  0  0
   -8.2748   -2.3267   20.0910 C   0  0  0  0  0  0  0  0  0  0  0  0
   -6.9665   -2.3960   20.5439 C   0  0  0  0  0  0  0  0  0  0  0  0
  2  3  1  0
  7  8  1  0
  8  9  1  0
  9 10  1  0
  9 16  1  0
 16 17  2  3
 15 18  1  0
 16 18  1  0
 17 19  1  0
 19 20  2  3
 20 21  1  0
 21 22  2  3
 22 23  1  0
  1  2  2  0
  2  4  1  0
  4  5  2  0
  5  7  1  0
  7  6  2  0
  6  1  1  0
 10 11  2  0
 11 12  1  0
 12 13  2  0
 13 14  1  0
 14 15  2  0
 15 10  1  0
M  END
$$$$
