No_2662-complexes_sdf/6BKW-FPZ/2024-09-17-14-21-01/
     RDKit          3D

 21 22  0  0  0  0  0  0  0  0999 V2000
   -7.7129    4.2099   27.0854 C   0  0  0  0  0  0  0  0  0  0  0  0
   -7.7814    5.1722   27.8972 C   0  0  0  0  0  0  0  0  0  0  0  0
   -8.8998    3.8713   26.3707 C   0  0  0  0  0  0  0  0  0  0  0  0
   -8.9563    2.6796   25.5490 C   0  0  0  0  0  0  0  0  0  0  0  0
   -8.8501    6.0071   27.8467 N   0  0  0  0  0  0  0  0  0  0  0  0
   -9.9490    5.7837   27.2002 C   0  0  0  0  0  0  0  0  0  0  0  0
   -9.9821    4.6597   26.4501 C   0  0  0  0  0  0  0  0  0  0  0  0
   -9.6638    1.7616   26.0705 C   0  0  0  0  0  0  0  0  0  0  0  0
   -9.6364    0.4800   25.4680 C   0  0  0  0  0  0  0  0  0  0  0  0
  -10.3384   -0.5793   26.0619 C   0  0  0  0  0  0  0  0  0  0  0  0
  -11.0349   -0.3618   27.2980 C   0  0  0  0  0  0  0  0  0  0  0  0
  -11.0132    0.8746   27.9163 C   0  0  0  0  0  0  0  0  0  0  0  0
  -10.3175    1.9149   27.3936 C   0  0  0  0  0  0  0  0  0  0  0  0
   -6.4432    5.7700   28.8385 Cl  0  0  0  0  0  0  0  0  0  0  0  0
   -9.0000    0.2039   24.2213 C   0  0  1  0  0  0  0  0  0  0  0  0
   -9.5799    0.6099   22.9876 C   0  0  0  0  0  0  0  0  0  0  0  0
   -7.7204   -0.4039   24.1914 C   0  0  0  0  0  0  0  0  0  0  0  0
   -7.5773   -1.4916   23.8766 C   0  0  0  0  0  0  0  0  0  0  0  0
   -6.2597   -2.1455   24.0003 C   0  0  0  0  0  0  0  0  0  0  0  0
   -5.2593   -1.4790   24.6806 C   0  0  0  0  0  0  0  0  0  0  0  0
   -5.5974   -0.2931   25.3466 C   0  0  0  0  0  0  0  0  0  0  0  0
  3  4  1  0
  4  8  1  0
  2 14  1  0
  9 15  1  0
 15 16  1  1
 15 17  1  0
 17 18  2  3
 18 19  1  0
 19 20  2  3
 20 21  1  0
  8  9  2  0
  9 10  1  0
 10 11  2  0
 11 12  1  0
 12 13  2  0
 13  8  1  0
  1  2  2  0
  2  5  1  0
  5  6  2  0
  6  7  1  0
  7  3  2  0
  3  1  1  0
M  END
$$$$
