No_2259-complexes_sdf/6BKW-FPZ/2024-09-17-14-21-01/
     RDKit          3D

 14 15  0  0  0  0  0  0  0  0999 V2000
   -7.7129    4.2099   27.0854 C   0  0  0  0  0  0  0  0  0  0  0  0
   -8.2112    3.0637   26.9225 C   0  0  0  0  0  0  0  0  0  0  0  0
   -9.4446    2.8304   26.1868 C   0  0  0  0  0  0  0  0  0  0  0  0
   -8.4697    5.3956   26.7238 C   0  0  0  0  0  0  0  0  0  0  0  0
   -9.6172    5.2111   25.9513 C   0  0  0  0  0  0  0  0  0  0  0  0
  -10.0424    3.9782   25.6873 C   0  0  0  0  0  0  0  0  0  0  0  0
   -7.8256    6.9333   27.0525 Cl  0  0  0  0  0  0  0  0  0  0  0  0
   -7.4841    1.8412   27.3998 C   0  0  0  0  0  0  0  0  0  0  0  0
   -6.1370    1.9033   27.7757 C   0  0  0  0  0  0  0  0  0  0  0  0
   -5.4253    0.7516   28.1980 C   0  0  0  0  0  0  0  0  0  0  0  0
   -6.0821   -0.4571   28.1348 C   0  0  0  0  0  0  0  0  0  0  0  0
   -8.0186    0.5423   27.3469 C   0  0  0  0  0  0  0  0  0  0  0  0
   -7.4061   -0.5205   27.7723 C   0  0  0  0  0  0  0  0  0  0  0  0
   -4.1661    0.9220   28.5946 F   0  0  0  0  0  0  0  0  0  0  0  0
  4  7  1  0
  2  8  1  0
 10 14  1  0
  1  2  2  0
  2  3  1  0
  3  6  2  0
  6  5  1  0
  5  4  2  0
  4  1  1  0
  8  9  2  0
  9 10  1  0
 10 11  2  0
 11 13  1  0
 13 12  2  0
 12  8  1  0
M  END
$$$$
