No_2636-complexes_sdf/6BKW-FPZ/2024-09-17-14-21-01/
     RDKit          3D

 15 16  0  0  0  0  0  0  0  0999 V2000
   -7.7129    4.2099   27.0854 C   0  0  0  0  0  0  0  0  0  0  0  0
   -7.7814    5.1722   27.8972 C   0  0  0  0  0  0  0  0  0  0  0  0
   -8.8776    3.8408   26.3416 C   0  0  0  0  0  0  0  0  0  0  0  0
   -8.9136    2.6330   25.5655 C   0  0  0  0  0  0  0  0  0  0  0  0
   -8.8361    6.1389   27.9032 C   0  0  0  0  0  0  0  0  0  0  0  0
   -9.9718    4.7048   26.3433 C   0  0  0  0  0  0  0  0  0  0  0  0
   -9.9205    5.8499   27.1013 C   0  0  0  0  0  0  0  0  0  0  0  0
   -8.2915    1.4822   26.1745 C   0  0  0  0  0  0  0  0  0  0  0  0
   -7.9094    1.5549   27.4528 C   0  0  0  0  0  0  0  0  0  0  0  0
   -8.1211    0.4122   25.2817 C   0  0  0  0  0  0  0  0  0  0  0  0
   -8.8274    0.2805   24.1924 C   0  0  0  0  0  0  0  0  0  0  0  0
   -8.7095   -0.8188   23.3243 C   0  0  0  0  0  0  0  0  0  0  0  0
   -7.7666   -1.8150   23.7191 C   0  0  0  0  0  0  0  0  0  0  0  0
   -7.1409   -0.6792   25.6167 C   0  0  0  0  0  0  0  0  0  0  0  0
   -6.9990   -1.7276   24.8253 C   0  0  0  0  0  0  0  0  0  0  0  0
  3  4  1  0
  4  8  1  0
  8  9  2  0
  8 10  1  0
 10 11  2  0
 11 12  1  0
 12 13  2  0
 13 15  1  0
 15 14  2  0
 14 10  1  0
  1  2  2  0
  2  5  1  0
  5  7  2  0
  7  6  1  0
  6  3  2  0
  3  1  1  0
M  END
$$$$
