No_2533-complexes_sdf/6BKW-FPZ/2024-09-17-14-21-01/
     RDKit          3D

 13 13  0  0  0  0  0  0  0  0999 V2000
   -7.9040    3.9820   27.1177 C   0  0  0  0  0  0  0  0  0  0  0  0
   -7.8663    4.8694   27.9238 C   0  0  0  0  0  0  0  0  0  0  0  0
   -9.0491    3.8523   26.2542 C   0  0  0  0  0  0  0  0  0  0  0  0
   -8.7661    5.9491   27.9690 C   0  0  0  0  0  0  0  0  0  0  0  0
   -9.1798    2.6731   25.4786 C   0  0  0  0  0  0  0  0  0  0  0  0
   -9.8964    5.8854   27.1460 C   0  0  0  0  0  0  0  0  0  0  0  0
   -9.9958    4.8034   26.3470 C   0  0  0  0  0  0  0  0  0  0  0  0
   -8.6484    1.5362   25.8281 N   0  0  0  0  0  0  0  0  0  0  0  0
   -8.5506    0.4680   25.0164 C   0  0  0  0  0  0  0  0  0  0  0  0
   -9.7445    2.7919   24.3438 O   0  0  0  0  0  0  0  0  0  0  0  0
   -7.5373   -0.4485   25.3823 C   0  0  0  0  0  0  0  0  0  0  0  0
   -6.8804   -0.3866   26.6348 C   0  0  0  0  0  0  0  0  0  0  0  0
   -7.0852    0.8053   27.4277 C   0  0  0  0  0  0  0  0  0  0  0  0
  3  5  1  0
  5  8  1  0
  8  9  2  3
  5 10  2  0
  9 11  1  0
 11 12  1  0
 12 13  1  0
  1  2  2  0
  2  4  1  0
  4  6  2  0
  6  7  1  0
  7  3  2  0
  3  1  1  0
M  END
$$$$
