No_2938-complexes_sdf/6BKW-FPZ/2024-09-17-14-21-01/
     RDKit          3D

 22 24  0  0  0  0  0  0  0  0999 V2000
   -7.2496    3.8871   27.4508 C   0  0  0  0  0  0  0  0  0  0  0  0
   -7.9379    4.9063   27.8518 C   0  0  0  0  0  0  0  0  0  0  0  0
   -7.5112    6.1898   27.6280 C   0  0  0  0  0  0  0  0  0  0  0  0
   -7.8078    2.6331   27.2522 C   0  0  0  0  0  0  0  0  0  0  0  0
   -9.1306    2.5738   27.3196 C   0  0  0  0  0  0  0  0  0  0  0  0
   -9.9373    3.5667   27.8161 C   0  0  0  0  0  0  0  0  0  0  0  0
   -9.3532    4.8458   28.0166 C   0  0  0  0  0  0  0  0  0  0  0  0
  -11.3856    3.3483   28.1004 C   0  0  0  0  0  0  0  0  0  0  0  0
  -12.2169    4.3076   28.3704 C   0  0  0  0  0  0  0  0  0  0  0  0
  -11.8164    2.0036   28.3127 C   0  0  0  0  0  0  0  0  0  0  0  0
  -12.9683    1.6567   28.9321 C   0  0  0  0  0  0  0  0  0  0  0  0
  -13.5266    4.0654   28.8942 C   0  0  0  0  0  0  0  0  0  0  0  0
  -13.8832    2.7159   29.1177 C   0  0  0  0  0  0  0  0  0  0  0  0
   -7.0121    1.4481   26.8810 C   0  0  0  0  0  0  0  0  0  0  0  0
   -7.1447    0.5573   27.4993 O   0  0  0  0  0  0  0  0  0  0  0  0
  -15.2296    2.3869   29.6674 C   0  0  0  0  0  0  0  0  0  0  0  0
  -15.7074    1.4280   29.5347 C   0  0  0  0  0  0  0  0  0  0  0  0
  -17.0325    1.0406   30.0958 C   0  0  0  0  0  0  0  0  0  0  0  0
  -17.7242    2.0670   30.7416 C   0  0  0  0  0  0  0  0  0  0  0  0
  -17.1713    3.2949   30.9053 C   0  0  0  0  0  0  0  0  0  0  0  0
  -15.8666    3.5820   30.4251 C   0  0  0  0  0  0  0  0  0  0  0  0
   -6.1355    1.6021   26.0790 F   0  0  0  0  0  0  0  0  0  0  0  0
  6  8  1  0
  4 14  1  0
 14 15  2  0
 13 16  1  0
 14 22  1  0
  3  2  1  0
  1  2  2  0
  2  7  1  0
  7  6  2  0
  6  5  1  0
  5  4  2  0
  4  1  1  0
  8  9  2  0
  9 12  1  0
 12 13  2  0
 13 11  1  0
 11 10  2  0
 10  8  1  0
 16 17  2  0
 17 18  1  0
 18 19  2  0
 19 20  1  0
 20 21  2  0
 21 16  1  0
M  END
$$$$
