No_2268-complexes_sdf/6BKW-FPZ/2024-09-17-14-21-01/
     RDKit          3D

  8  7  0  0  0  0  0  0  0  0999 V2000
   -7.2496    3.8871   27.4508 C   0  0  0  0  0  0  0  0  0  0  0  0
   -8.5096    4.0291   27.2770 C   0  0  2  0  0  0  0  0  0  0  0  0
   -9.2677    5.1714   27.5773 C   0  0  0  0  0  0  0  0  0  0  0  0
   -9.3517    2.7730   27.3663 C   0  0  0  0  0  0  0  0  0  0  0  0
  -10.5954    2.9149   27.5392 C   0  0  0  0  0  0  0  0  0  0  0  0
   -8.4901    6.4176   27.4779 C   0  0  0  0  0  0  0  0  0  0  0  0
  -11.4383    1.7436   27.6238 C   0  0  0  0  0  0  0  0  0  0  0  0
  -10.8099    0.5218   27.4253 C   0  0  0  0  0  0  0  0  0  0  0  0
  2  1  1  1
  2  3  1  0
  2  4  1  0
  4  5  1  0
  3  6  1  0
  5  7  2  3
  7  8  1  0
M  END
$$$$
