No_2497-complexes_sdf/6BKW-FPZ/2024-09-17-14-21-01/
     RDKit          3D

  9  8  0  0  0  0  0  0  0  0999 V2000
   -7.7129    4.2099   27.0854 C   0  0  0  0  0  0  0  0  0  0  0  0
   -8.9133    4.4736   27.0998 C   0  0  0  0  0  0  0  0  0  0  0  0
   -9.7135    3.9633   26.0300 C   0  0  0  0  0  0  0  0  0  0  0  0
   -6.8655    4.8824   28.1822 C   0  0  0  0  0  0  0  0  0  0  0  0
  -10.8856    4.5824   25.6430 C   0  0  0  0  0  0  0  0  0  0  0  0
   -5.6986    4.5267   28.3589 N   0  0  0  0  0  0  0  0  0  0  0  0
  -11.5610    4.0864   24.5142 C   0  0  0  0  0  0  0  0  0  0  0  0
  -10.9984    3.0575   23.7613 C   0  0  0  0  0  0  0  0  0  0  0  0
   -9.8594    2.4922   24.1390 C   0  0  0  0  0  0  0  0  0  0  0  0
  1  2  1  0
  2  3  2  3
  1  4  1  0
  3  5  1  0
  4  6  1  0
  5  7  2  3
  7  8  1  0
  8  9  2  0
M  END
$$$$
