No_2548-complexes_sdf/6BKW-FPZ/2024-09-17-14-21-01/
     RDKit          3D

 13 13  0  0  0  0  0  0  0  0999 V2000
   -7.9040    3.9820   27.1177 C   0  0  0  0  0  0  0  0  0  0  0  0
   -8.2057    2.8231   26.8733 C   0  0  0  0  0  0  0  0  0  0  0  0
   -8.7695    5.0740   26.7916 C   0  0  0  0  0  0  0  0  0  0  0  0
   -8.4337    6.4678   27.0913 C   0  0  0  0  0  0  0  0  0  0  0  0
   -9.3742    2.4311   26.2346 C   0  0  0  0  0  0  0  0  0  0  0  0
  -10.2395    3.4267   25.8887 C   0  0  0  0  0  0  0  0  0  0  0  0
   -9.9567    4.7548   26.1374 C   0  0  0  0  0  0  0  0  0  0  0  0
   -8.0651    6.7859   28.2044 O   0  0  0  0  0  0  0  0  0  0  0  0
   -8.7000    7.3492   26.1556 O   0  0  0  0  0  0  0  0  0  0  0  0
   -7.2522    1.6778   27.2881 C   0  0  2  0  0  0  0  0  0  0  0  0
   -6.1732    1.9897   27.8967 O   0  0  0  0  0  0  0  0  0  0  0  0
   -7.3073    0.4195   26.6155 C   0  0  0  0  0  0  0  0  0  0  0  0
   -6.3615   -0.3122   26.6546 O   0  0  0  0  0  0  0  0  0  0  0  0
  3  4  1  0
  4  8  2  0
  4  9  1  0
  2 10  1  0
 10 11  1  6
 10 12  1  0
 12 13  2  0
  1  2  2  0
  2  5  1  0
  5  6  2  0
  6  7  1  0
  7  3  2  0
  3  1  1  0
M  END
$$$$
