No_2163-complexes_sdf/6BKW-FPZ/2024-09-17-14-21-01/
     RDKit          3D

 26 28  0  0  0  0  0  0  0  0999 V2000
   -7.9040    3.9820   27.1177 C   0  0  0  0  0  0  0  0  0  0  0  0
   -8.2057    2.8231   26.8733 C   0  0  0  0  0  0  0  0  0  0  0  0
   -7.4766    1.7477   27.4593 C   0  0  0  0  0  0  0  0  0  0  0  0
   -8.7468    5.1251   26.6967 C   0  0  0  0  0  0  0  0  0  0  0  0
   -9.7234    4.8589   25.8202 C   0  0  0  0  0  0  0  0  0  0  0  0
   -9.9711    3.5858   25.4266 C   0  0  0  0  0  0  0  0  0  0  0  0
   -9.2266    2.4957   25.9600 C   0  0  0  0  0  0  0  0  0  0  0  0
   -6.1241    1.9216   27.8574 C   0  0  0  0  0  0  0  0  0  0  0  0
   -5.4248    0.7985   28.3602 C   0  0  0  0  0  0  0  0  0  0  0  0
   -5.9324   -0.4517   28.3727 C   0  0  0  0  0  0  0  0  0  0  0  0
   -7.8680    0.3890   27.4333 C   0  0  0  0  0  0  0  0  0  0  0  0
   -7.2076   -0.6217   27.9501 C   0  0  0  0  0  0  0  0  0  0  0  0
   -8.4174    6.5135   27.1003 C   0  0  0  0  0  0  0  0  0  0  0  0
   -8.6625    6.7556   28.2552 F   0  0  0  0  0  0  0  0  0  0  0  0
   -8.1157    7.4156   26.2916 F   0  0  0  0  0  0  0  0  0  0  0  0
   -3.9659    1.0957   28.8113 C   0  0  0  0  0  0  0  0  0  0  0  0
   -3.8136    0.8747   29.9719 F   0  0  0  0  0  0  0  0  0  0  0  0
   -3.1447    0.2590   28.0266 F   0  0  0  0  0  0  0  0  0  0  0  0
  -11.0179    3.3361   24.4215 C   0  0  0  0  0  0  0  0  0  0  0  0
  -10.7341    2.6241   23.3711 C   0  0  0  0  0  0  0  0  0  0  0  0
   -9.5144    1.9230   23.2433 C   0  0  0  0  0  0  0  0  0  0  0  0
   -9.2959    1.1670   22.1063 C   0  0  0  0  0  0  0  0  0  0  0  0
  -10.1706    1.1750   21.0723 C   0  0  0  0  0  0  0  0  0  0  0  0
  -11.3255    1.9114   21.1062 C   0  0  0  0  0  0  0  0  0  0  0  0
  -11.5490    2.6201   22.2001 C   0  0  0  0  0  0  0  0  0  0  0  0
  -12.5085    4.0433   24.7379 Cl  0  0  0  0  0  0  0  0  0  0  0  0
  2  3  1  0
  4 13  1  0
 13 14  1  0
 13 15  1  0
  9 16  1  0
 16 17  1  0
 16 18  1  0
  6 19  1  0
 19 26  1  0
 19 20  1  0
  3  8  2  0
  8  9  1  0
  9 10  2  0
 10 12  1  0
 12 11  2  0
 11  3  1  0
  1  2  2  0
  2  7  1  0
  7  6  2  0
  6  5  1  0
  5  4  2  0
  4  1  1  0
 20 21  2  0
 21 22  1  0
 22 23  2  0
 23 24  1  0
 24 25  2  0
 25 20  1  0
M  END
$$$$
