No_2835-complexes_sdf/6BKW-FPZ/2024-09-17-14-21-01/
     RDKit          3D

 23 24  0  0  0  0  0  0  0  0999 V2000
   -7.7129    4.2099   27.0854 C   0  0  0  0  0  0  0  0  0  0  0  0
   -8.9133    4.4736   27.0998 C   0  0  0  0  0  0  0  0  0  0  0  0
   -9.4643    5.5426   27.7628 C   0  0  0  0  0  0  0  0  0  0  0  0
   -7.2009    2.9448   26.6134 C   0  0  0  0  0  0  0  0  0  0  0  0
   -8.1365    1.9533   26.2981 C   0  0  0  0  0  0  0  0  0  0  0  0
   -7.6655    0.7006   25.9425 C   0  0  0  0  0  0  0  0  0  0  0  0
   -9.7094    3.7104   26.1566 C   0  0  0  0  0  0  0  0  0  0  0  0
   -9.3283    2.4806   25.8381 C   0  0  0  0  0  0  0  0  0  0  0  0
   -8.1316   -0.0755   26.4162 O   0  0  0  0  0  0  0  0  0  0  0  0
   -6.4498    0.4453   25.5682 O   0  0  0  0  0  0  0  0  0  0  0  0
   -6.5341    5.0002   28.1900 Cl  0  0  0  0  0  0  0  0  0  0  0  0
  -10.3268    1.5557   24.8446 Cl  0  0  0  0  0  0  0  0  0  0  0  0
   -5.9352   -0.8793   25.6005 C   0  0  2  0  0  0  0  0  0  0  0  0
   -6.2497   -1.5415   24.3984 C   0  0  0  0  0  0  0  0  0  0  0  0
   -5.8632   -2.8241   24.3198 C   0  0  0  0  0  0  0  0  0  0  0  0
   -5.9694   -3.4829   25.1234 C   0  0  0  0  0  0  0  0  0  0  0  0
   -5.6885   -2.9481   26.5274 C   0  0  0  0  0  0  0  0  0  0  0  0
   -6.1819   -1.5179   26.7602 C   0  0  1  0  0  0  0  0  0  0  0  0
   -6.8447   -1.1119   23.6070 O   0  0  0  0  0  0  0  0  0  0  0  0
   -5.5102   -0.9918   27.9125 O   0  0  0  0  0  0  0  0  0  0  0  0
   -4.4311   -0.4638   28.0438 C   0  0  0  0  0  0  0  0  0  0  0  0
   -4.3410    0.5442   29.0450 C   0  0  0  0  0  0  0  0  0  0  0  0
   -3.3640   -0.7165   27.2026 C   0  0  0  0  0  0  0  0  0  0  0  0
  5  6  1  0
  6  9  2  0
  6 10  1  0
  1 11  1  0
  8 12  1  0
 13 10  1  1
 13 14  1  0
 14 15  1  0
 16 17  1  0
 13 18  1  0
 17 18  1  0
 14 19  2  0
 18 20  1  1
 20 21  1  0
 21 22  2  0
 21 23  1  0
  3  2  1  0
 16 15  1  0
  1  2  2  0
  2  7  1  0
  7  8  2  0
  8  5  1  0
  5  4  2  0
  4  1  1  0
M  END
$$$$
