No_2467-complexes_sdf/6BKW-FPZ/2024-09-17-14-21-01/
     RDKit          3D

 12 13  0  0  0  0  0  0  0  0999 V2000
   -7.9040    3.9820   27.1177 C   0  0  0  0  0  0  0  0  0  0  0  0
   -8.2057    2.8231   26.8733 C   0  0  0  0  0  0  0  0  0  0  0  0
   -8.7695    5.0740   26.7916 C   0  0  0  0  0  0  0  0  0  0  0  0
   -9.7466    4.9191   26.3183 C   0  0  0  0  0  0  0  0  0  0  0  0
   -9.4594    2.5453   26.2990 C   0  0  0  0  0  0  0  0  0  0  0  0
   -9.8610    1.1808   26.0237 C   0  0  0  0  0  0  0  0  0  0  0  0
  -10.2038    3.6264   25.9596 C   0  0  0  0  0  0  0  0  0  0  0  0
  -10.6910    0.5896   26.7422 C   0  0  0  0  0  0  0  0  0  0  0  0
  -11.0778   -0.8085   26.6122 C   0  0  0  0  0  0  0  0  0  0  0  0
   -9.2994    0.4977   24.9317 C   0  0  0  0  0  0  0  0  0  0  0  0
   -9.6623   -0.8287   24.6729 C   0  0  0  0  0  0  0  0  0  0  0  0
  -10.5524   -1.4353   25.5273 C   0  0  0  0  0  0  0  0  0  0  0  0
  5  6  1  0
  6  8  2  0
  8  9  1  0
  9 12  2  0
 12 11  1  0
 11 10  2  0
 10  6  1  0
  1  2  2  0
  2  5  1  0
  5  7  2  0
  7  4  1  0
  4  3  2  0
  3  1  1  0
M  END
$$$$
