No_2396-complexes_sdf/6BKW-FPZ/2024-09-17-14-21-01/
     RDKit          3D

 14 15  0  0  0  0  0  0  0  0999 V2000
   -7.2496    3.8871   27.4508 C   0  0  0  0  0  0  0  0  0  0  0  0
   -8.5096    4.0291   27.2770 C   0  0  2  0  0  0  0  0  0  0  0  0
   -9.2677    5.1714   27.5773 C   0  0  0  0  0  0  0  0  0  0  0  0
   -9.2765    2.8248   26.8371 C   0  0  1  0  0  0  0  0  0  0  0  0
  -10.4623    3.0171   26.3236 C   0  0  0  0  0  0  0  0  0  0  0  0
  -11.3015    3.9610   26.8543 C   0  0  0  0  0  0  0  0  0  0  0  0
  -10.7070    5.2935   27.2178 C   0  0  0  0  0  0  0  0  0  0  0  0
   -6.6772    2.6291   27.3839 N   0  0  0  0  0  0  0  0  0  0  0  0
   -7.2667    1.5042   27.0844 C   0  0  0  0  0  0  0  0  0  0  0  0
   -8.5918    1.6478   26.6851 C   0  0  1  0  0  0  0  0  0  0  0  0
   -6.6082    4.9056   28.0352 O   0  0  0  0  0  0  0  0  0  0  0  0
   -9.2430    0.4343   26.2157 C   0  0  0  0  0  0  0  0  0  0  0  0
   -8.7355   -0.5878   26.0918 C   0  0  0  0  0  0  0  0  0  0  0  0
   -7.3302   -0.7063   26.5791 C   0  0  0  0  0  0  0  0  0  0  0  0
  1  2  1  0
  2  3  1  1
  2  4  1  0
  4  5  1  6
  5  6  1  0
  3  7  1  0
  6  7  1  0
  1  8  1  0
  4 10  1  0
 10  9  1  1
  1 11  2  0
 10 12  1  0
 12 13  2  3
 13 14  1  0
  9  8  1  0
M  END
$$$$
