No_2608-complexes_sdf/6BKW-FPZ/2024-09-17-14-21-01/
     RDKit          3D

 22 24  0  0  0  0  0  0  0  0999 V2000
   -7.7129    4.2099   27.0854 C   0  0  0  0  0  0  0  0  0  0  0  0
   -8.2112    3.0637   26.9225 C   0  0  0  0  0  0  0  0  0  0  0  0
   -8.4224    5.2106   27.8516 C   0  0  0  0  0  0  0  0  0  0  0  0
   -9.5628    2.7160   27.4089 C   0  0  0  0  0  0  0  0  0  0  0  0
  -10.2639    3.7034   28.1156 C   0  0  0  0  0  0  0  0  0  0  0  0
   -9.7059    4.9514   28.3169 C   0  0  0  0  0  0  0  0  0  0  0  0
  -11.6210    3.4159   28.6340 C   0  0  0  0  0  0  0  0  0  0  0  0
  -12.6133    3.0839   27.8781 C   0  0  0  0  0  0  0  0  0  0  0  0
  -13.7742    2.9605   28.2872 C   0  0  0  0  0  0  0  0  0  0  0  0
  -14.0596    2.9821   29.6493 C   0  0  0  0  0  0  0  0  0  0  0  0
  -13.0841    3.2719   30.5698 C   0  0  0  0  0  0  0  0  0  0  0  0
  -11.8231    3.5465   30.0848 C   0  0  0  0  0  0  0  0  0  0  0  0
   -7.8440    6.3805   27.9803 F   0  0  0  0  0  0  0  0  0  0  0  0
  -10.1053    1.3736   27.2746 C   0  0  0  0  0  0  0  0  0  0  0  0
   -9.3017    0.3564   27.5231 C   0  0  0  0  0  0  0  0  0  0  0  0
   -9.7939   -0.9929   27.4530 C   0  0  0  0  0  0  0  0  0  0  0  0
  -11.1770   -1.1404   27.2583 C   0  0  0  0  0  0  0  0  0  0  0  0
  -11.9843   -0.0429   27.0110 C   0  0  0  0  0  0  0  0  0  0  0  0
  -11.4228    1.2180   27.0756 C   0  0  0  0  0  0  0  0  0  0  0  0
  -12.2238    1.8263   27.3013 F   0  0  0  0  0  0  0  0  0  0  0  0
  -12.6591    4.0143   26.6180 C   0  0  0  0  0  0  0  0  0  0  0  0
  -13.2032    3.4647   27.1231 O   0  0  0  0  0  0  0  0  0  0  0  0
  5  7  1  0
  3 13  1  0
  4 14  1  0
 19 20  1  0
  8 21  1  0
 21 22  1  0
  1  2  2  0
  2  4  1  0
  4  5  2  0
  5  6  1  0
  6  3  2  0
  3  1  1  0
 14 15  2  0
 15 16  1  0
 16 17  2  0
 17 18  1  0
 18 19  2  0
 19 14  1  0
  7  8  2  0
  8  9  1  0
  9 10  2  0
 10 11  1  0
 11 12  2  0
 12  7  1  0
M  END
$$$$
