No_259-complexes_sdf/6BKW-FPZ/2024-09-17-14-21-01/
     RDKit          3D

 18 19  0  0  0  0  0  0  0  0999 V2000
   -7.7129    4.2099   27.0854 C   0  0  0  0  0  0  0  0  0  0  0  0
   -8.2112    3.0637   26.9225 C   0  0  0  0  0  0  0  0  0  0  0  0
   -9.4446    2.8304   26.1868 C   0  0  0  0  0  0  0  0  0  0  0  0
   -8.4697    5.3956   26.7238 C   0  0  0  0  0  0  0  0  0  0  0  0
   -9.6172    5.2111   25.9513 C   0  0  0  0  0  0  0  0  0  0  0  0
  -10.0424    3.9782   25.6873 C   0  0  0  0  0  0  0  0  0  0  0  0
   -7.9321    6.5759   26.9449 F   0  0  0  0  0  0  0  0  0  0  0  0
   -9.8969    1.4744   25.9401 C   0  0  2  0  0  0  0  0  0  0  0  0
   -9.6303    0.8295   25.0664 N   0  0  0  0  0  0  0  0  0  0  0  0
   -9.1555    1.0239   24.0945 C   0  0  0  0  0  0  0  0  0  0  0  0
   -8.6690    0.0637   23.0194 C   0  0  0  0  0  0  0  0  0  0  0  0
   -8.7919   -1.1644   23.5867 C   0  0  0  0  0  0  0  0  0  0  0  0
   -9.2947   -1.5778   24.6620 C   0  0  0  0  0  0  0  0  0  0  0  0
   -9.6838   -0.5736   25.5788 C   0  0  0  0  0  0  0  0  0  0  0  0
  -11.0004    1.2415   26.8613 C   0  0  0  0  0  0  0  0  0  0  0  0
  -11.1332    2.1250   27.9131 C   0  0  0  0  0  0  0  0  0  0  0  0
  -12.4121    2.1499   28.6082 C   0  0  0  0  0  0  0  0  0  0  0  0
  -13.2282    1.0140   28.5029 C   0  0  0  0  0  0  0  0  0  0  0  0
  4  7  1  0
  3  8  1  0
  8  9  1  0
  9 10  1  0
 11 12  1  0
  9 14  1  0
 13 14  1  0
  8 15  1  6
 15 16  1  0
 16 17  2  3
 17 18  1  0
 10 11  1  0
 12 13  1  0
  1  2  2  0
  2  3  1  0
  3  6  2  0
  6  5  1  0
  5  4  2  0
  4  1  1  0
M  END
$$$$
