No_2844-complexes_sdf/6BKW-FPZ/2024-09-17-14-21-01/
     RDKit          3D

 40 44  0  0  0  0  0  0  0  0999 V2000
   -7.2496    3.8871   27.4508 C   0  0  0  0  0  0  0  0  0  0  0  0
   -7.6161    2.7143   27.1523 C   0  0  0  0  0  0  0  0  0  0  0  0
   -8.6212    2.2239   26.4073 C   0  0  0  0  0  0  0  0  0  0  0  0
   -8.2540    4.9237   27.1711 C   0  0  0  0  0  0  0  0  0  0  0  0
   -9.3729    4.5806   26.4433 C   0  0  0  0  0  0  0  0  0  0  0  0
   -8.9159    0.9340   26.0822 C   0  0  0  0  0  0  0  0  0  0  0  0
   -9.6005    3.2666   26.0851 C   0  0  0  0  0  0  0  0  0  0  0  0
   -7.8512    6.5622   27.5970 Cl  0  0  0  0  0  0  0  0  0  0  0  0
   -9.2480    0.0275   26.9409 C   0  0  0  0  0  0  0  0  0  0  0  0
   -9.4619   -1.3226   26.7706 C   0  0  0  0  0  0  0  0  0  0  0  0
   -8.7056    0.4658   24.7773 C   0  0  0  0  0  0  0  0  0  0  0  0
   -8.8817   -0.8402   24.3712 C   0  0  0  0  0  0  0  0  0  0  0  0
   -9.3010   -1.7215   25.4241 C   0  0  0  0  0  0  0  0  0  0  0  0
   -9.6060   -3.5104   24.9376 Br  0  0  0  0  0  0  0  0  0  0  0  0
  -10.7369    2.9708   25.2597 C   0  0  0  0  0  0  0  0  0  0  0  0
  -11.9221    2.8905   25.8805 C   0  0  0  0  0  0  0  0  0  0  0  0
  -12.0078    3.2022   27.3120 C   0  0  0  0  0  0  0  0  0  0  0  0
  -12.7115    3.2494   28.0700 C   0  0  0  0  0  0  0  0  0  0  0  0
  -12.7384    3.4094   29.3403 C   0  0  0  0  0  0  0  0  0  0  0  0
  -13.7835    3.1977   30.2909 C   0  0  0  0  0  0  0  0  0  0  0  0
  -14.9991    2.8927   29.7735 C   0  0  0  0  0  0  0  0  0  0  0  0
  -15.1036    2.7452   28.4289 C   0  0  0  0  0  0  0  0  0  0  0  0
  -14.1577    2.8558   27.6319 C   0  0  0  0  0  0  0  0  0  0  0  0
  -10.6740    2.7601   23.8929 C   0  0  0  0  0  0  0  0  0  0  0  0
  -11.6232    2.1740   23.1247 C   0  0  0  0  0  0  0  0  0  0  0  0
  -12.8928    2.1230   23.8060 C   0  0  0  0  0  0  0  0  0  0  0  0
  -13.0446    2.4414   25.1272 C   0  0  0  0  0  0  0  0  0  0  0  0
  -14.3293    2.3680   25.8953 C   0  0  0  0  0  0  0  0  0  0  0  0
  -15.5354    2.0054   25.4934 C   0  0  0  0  0  0  0  0  0  0  0  0
   -6.5888    1.7636   27.5622 O   0  0  0  0  0  0  0  0  0  0  0  0
   -5.2976    2.0229   27.6872 C   0  0  0  0  0  0  0  0  0  0  0  0
   -4.5716    0.7064   28.0249 C   0  0  0  0  0  0  0  0  0  0  0  0
   -3.4417    0.9620   28.1104 F   0  0  0  0  0  0  0  0  0  0  0  0
   -4.7411   -0.1200   27.0138 F   0  0  0  0  0  0  0  0  0  0  0  0
   -5.1257    0.1297   29.1567 F   0  0  0  0  0  0  0  0  0  0  0  0
  -11.5291    1.8611   21.7669 C   0  0  0  0  0  0  0  0  0  0  0  0
  -11.0064    0.6453   21.4919 C   0  0  0  0  0  0  0  0  0  0  0  0
  -11.9815    2.6823   20.7574 C   0  0  0  0  0  0  0  0  0  0  0  0
  -11.6970   -0.5647   21.4566 C   0  0  0  0  0  0  0  0  0  0  0  0
  -12.2155   -0.9647   20.4184 C   0  0  0  0  0  0  0  0  0  0  0  0
  3  6  1  0
  4  8  1  0
 13 14  1  0
  7 15  1  0
 28 29  1  0
  2 30  1  0
 30 31  1  0
 31 32  1  0
 32 33  1  0
 32 34  1  0
 32 35  1  0
 25 36  1  0
 36 37  1  0
 36 38  1  0
 37 39  1  0
 39 40  2  0
 18 19  2  0
 19 20  1  0
 20 21  2  0
 21 22  1  0
 22 23  2  0
 15 16  1  0
 27 26  1  0
 26 25  2  0
 25 24  1  0
 24 15  2  0
  6  9  2  0
  9 10  1  0
 10 13  2  0
 13 12  1  0
 12 11  2  0
 11  6  1  0
 16 17  2  0
 17 18  1  0
 18 23  1  0
 23 28  1  0
 28 27  2  0
 27 16  1  0
  1  2  2  0
  2  3  1  0
  3  7  2  0
  7  5  1  0
  5  4  2  0
  4  1  1  0
M  END
$$$$
