No_2100-complexes_sdf/6BKW-FPZ/2024-09-17-14-21-01/
     RDKit          3D

 36 40  0  0  0  0  0  0  0  0999 V2000
   -7.9040    3.9820   27.1177 C   0  0  0  0  0  0  0  0  0  0  0  0
   -8.2057    2.8231   26.8733 C   0  0  0  0  0  0  0  0  0  0  0  0
   -7.4766    1.7477   27.4593 C   0  0  0  0  0  0  0  0  0  0  0  0
   -8.7468    5.1251   26.6967 C   0  0  0  0  0  0  0  0  0  0  0  0
   -9.6471    4.9075   26.0510 C   0  0  0  0  0  0  0  0  0  0  0  0
  -10.0309    3.6580   25.5399 C   0  0  0  0  0  0  0  0  0  0  0  0
   -9.2845    2.5302   26.0222 C   0  0  0  0  0  0  0  0  0  0  0  0
   -7.8732    0.3745   27.3432 C   0  0  0  0  0  0  0  0  0  0  0  0
   -9.0933    0.2174   26.5420 C   0  0  0  0  0  0  0  0  0  0  0  0
   -9.7584    1.2159   25.8788 C   0  0  0  0  0  0  0  0  0  0  0  0
   -8.2795    6.5381   27.1030 C   0  0  0  0  0  0  0  0  0  0  0  0
   -7.6847    6.8204   28.1848 N   0  0  0  0  0  0  0  0  0  0  0  0
   -8.7012    7.6379   26.4162 N   0  0  0  0  0  0  0  0  0  0  0  0
   -7.1833   -0.6780   27.9639 C   0  0  0  0  0  0  0  0  0  0  0  0
   -5.8838   -0.5025   28.3858 C   0  0  0  0  0  0  0  0  0  0  0  0
   -5.2185    0.7283   28.1014 C   0  0  0  0  0  0  0  0  0  0  0  0
   -6.0353    1.8876   27.7728 C   0  0  0  0  0  0  0  0  0  0  0  0
   -3.8831    1.0193   28.6439 C   0  0  0  0  0  0  0  0  0  0  0  0
   -3.1489    1.4625   27.9770 O   0  0  0  0  0  0  0  0  0  0  0  0
   -3.5947    0.5638   29.8696 O   0  0  0  0  0  0  0  0  0  0  0  0
  -10.4037    0.7677   24.7630 C   0  0  2  0  0  0  0  0  0  0  0  0
  -10.1477    0.3188   23.7261 C   0  0  0  0  0  0  0  0  0  0  0  0
  -10.4531    0.0924   22.6934 C   0  0  0  0  0  0  0  0  0  0  0  0
   -9.7194   -0.6095   21.5800 C   0  0  0  0  0  0  0  0  0  0  0  0
   -8.4404   -0.9780   21.9039 C   0  0  0  0  0  0  0  0  0  0  0  0
   -7.8688   -0.7203   23.0717 C   0  0  0  0  0  0  0  0  0  0  0  0
   -8.5954   -0.0436   24.0656 C   0  0  0  0  0  0  0  0  0  0  0  0
  -11.9748    1.0425   24.9796 C   0  0  0  0  0  0  0  0  0  0  0  0
  -12.5154    1.1407   25.9460 C   0  0  0  0  0  0  0  0  0  0  0  0
  -11.9877    1.0176   27.3459 C   0  0  0  0  0  0  0  0  0  0  0  0
  -12.8413    1.3740   28.5460 C   0  0  0  0  0  0  0  0  0  0  0  0
  -12.2544    1.5842   29.7500 C   0  0  0  0  0  0  0  0  0  0  0  0
  -14.0826    0.5869   28.4060 C   0  0  0  0  0  0  0  0  0  0  0  0
  -14.9851    1.0101   28.9128 C   0  0  0  0  0  0  0  0  0  0  0  0
  -13.3420    2.1094   30.6849 C   0  0  0  0  0  0  0  0  0  0  0  0
  -14.7046    1.7314   30.3836 C   0  0  0  0  0  0  0  0  0  0  0  0
  4 11  1  0
 11 12  1  0
 11 13  2  0
 16 18  1  0
 18 19  2  0
 18 20  1  0
 21 10  1  6
 21 28  1  0
 28 29  2  3
 29 30  1  0
 21 22  1  0
 30 31  1  0
 22 23  2  0
 23 24  1  0
 24 25  2  0
 25 26  1  0
 26 27  2  0
 27 22  1  0
 31 32  2  0
 32 35  1  0
 35 36  2  0
 36 34  1  0
 34 33  2  0
 33 31  1  0
  1  2  2  0
  7  6  2  0
  6  5  1  0
  5  4  2  0
  4  1  1  0
  8 14  2  0
 14 15  1  0
 15 16  2  0
 16 17  1  0
 17  3  2  0
  2  3  1  0
  3  8  1  0
  8  9  1  0
  9 10  2  0
 10  7  1  0
  7  2  1  0
M  END
$$$$
