No_2138-complexes_sdf/6BKW-FPZ/2024-09-17-14-21-01/
     RDKit          3D

 37 43  0  0  0  0  0  0  0  0999 V2000
   -7.9040    3.9820   27.1177 C   0  0  0  0  0  0  0  0  0  0  0  0
   -8.2057    2.8231   26.8733 C   0  0  0  0  0  0  0  0  0  0  0  0
   -7.0130    4.3706   28.1140 C   0  0  0  0  0  0  0  0  0  0  0  0
   -9.3829    2.4374   26.1668 C   0  0  0  0  0  0  0  0  0  0  0  0
   -9.6934    1.0230   26.0164 C   0  0  0  0  0  0  0  0  0  0  0  0
   -8.8160    0.1163   26.5021 C   0  0  0  0  0  0  0  0  0  0  0  0
   -7.6769    0.4330   27.1868 C   0  0  0  0  0  0  0  0  0  0  0  0
   -7.3087    1.7883   27.4390 C   0  0  0  0  0  0  0  0  0  0  0  0
   -8.6131    5.1170   26.4509 C   0  0  0  0  0  0  0  0  0  0  0  0
   -6.8702    5.8049   28.5280 C   0  0  0  0  0  0  0  0  0  0  0  0
   -8.4952    6.4801   26.8096 C   0  0  0  0  0  0  0  0  0  0  0  0
   -7.5769    6.7559   27.8300 C   0  0  0  0  0  0  0  0  0  0  0  0
   -6.8054   -0.6188   27.7737 C   0  0  2  0  0  0  0  0  0  0  0  0
   -5.4907   -0.3154   28.1024 C   0  0  0  0  0  0  0  0  0  0  0  0
   -4.7992   -1.0844   29.0367 C   0  0  0  0  0  0  0  0  0  0  0  0
   -3.4808   -0.6236   29.4852 C   0  0  0  0  0  0  0  0  0  0  0  0
   -2.9631    0.5696   28.9322 C   0  0  0  0  0  0  0  0  0  0  0  0
   -4.7887    0.9176   27.7931 C   0  0  0  0  0  0  0  0  0  0  0  0
   -3.5934    1.2608   28.1695 C   0  0  0  0  0  0  0  0  0  0  0  0
   -7.2552   -1.9365   27.8035 C   0  0  0  0  0  0  0  0  0  0  0  0
   -7.9145   -2.4919   27.2826 C   0  0  0  0  0  0  0  0  0  0  0  0
   -9.1868   -2.1723   26.5604 C   0  0  0  0  0  0  0  0  0  0  0  0
   -9.3011   -1.1362   26.4093 C   0  0  0  0  0  0  0  0  0  0  0  0
   -2.7509   -1.5232   30.4552 C   0  0  0  0  0  0  0  0  0  0  0  0
   -3.2350   -1.6319   31.4522 O   0  0  0  0  0  0  0  0  0  0  0  0
   -1.8157   -2.2558   29.9614 O   0  0  0  0  0  0  0  0  0  0  0  0
  -10.8513    0.7027   25.2632 C   0  0  1  0  0  0  0  0  0  0  0  0
  -11.4057    1.6398   24.4091 C   0  0  0  0  0  0  0  0  0  0  0  0
  -12.4191    1.4298   23.7698 C   0  0  0  0  0  0  0  0  0  0  0  0
  -10.6446   -1.1470   25.7042 N   0  0  0  0  0  0  0  0  0  0  0  0
  -13.0221    2.3377   22.8367 C   0  0  0  0  0  0  0  0  0  0  0  0
  -12.3846    3.5958   22.6583 C   0  0  0  0  0  0  0  0  0  0  0  0
  -11.1890    3.8689   23.3632 C   0  0  0  0  0  0  0  0  0  0  0  0
  -10.6714    2.9469   24.2181 C   0  0  0  0  0  0  0  0  0  0  0  0
   -9.6588    3.2548   25.1646 N   0  0  0  0  0  0  0  0  0  0  0  0
  -11.6607   -1.7707   25.2577 C   0  0  0  0  0  0  0  0  0  0  0  0
  -11.7051   -2.4995   24.3080 C   0  0  0  0  0  0  0  0  0  0  0  0
  1  2  1  0
  7 13  1  0
 13 14  1  6
 13 20  1  0
 20 21  2  0
 21 22  1  0
  6 23  1  0
 22 23  1  0
 16 24  1  0
 24 25  1  0
 24 26  2  0
  5 27  1  0
 27 28  1  0
 23 30  1  0
 27 30  1  6
  4 35  1  0
 34 35  1  0
 30 36  1  0
 36 37  2  0
  1  3  2  0
  3 10  1  0
 10 12  2  0
 12 11  1  0
 11  9  2  0
  9  1  1  0
 28 29  2  0
 29 31  1  0
 31 32  2  0
 32 33  1  0
 33 34  2  0
 34 28  1  0
 14 15  2  0
 15 16  1  0
 16 17  2  0
 17 19  1  0
 19 18  2  0
 18 14  1  0
  2  4  2  0
  4  5  1  0
  5  6  2  0
  6  7  1  0
  7  8  2  0
  8  2  1  0
M  END
$$$$
