No_223-complexes_sdf/6BKW-FPZ/2024-09-17-14-21-01/
     RDKit          3D

 14 15  0  0  0  0  0  0  0  0999 V2000
   -7.7129    4.2099   27.0854 C   0  0  0  0  0  0  0  0  0  0  0  0
   -8.9133    4.4736   27.0998 C   0  0  0  0  0  0  0  0  0  0  0  0
   -9.4643    5.5426   27.7628 C   0  0  0  0  0  0  0  0  0  0  0  0
   -7.2009    2.9448   26.6134 C   0  0  0  0  0  0  0  0  0  0  0  0
   -8.1365    1.9533   26.2981 C   0  0  0  0  0  0  0  0  0  0  0  0
   -9.4501    2.2651   26.2497 C   0  0  0  0  0  0  0  0  0  0  0  0
   -9.8615    3.4703   26.6763 C   0  0  0  0  0  0  0  0  0  0  0  0
   -7.5839    0.6450   25.9087 C   0  0  0  0  0  0  0  0  0  0  0  0
   -6.7587    0.0396   26.7477 N   0  0  0  0  0  0  0  0  0  0  0  0
   -5.8000   -0.7466   26.4275 C   0  0  0  0  0  0  0  0  0  0  0  0
   -4.8978   -1.1122   27.0859 C   0  0  0  0  0  0  0  0  0  0  0  0
   -4.8450   -0.6988   28.5224 C   0  0  0  0  0  0  0  0  0  0  0  0
   -5.7980    0.3016   28.9174 C   0  0  0  0  0  0  0  0  0  0  0  0
   -6.6854    0.6239   28.0784 C   0  0  0  0  0  0  0  0  0  0  0  0
  1  2  1  0
  2  3  2  0
  1  4  1  0
  4  5  1  0
  5  6  1  0
  2  7  1  0
  6  7  1  0
  5  8  1  0
  8  9  1  0
  9 10  1  0
 11 12  1  0
  9 14  1  0
 13 14  1  0
 10 11  1  0
 12 13  1  0
M  END
$$$$
