No_2010-complexes_sdf/6BKW-FPZ/2024-09-17-14-21-01/
     RDKit          3D

 16 18  0  0  0  0  0  0  0  0999 V2000
   -7.7129    4.2099   27.0854 C   0  0  0  0  0  0  0  0  0  0  0  0
   -7.7814    5.1722   27.8972 C   0  0  0  0  0  0  0  0  0  0  0  0
   -8.7889    3.2468   27.2220 C   0  0  0  0  0  0  0  0  0  0  0  0
   -8.7402    2.0341   26.3990 C   0  0  0  0  0  0  0  0  0  0  0  0
   -8.9107    5.8098   28.2210 C   0  0  0  0  0  0  0  0  0  0  0  0
  -10.1083    5.0280   28.0934 C   0  0  0  0  0  0  0  0  0  0  0  0
  -10.0166    3.7774   27.5291 C   0  0  0  0  0  0  0  0  0  0  0  0
   -7.9934    1.0608   26.8006 C   0  0  0  0  0  0  0  0  0  0  0  0
   -7.9108   -0.2264   26.1760 C   0  0  0  0  0  0  0  0  0  0  0  0
   -8.7636   -0.3503   25.0634 C   0  0  0  0  0  0  0  0  0  0  0  0
   -9.5607    1.7547   25.3730 C   0  0  0  0  0  0  0  0  0  0  0  0
   -9.5402    0.6816   24.6375 C   0  0  0  0  0  0  0  0  0  0  0  0
  -10.4043    0.5140   23.4466 C   0  0  0  0  0  0  0  0  0  0  0  0
  -10.9943    1.6071   22.9389 C   0  0  0  0  0  0  0  0  0  0  0  0
  -11.0331    2.7654   23.6790 C   0  0  0  0  0  0  0  0  0  0  0  0
  -10.2608    2.9587   24.8441 C   0  0  0  0  0  0  0  0  0  0  0  0
  3  4  1  0
 12 13  2  0
 13 14  1  0
 14 15  2  0
 15 16  1  0
 16 11  2  0
  4  8  2  0
  8  9  1  0
  9 10  2  0
 10 12  1  0
 12 11  1  0
 11  4  1  0
  1  2  2  0
  2  5  1  0
  5  6  2  0
  6  7  1  0
  7  3  2  0
  3  1  1  0
M  END
$$$$
