No_2713-complexes_sdf/6BKW-FPZ/2024-09-17-14-21-01/
     RDKit          3D

 21 23  0  0  0  0  0  0  0  0999 V2000
   -7.9040    3.9820   27.1177 C   0  0  0  0  0  0  0  0  0  0  0  0
   -7.8663    4.8694   27.9238 C   0  0  0  0  0  0  0  0  0  0  0  0
   -9.0491    3.8523   26.2542 C   0  0  0  0  0  0  0  0  0  0  0  0
   -9.9827    3.2456   26.6451 C   0  0  0  0  0  0  0  0  0  0  0  0
   -9.1410    5.3568   28.4612 C   0  0  0  0  0  0  0  0  0  0  0  0
  -10.5003    4.9280   28.1786 C   0  0  0  0  0  0  0  0  0  0  0  0
  -10.8724    4.1156   27.2691 C   0  0  2  0  0  0  0  0  0  0  0  0
  -12.3338    3.6588   27.3970 C   0  0  0  0  0  0  0  0  0  0  0  0
  -13.1435    4.2808   26.6152 C   0  0  0  0  0  0  0  0  0  0  0  0
  -14.5705    4.2079   26.6619 C   0  0  0  0  0  0  0  0  0  0  0  0
  -15.0705    3.2844   27.5298 C   0  0  0  0  0  0  0  0  0  0  0  0
  -12.8049    2.7861   28.4020 C   0  0  0  0  0  0  0  0  0  0  0  0
  -14.2044    2.5703   28.4932 C   0  0  0  0  0  0  0  0  0  0  0  0
   -6.8405    5.3629   28.5623 O   0  0  0  0  0  0  0  0  0  0  0  0
  -11.8856    2.0968   29.2956 C   0  0  0  0  0  0  0  0  0  0  0  0
  -10.7831    2.5601   25.3891 C   0  0  0  0  0  0  0  0  0  0  0  0
  -10.9673    3.1394   24.2469 C   0  0  0  0  0  0  0  0  0  0  0  0
  -11.6448    2.6875   23.1992 C   0  0  0  0  0  0  0  0  0  0  0  0
  -12.2912    1.4965   23.4039 C   0  0  0  0  0  0  0  0  0  0  0  0
  -12.1900    0.7889   24.6303 C   0  0  0  0  0  0  0  0  0  0  0  0
  -11.4469    1.3507   25.6819 C   0  0  0  0  0  0  0  0  0  0  0  0
  1  2  1  0
  1  3  1  0
  3  4  2  0
  2  5  1  0
  5  6  1  0
  4  7  1  0
  6  7  1  0
  7  8  1  1
  2 14  2  0
 12 15  1  0
  4 16  1  0
 16 17  2  0
 17 18  1  0
 18 19  2  0
 19 20  1  0
 20 21  2  0
 21 16  1  0
  8  9  2  0
  9 10  1  0
 10 11  2  0
 11 13  1  0
 13 12  2  0
 12  8  1  0
M  END
$$$$
