No_2598-complexes_sdf/6BKW-FPZ/2024-09-17-14-21-01/
     RDKit          3D

 24 27  0  0  0  0  0  0  0  0999 V2000
   -7.9040    3.9820   27.1177 C   0  0  0  0  0  0  0  0  0  0  0  0
   -7.8663    4.8694   27.9238 C   0  0  1  0  0  0  0  0  0  0  0  0
   -9.0491    3.8523   26.2542 C   0  0  0  0  0  0  0  0  0  0  0  0
   -6.5926    5.1015   28.6929 C   0  0  0  0  0  0  0  0  0  0  0  0
   -9.2836    2.7234   25.4168 C   0  0  0  0  0  0  0  0  0  0  0  0
  -10.2978    2.8567   24.4923 C   0  0  0  0  0  0  0  0  0  0  0  0
  -11.0039    4.1049   24.4299 C   0  0  0  0  0  0  0  0  0  0  0  0
  -10.6821    5.1393   25.1797 C   0  0  0  0  0  0  0  0  0  0  0  0
   -9.5888    5.0936   26.0294 C   0  0  1  0  0  0  0  0  0  0  0  0
   -7.1042    2.7688   27.3383 C   0  0  0  0  0  0  0  0  0  0  0  0
   -7.4350    1.4997   26.9128 C   0  0  0  0  0  0  0  0  0  0  0  0
   -8.4980    1.5419   25.7941 C   0  0  0  0  0  0  0  0  0  0  0  0
   -8.7383    6.0193   28.0903 C   0  0  0  0  0  0  0  0  0  0  0  0
   -9.5766    6.1757   26.9897 C   0  0  0  0  0  0  0  0  0  0  0  0
   -8.7488    0.2902   25.0636 C   0  0  0  0  0  0  0  0  0  0  0  0
   -9.5823   -0.2270   24.7622 F   0  0  0  0  0  0  0  0  0  0  0  0
   -7.8843    0.5383   23.8354 F   0  0  0  0  0  0  0  0  0  0  0  0
   -7.8616   -0.6387   25.6114 F   0  0  0  0  0  0  0  0  0  0  0  0
  -12.0395    4.1502   23.3479 C   0  0  0  0  0  0  0  0  0  0  0  0
  -11.7424    4.5012   22.1716 C   0  0  0  0  0  0  0  0  0  0  0  0
  -12.5256    4.3093   21.0385 C   0  0  0  0  0  0  0  0  0  0  0  0
  -13.8813    3.9630   21.2353 C   0  0  0  0  0  0  0  0  0  0  0  0
  -13.3574    3.7636   23.6389 C   0  0  0  0  0  0  0  0  0  0  0  0
  -14.2671    3.7070   22.5670 C   0  0  0  0  0  0  0  0  0  0  0  0
  1  2  1  0
  1  3  2  0
  2  4  1  6
  3  5  1  0
  5  6  2  0
  6  7  1  0
  7  8  2  0
  3  9  1  0
  9  8  1  1
  1 10  1  0
 10 11  2  0
  5 12  1  0
 11 12  1  0
  2 13  1  0
  9 14  1  0
 13 14  2  0
 12 15  1  0
 15 16  1  0
 15 17  1  0
 15 18  1  0
  7 19  1  0
 19 20  1  0
 20 21  2  0
 21 22  1  0
 19 23  1  0
 22 24  2  0
 23 24  2  0
M  END
$$$$
