No_2387-complexes_sdf/6BKW-FPZ/2024-09-17-14-21-01/
     RDKit          3D

 10  9  0  0  0  0  0  0  0  0999 V2000
   -7.9040    3.9820   27.1177 C   0  0  0  0  0  0  0  0  0  0  0  0
   -9.0711    4.3164   27.0630 C   0  0  1  0  0  0  0  0  0  0  0  0
   -9.5294    5.4517   27.7215 C   0  0  0  0  0  0  0  0  0  0  0  0
   -9.9845    3.5634   26.2189 C   0  0  0  0  0  0  0  0  0  0  0  0
  -10.7684    4.0785   25.5182 C   0  0  0  0  0  0  0  0  0  0  0  0
   -7.4704    3.4560   28.3745 C   0  0  0  0  0  0  0  0  0  0  0  0
  -11.5660    3.3453   24.6702 C   0  0  0  0  0  0  0  0  0  0  0  0
  -11.3765    2.0350   24.5536 C   0  0  0  0  0  0  0  0  0  0  0  0
  -10.4295    1.4171   25.3489 C   0  0  0  0  0  0  0  0  0  0  0  0
   -9.6733    2.1852   26.1901 C   0  0  0  0  0  0  0  0  0  0  0  0
  1  2  1  0
  2  3  1  6
  2  4  1  0
  4  5  2  3
  1  6  1  0
  5  7  1  0
  7  8  2  3
  8  9  1  0
  9 10  1  0
M  END
$$$$
