No_2310-complexes_sdf/6BKW-FPZ/2024-09-17-14-21-01/
     RDKit          3D

 28 30  0  0  0  0  0  0  0  0999 V2000
   -7.9040    3.9820   27.1177 C   0  0  0  0  0  0  0  0  0  0  0  0
   -7.8663    4.8694   27.9238 C   0  0  0  0  0  0  0  0  0  0  0  0
   -9.0491    3.8523   26.2542 C   0  0  0  0  0  0  0  0  0  0  0  0
   -8.7661    5.9491   27.9690 C   0  0  0  0  0  0  0  0  0  0  0  0
   -9.9295    4.8502   26.2323 C   0  0  0  0  0  0  0  0  0  0  0  0
   -9.8077    5.9288   27.0933 C   0  0  0  0  0  0  0  0  0  0  0  0
   -6.9606    2.7994   27.1981 C   0  0  0  0  0  0  0  0  0  0  0  0
   -5.8717    2.9147   27.8925 N   0  0  0  0  0  0  0  0  0  0  0  0
   -7.3110    1.5864   26.8111 N   0  0  0  0  0  0  0  0  0  0  0  0
   -6.2573    0.7920   27.2357 C   0  0  2  0  0  0  0  0  0  0  0  0
   -6.0995   -0.5887   27.1134 C   0  0  0  0  0  0  0  0  0  0  0  0
   -5.3104    1.6917   27.9472 C   0  0  1  0  0  0  0  0  0  0  0  0
   -7.0547   -1.3462   26.8819 C   0  0  0  0  0  0  0  0  0  0  0  0
   -8.2449   -1.2296   27.2041 C   0  0  0  0  0  0  0  0  0  0  0  0
   -9.4011   -2.1440   26.9758 C   0  0  0  0  0  0  0  0  0  0  0  0
  -10.6602   -1.8814   27.4559 C   0  0  0  0  0  0  0  0  0  0  0  0
  -10.9614   -0.6131   28.0881 C   0  0  0  0  0  0  0  0  0  0  0  0
   -9.9845    0.3748   28.1477 C   0  0  0  0  0  0  0  0  0  0  0  0
   -8.7843    0.1368   27.8416 C   0  0  0  0  0  0  0  0  0  0  0  0
   -4.1586    1.3230   28.4319 N   0  0  0  0  0  0  0  0  0  0  0  0
  -12.4113   -0.3836   28.4996 C   0  0  0  0  0  0  0  0  0  0  0  0
  -12.7733   -0.8501   29.4642 O   0  0  0  0  0  0  0  0  0  0  0  0
  -13.0672    0.4547   27.7602 O   0  0  0  0  0  0  0  0  0  0  0  0
  -14.0133    1.0771   28.0718 C   0  0  0  0  0  0  0  0  0  0  0  0
  -13.8592    2.2922   28.5404 C   0  0  0  0  0  0  0  0  0  0  0  0
  -14.2232    3.2072   28.9883 C   0  0  0  0  0  0  0  0  0  0  0  0
  -13.5075    4.4626   29.3271 C   0  0  0  0  0  0  0  0  0  0  0  0
  -12.3485    4.4779   28.6873 C   0  0  0  0  0  0  0  0  0  0  0  0
  1  7  1  0
  7  8  2  0
  7  9  1  0
  9 10  1  0
 10 11  1  1
  8 12  1  0
 10 12  1  0
 11 13  1  0
 12 20  1  6
 17 21  1  0
 21 22  2  0
 21 23  1  0
 23 24  1  0
 24 25  1  0
 25 26  3  0
 26 27  1  0
 27 28  2  0
 13 14  1  0
 14 15  2  0
 15 16  1  0
 16 17  2  0
 17 18  1  0
 18 19  2  0
 19 14  1  0
  1  2  2  0
  2  4  1  0
  4  6  2  0
  6  5  1  0
  5  3  2  0
  3  1  1  0
M  END
$$$$
