No_2067-complexes_sdf/6BKW-FPZ/2024-09-17-14-21-01/
     RDKit          3D

 13 14  0  0  0  0  0  0  0  0999 V2000
   -7.7129    4.2099   27.0854 C   0  0  0  0  0  0  0  0  0  0  0  0
   -7.7814    5.1722   27.8972 C   0  0  0  0  0  0  0  0  0  0  0  0
   -8.7889    3.2468   27.2220 C   0  0  0  0  0  0  0  0  0  0  0  0
   -8.5940    1.9755   26.6525 C   0  0  0  0  0  0  0  0  0  0  0  0
   -6.8343    6.1522   27.8893 N   0  0  0  0  0  0  0  0  0  0  0  0
   -9.8835    3.6318   28.0329 C   0  0  0  0  0  0  0  0  0  0  0  0
  -10.0105    4.9149   28.6431 C   0  0  0  0  0  0  0  0  0  0  0  0
   -8.9755    5.6772   28.5467 C   0  0  0  0  0  0  0  0  0  0  0  0
   -9.5252    1.2010   26.2483 C   0  0  0  0  0  0  0  0  0  0  0  0
   -9.2851   -0.0531   25.6111 C   0  0  0  0  0  0  0  0  0  0  0  0
   -8.3299   -0.3527   25.4944 C   0  0  0  0  0  0  0  0  0  0  0  0
   -7.0843    0.1892   25.9768 C   0  0  0  0  0  0  0  0  0  0  0  0
   -7.2100    1.4425   26.5752 C   0  0  0  0  0  0  0  0  0  0  0  0
  2  5  1  0
  3  4  1  0
  4  9  2  0
  9 10  1  0
 10 11  2  0
 11 12  1  0
 12 13  2  0
 13  4  1  0
  1  2  2  0
  2  8  1  0
  8  7  2  0
  7  6  1  0
  6  3  2  0
  3  1  1  0
M  END
$$$$
