No_2330-complexes_sdf/6BKW-FPZ/2024-09-17-14-21-01/
     RDKit          3D

 13 14  0  0  0  0  0  0  0  0999 V2000
   -7.7129    4.2099   27.0854 C   0  0  0  0  0  0  0  0  0  0  0  0
   -8.2112    3.0637   26.9225 C   0  0  1  0  0  0  0  0  0  0  0  0
   -8.5108    5.3904   26.9436 C   0  0  2  0  0  0  0  0  0  0  0  0
   -9.5190    5.3029   26.0807 C   0  0  0  0  0  0  0  0  0  0  0  0
   -9.3429    2.8034   26.1463 C   0  0  0  0  0  0  0  0  0  0  0  0
  -10.0724    4.0206   25.7740 C   0  0  0  0  0  0  0  0  0  0  0  0
   -7.4286    1.7781   27.3003 C   0  0  0  0  0  0  0  0  0  0  0  0
   -6.0402    1.9234   27.6105 C   0  0  0  0  0  0  0  0  0  0  0  0
   -5.3468    0.7898   28.0738 C   0  0  0  0  0  0  0  0  0  0  0  0
   -5.9407   -0.4440   28.1929 C   0  0  0  0  0  0  0  0  0  0  0  0
   -7.9895    0.5301   27.3797 C   0  0  0  0  0  0  0  0  0  0  0  0
   -7.2929   -0.5404   27.8494 C   0  0  0  0  0  0  0  0  0  0  0  0
   -7.9337    6.7267   27.2481 C   0  0  0  0  0  0  0  0  0  0  0  0
  1  2  1  0
  1  3  1  0
  3  4  1  0
  2  5  1  0
  4  6  1  0
  5  6  1  0
  2  7  1  6
  3 13  1  6
  7  8  2  0
  8  9  1  0
  9 10  2  0
 10 12  1  0
 12 11  2  0
 11  7  1  0
M  END
$$$$
