No_2153-complexes_sdf/6BKW-FPZ/2024-09-17-14-21-01/
     RDKit          3D

 10 10  0  0  0  0  0  0  0  0999 V2000
   -7.7129    4.2099   27.0854 C   0  0  0  0  0  0  0  0  0  0  0  0
   -8.2112    3.0637   26.9225 C   0  0  0  0  0  0  0  0  0  0  0  0
   -8.4224    5.2106   27.8516 C   0  0  0  0  0  0  0  0  0  0  0  0
   -7.4917    1.9381   26.3986 C   0  0  0  0  0  0  0  0  0  0  0  0
   -9.7695    5.0306   28.1322 C   0  0  0  0  0  0  0  0  0  0  0  0
   -9.5975    2.7583   27.3362 C   0  0  0  0  0  0  0  0  0  0  0  0
  -10.3362    3.8115   27.9177 C   0  0  0  0  0  0  0  0  0  0  0  0
   -7.5483    0.7005   27.1485 C   0  0  0  0  0  0  0  0  0  0  0  0
   -8.6287    0.2130   27.5062 C   0  0  0  0  0  0  0  0  0  0  0  0
   -9.8781    1.3712   27.7500 C   0  0  0  0  0  0  0  0  0  0  0  0
  2  4  1  0
  4  8  1  0
  8  9  2  3
  9 10  1  0
  1  2  2  0
  2  6  1  0
  6  7  2  0
  7  5  1  0
  5  3  2  0
  3  1  1  0
M  END
$$$$
