No_256-complexes_sdf/6BKW-FPZ/2024-09-17-14-21-01/
     RDKit          3D

 16 17  0  0  0  0  0  0  0  0999 V2000
   -7.9040    3.9820   27.1177 C   0  0  0  0  0  0  0  0  0  0  0  0
   -8.2057    2.8231   26.8733 C   0  0  0  0  0  0  0  0  0  0  0  0
   -8.7695    5.0740   26.7916 C   0  0  0  0  0  0  0  0  0  0  0  0
   -9.9618    4.7598   26.1630 C   0  0  0  0  0  0  0  0  0  0  0  0
   -9.4200    2.4524   26.2849 C   0  0  0  0  0  0  0  0  0  0  0  0
  -10.2590    3.4815   25.9250 C   0  0  0  0  0  0  0  0  0  0  0  0
   -8.3840    6.4693   27.0829 C   0  0  0  0  0  0  0  0  0  0  0  0
   -7.7453    6.8270   28.1334 N   0  0  0  0  0  0  0  0  0  0  0  0
   -8.6865    7.3668   26.2375 O   0  0  0  0  0  0  0  0  0  0  0  0
   -7.2811    1.6715   27.2913 C   0  0  0  0  0  0  0  0  0  0  0  0
   -7.5963    0.3210   27.1917 C   0  0  0  0  0  0  0  0  0  0  0  0
   -6.6953   -0.6150   27.6440 C   0  0  0  0  0  0  0  0  0  0  0  0
   -6.9941   -1.9801   27.7092 C   0  0  0  0  0  0  0  0  0  0  0  0
   -8.3163   -2.3202   27.3150 C   0  0  0  0  0  0  0  0  0  0  0  0
   -9.2207   -1.4174   26.9023 C   0  0  0  0  0  0  0  0  0  0  0  0
   -8.9135   -0.0889   26.9251 C   0  0  0  0  0  0  0  0  0  0  0  0
  3  7  1  0
  7  8  1  0
  7  9  2  0
  2 10  1  0
 10 11  1  0
 11 12  2  0
 12 13  1  0
 13 14  2  0
 14 15  1  0
 15 16  2  0
 16 11  1  0
  1  2  2  0
  2  5  1  0
  5  6  2  0
  6  4  1  0
  4  3  2  0
  3  1  1  0
M  END
$$$$
