No_2736-complexes_sdf/6BKW-FPZ/2024-09-17-14-21-01/
     RDKit          3D

 23 24  0  0  0  0  0  0  0  0999 V2000
   -7.7129    4.2099   27.0854 C   0  0  0  0  0  0  0  0  0  0  0  0
   -8.9133    4.4736   27.0998 C   0  0  0  0  0  0  0  0  0  0  0  0
   -9.7937    3.7367   26.2091 C   0  0  0  0  0  0  0  0  0  0  0  0
   -7.2496    2.8647   26.8496 C   0  0  0  0  0  0  0  0  0  0  0  0
   -8.1891    1.9790   26.3454 C   0  0  0  0  0  0  0  0  0  0  0  0
   -9.4252    2.4603   26.0121 C   0  0  0  0  0  0  0  0  0  0  0  0
   -9.3705    6.1884   27.2897 Cl  0  0  0  0  0  0  0  0  0  0  0  0
   -7.9784    0.5524   26.1356 C   0  0  0  0  0  0  0  0  0  0  0  0
   -7.0861   -0.0550   26.9221 N   0  0  0  0  0  0  0  0  0  0  0  0
   -6.4998    0.3374   27.7865 C   0  0  0  0  0  0  0  0  0  0  0  0
   -5.5119   -0.5914   28.4339 C   0  0  0  0  0  0  0  0  0  0  0  0
   -5.9155   -1.7704   27.8690 C   0  0  0  0  0  0  0  0  0  0  0  0
   -6.8497   -1.4686   26.8898 C   0  0  0  0  0  0  0  0  0  0  0  0
   -4.5208   -0.3006   29.4702 C   0  0  0  0  0  0  0  0  0  0  0  0
   -3.5906    0.6436   29.1673 C   0  0  0  0  0  0  0  0  0  0  0  0
   -4.8205   -0.5868   30.8230 C   0  0  0  0  0  0  0  0  0  0  0  0
   -3.8432   -0.2859   31.8114 C   0  0  0  0  0  0  0  0  0  0  0  0
   -4.0129   -0.8098   33.1053 C   0  0  0  0  0  0  0  0  0  0  0  0
   -2.9115   -0.7406   34.0048 C   0  0  0  0  0  0  0  0  0  0  0  0
   -1.7173   -0.0886   33.5270 C   0  0  0  0  0  0  0  0  0  0  0  0
   -1.6678    0.3957   32.3854 F   0  0  0  0  0  0  0  0  0  0  0  0
   -0.7043   -0.0034   34.3238 F   0  0  0  0  0  0  0  0  0  0  0  0
   -3.3362    1.0178   27.9224 N   0  0  0  0  0  0  0  0  0  0  0  0
  2  7  1  0
  5  8  1  0
  8  9  1  0
  9 10  1  0
 10 11  2  0
 11 12  1  0
  9 13  1  0
 12 13  1  0
 11 14  1  0
 14 15  2  3
 14 16  1  0
 16 17  1  0
 17 18  1  0
 18 19  2  3
 19 20  1  0
 20 21  1  0
 20 22  1  0
 15 23  1  0
  1  2  2  0
  2  3  1  0
  3  6  2  0
  6  5  1  0
  5  4  2  0
  4  1  1  0
M  END
$$$$
