No_2232-complexes_sdf/6BKW-FPZ/2024-09-17-14-21-01/
     RDKit          3D

  9  9  0  0  0  0  0  0  0  0999 V2000
   -7.7129    4.2099   27.0854 C   0  0  0  0  0  0  0  0  0  0  0  0
   -8.2112    3.0637   26.9225 C   0  0  0  0  0  0  0  0  0  0  0  0
   -8.4224    5.2106   27.8516 C   0  0  0  0  0  0  0  0  0  0  0  0
   -7.4917    1.9381   26.3986 C   0  0  0  0  0  0  0  0  0  0  0  0
   -9.7695    5.0306   28.1322 C   0  0  0  0  0  0  0  0  0  0  0  0
   -9.5839    2.7162   27.3257 C   0  0  0  0  0  0  0  0  0  0  0  0
  -10.3355    3.7874   27.9011 C   0  0  0  0  0  0  0  0  0  0  0  0
   -8.0790    0.8807   25.7714 C   0  0  0  0  0  0  0  0  0  0  0  0
   -9.5232    0.7733   25.9845 C   0  0  0  0  0  0  0  0  0  0  0  0
  2  4  1  0
  4  8  2  3
  8  9  1  0
  1  2  2  0
  2  6  1  0
  6  7  2  0
  7  5  1  0
  5  3  2  0
  3  1  1  0
M  END
$$$$
