No_2728-complexes_sdf/6BKW-FPZ/2024-09-17-14-21-01/
     RDKit          3D

 13 14  0  0  0  0  0  0  0  0999 V2000
   -7.2496    3.8871   27.4508 C   0  0  0  0  0  0  0  0  0  0  0  0
   -8.5096    4.0291   27.2770 C   0  0  0  0  0  0  0  0  0  0  0  0
   -9.2669    5.1645   27.5845 C   0  0  0  0  0  0  0  0  0  0  0  0
   -8.4566    6.3212   27.8001 C   0  0  0  0  0  0  0  0  0  0  0  0
   -6.4921    5.0197   27.7961 C   0  0  0  0  0  0  0  0  0  0  0  0
   -7.1702    6.2351   27.9936 C   0  0  0  0  0  0  0  0  0  0  0  0
   -9.3421    2.7548   27.0159 C   0  0  0  0  0  0  0  0  0  0  0  0
   -8.6920    1.5971   26.9331 C   0  0  0  0  0  0  0  0  0  0  0  0
   -9.4209    0.4491   26.5936 C   0  0  0  0  0  0  0  0  0  0  0  0
  -10.8198    0.5426   26.5051 C   0  0  0  0  0  0  0  0  0  0  0  0
  -10.7044    2.6479   26.8903 C   0  0  0  0  0  0  0  0  0  0  0  0
  -11.4289    1.6086   26.7511 C   0  0  0  0  0  0  0  0  0  0  0  0
   -8.7394   -0.7241   26.3980 F   0  0  0  0  0  0  0  0  0  0  0  0
  2  7  1  0
  9 13  1  0
  7  8  2  0
  8  9  1  0
  9 10  2  0
 10 12  1  0
 12 11  2  0
 11  7  1  0
  1  2  2  0
  2  3  1  0
  3  4  2  0
  4  6  1  0
  6  5  2  0
  5  1  1  0
M  END
$$$$
