No_2899-complexes_sdf/6BKW-FPZ/2024-09-17-14-21-01/
     RDKit          3D

 17 18  0  0  0  0  0  0  0  0999 V2000
   -7.7129    4.2099   27.0854 C   0  0  0  0  0  0  0  0  0  0  0  0
   -8.2112    3.0637   26.9225 C   0  0  0  0  0  0  0  0  0  0  0  0
   -8.5108    5.3904   26.9436 C   0  0  0  0  0  0  0  0  0  0  0  0
   -9.7256    5.1955   26.3518 C   0  0  0  0  0  0  0  0  0  0  0  0
   -9.4995    2.8258   26.4878 C   0  0  0  0  0  0  0  0  0  0  0  0
  -10.2542    3.9691   26.2055 C   0  0  0  0  0  0  0  0  0  0  0  0
   -7.9456    6.5695   27.1656 F   0  0  0  0  0  0  0  0  0  0  0  0
   -7.3632    1.8215   27.2517 C   0  0  0  0  0  0  0  0  0  0  0  0
   -6.0601    2.0021   27.7295 C   0  0  0  0  0  0  0  0  0  0  0  0
   -5.2596    0.8435   28.0589 C   0  0  0  0  0  0  0  0  0  0  0  0
   -5.7750   -0.4091   27.9325 C   0  0  0  0  0  0  0  0  0  0  0  0
   -7.9343    0.5275   27.1633 C   0  0  0  0  0  0  0  0  0  0  0  0
   -7.1354   -0.5456   27.5465 C   0  0  0  0  0  0  0  0  0  0  0  0
   -3.8802    1.0630   28.5146 C   0  0  0  0  0  0  0  0  0  0  0  0
   -3.3726    2.0778   28.1993 F   0  0  0  0  0  0  0  0  0  0  0  0
   -3.0617    0.0335   28.0290 F   0  0  0  0  0  0  0  0  0  0  0  0
   -3.8504    0.9612   29.8981 F   0  0  0  0  0  0  0  0  0  0  0  0
  3  7  1  0
  2  8  1  0
 10 14  1  0
 14 15  1  0
 14 16  1  0
 14 17  1  0
  1  2  2  0
  2  5  1  0
  5  6  2  0
  6  4  1  0
  4  3  2  0
  3  1  1  0
  8  9  2  0
  9 10  1  0
 10 11  2  0
 11 13  1  0
 13 12  2  0
 12  8  1  0
M  END
$$$$
