No_2430-complexes_sdf/6BKW-FPZ/2024-09-17-14-21-01/
     RDKit          3D

 10  9  0  0  0  0  0  0  0  0999 V2000
   -7.8562    3.9030   26.8761 Cl  0  0  0  0  0  0  0  0  0  0  0  0
   -8.2615    4.9549   27.8781 C   0  0  0  0  0  0  0  0  0  0  0  0
   -8.6994    6.1916   27.4193 C   0  0  0  0  0  0  0  0  0  0  0  0
   -8.3521    6.5733   26.0794 C   0  0  0  0  0  0  0  0  0  0  0  0
   -9.6186    6.7764   25.5807 C   0  0  0  0  0  0  0  0  0  0  0  0
  -10.3977    5.4825   25.6659 C   0  0  0  0  0  0  0  0  0  0  0  0
  -10.7354    4.8197   24.3770 C   0  0  0  0  0  0  0  0  0  0  0  0
  -11.3061    3.5803   24.4045 C   0  0  0  0  0  0  0  0  0  0  0  0
  -11.3764    2.9167   23.2175 C   0  0  0  0  0  0  0  0  0  0  0  0
  -11.8111    1.5398   23.1772 C   0  0  0  0  0  0  0  0  0  0  0  0
  1  2  1  0
  2  3  1  0
  3  4  1  0
  4  5  1  0
  5  6  1  0
  6  7  1  0
  7  8  1  0
  8  9  2  3
  9 10  1  0
M  END
$$$$
