No_2862-complexes_sdf/6BKW-FPZ/2024-09-17-14-21-01/
     RDKit          3D

 23 26  0  0  0  0  0  0  0  0999 V2000
   -7.7129    4.2099   27.0854 C   0  0  0  0  0  0  0  0  0  0  0  0
   -7.7814    5.1722   27.8972 C   0  0  0  0  0  0  0  0  0  0  0  0
   -8.8998    3.8713   26.3707 C   0  0  0  0  0  0  0  0  0  0  0  0
   -9.9938    4.6774   26.5446 C   0  0  0  0  0  0  0  0  0  0  0  0
   -8.7789    6.1536   27.9256 C   0  0  0  0  0  0  0  0  0  0  0  0
   -9.9428    5.8398   27.2296 C   0  0  0  0  0  0  0  0  0  0  0  0
   -8.9119    2.6447   25.5685 C   0  0  0  0  0  0  0  0  0  0  0  0
   -9.7335    1.6985   26.0442 C   0  0  0  0  0  0  0  0  0  0  0  0
  -10.6205    1.6022   26.6867 C   0  0  0  0  0  0  0  0  0  0  0  0
  -11.2241    2.7776   27.3831 C   0  0  1  0  0  0  0  0  0  0  0  0
  -10.9720    4.0656   27.1711 C   0  0  2  0  0  0  0  0  0  0  0  0
  -12.3990    2.4455   28.3150 C   0  0  0  0  0  0  0  0  0  0  0  0
  -12.4489    1.5333   28.9974 C   0  0  0  0  0  0  0  0  0  0  0  0
  -13.5588    1.1761   29.9041 C   0  0  0  0  0  0  0  0  0  0  0  0
  -14.4605    2.2215   30.1193 C   0  0  0  0  0  0  0  0  0  0  0  0
  -14.3519    3.3928   29.4461 C   0  0  0  0  0  0  0  0  0  0  0  0
  -13.2959    3.5622   28.5738 C   0  0  0  0  0  0  0  0  0  0  0  0
  -12.1354    4.9223   27.7140 C   0  0  2  0  0  0  0  0  0  0  0  0
  -14.2095    3.8405   27.7267 C   0  0  2  0  0  0  0  0  0  0  0  0
  -13.0519    5.4063   27.0532 O   0  0  0  0  0  0  0  0  0  0  0  0
  -11.9438    5.6754   28.7510 F   0  0  0  0  0  0  0  0  0  0  0  0
  -15.5020    2.9926   27.6703 C   0  0  0  0  0  0  0  0  0  0  0  0
  -14.0405    4.7831   26.8299 C   0  0  0  0  0  0  0  0  0  0  0  0
  3  7  1  0
  7  8  1  0
  8  9  2  0
 10  9  1  6
 11  4  1  6
 10 11  1  0
 10 12  1  0
 11 18  1  0
 17 19  1  0
 18 20  1  0
 18 21  1  6
 19 22  1  6
 19 23  1  0
 20 23  1  0
 12 13  2  0
 13 14  1  0
 14 15  2  0
 15 16  1  0
 16 17  2  0
 17 12  1  0
  1  2  2  0
  2  5  1  0
  5  6  2  0
  6  4  1  0
  4  3  2  0
  3  1  1  0
M  END
$$$$
