No_2949-complexes_sdf/6BKW-FPZ/2024-09-17-14-21-01/
     RDKit          3D

 23 25  0  0  0  0  0  0  0  0999 V2000
   -7.2496    3.8871   27.4508 C   0  0  0  0  0  0  0  0  0  0  0  0
   -7.6161    2.7143   27.1523 C   0  0  0  0  0  0  0  0  0  0  0  0
   -8.8302    2.4659   26.5056 C   0  0  0  0  0  0  0  0  0  0  0  0
   -8.1584    5.0090   27.3234 C   0  0  0  0  0  0  0  0  0  0  0  0
   -9.3788    4.7965   26.7695 C   0  0  0  0  0  0  0  0  0  0  0  0
   -9.7028    3.5649   26.3276 C   0  0  0  0  0  0  0  0  0  0  0  0
   -6.5552    1.6737   27.4428 C   0  0  0  0  0  0  0  0  0  0  0  0
   -5.2861    1.9043   27.6995 C   0  0  0  0  0  0  0  0  0  0  0  0
   -7.0040    0.2890   27.2556 C   0  0  0  0  0  0  0  0  0  0  0  0
   -6.0922   -0.7004   27.5414 C   0  0  0  0  0  0  0  0  0  0  0  0
   -4.3821    0.9081   28.0618 C   0  0  0  0  0  0  0  0  0  0  0  0
   -4.8066   -0.4138   27.9862 C   0  0  0  0  0  0  0  0  0  0  0  0
   -7.7071    6.3669   27.7729 C   0  0  0  0  0  0  0  0  0  0  0  0
   -7.7011    7.3690   27.0972 N   0  0  0  0  0  0  0  0  0  0  0  0
  -10.9907    3.3547   25.6390 C   0  0  0  0  0  0  0  0  0  0  0  0
  -12.1260    3.1325   26.3339 C   0  0  0  0  0  0  0  0  0  0  0  0
  -12.1637    2.9327   27.5880 C   0  0  0  0  0  0  0  0  0  0  0  0
  -10.9940    2.8453   28.4085 C   0  0  0  0  0  0  0  0  0  0  0  0
  -13.5518    2.7247   28.2658 C   0  0  0  0  0  0  0  0  0  0  0  0
  -14.5428    2.9876   27.7467 C   0  0  0  0  0  0  0  0  0  0  0  0
  -14.5693    3.3525   26.3109 C   0  0  0  0  0  0  0  0  0  0  0  0
  -13.4273    3.4945   25.6187 C   0  0  0  0  0  0  0  0  0  0  0  0
  -10.8908    3.1038   24.3604 O   0  0  0  0  0  0  0  0  0  0  0  0
  2  7  1  0
  4 13  1  0
 13 14  1  0
  6 15  1  0
 15 16  1  0
 17 18  1  0
 15 23  2  0
  7  8  2  0
  8 11  1  0
 11 12  2  0
 12 10  1  0
 10  9  2  0
  9  7  1  0
  1  2  2  0
  2  3  1  0
  3  6  2  0
  6  5  1  0
  5  4  2  0
  4  1  1  0
 16 17  2  0
 17 19  1  0
 19 20  2  0
 20 21  1  0
 21 22  2  0
 22 16  1  0
M  END
$$$$
