No_2002-complexes_sdf/6BKW-FPZ/2024-09-17-14-21-01/
     RDKit          3D

  9  9  0  0  0  0  0  0  0  0999 V2000
   -7.7129    4.2099   27.0854 C   0  0  0  0  0  0  0  0  0  0  0  0
   -8.2112    3.0637   26.9225 C   0  0  0  0  0  0  0  0  0  0  0  0
   -7.5138    1.9223   27.4249 C   0  0  0  0  0  0  0  0  0  0  0  0
   -7.4530    4.7989   28.0777 C   0  0  0  0  0  0  0  0  0  0  0  0
   -7.9523    0.6041   27.4004 C   0  0  0  0  0  0  0  0  0  0  0  0
   -9.2694    0.4663   26.8564 C   0  0  0  0  0  0  0  0  0  0  0  0
  -10.0192    1.4902   26.3804 C   0  0  0  0  0  0  0  0  0  0  0  0
   -9.4813    2.7674   26.3800 C   0  0  0  0  0  0  0  0  0  0  0  0
   -8.0663    6.0233   28.5445 C   0  0  0  0  0  0  0  0  0  0  0  0
  1  4  1  0
  4  9  2  0
  1  2  1  0
  2  3  2  0
  3  5  1  0
  5  6  2  0
  6  7  1  0
  7  8  2  0
  8  2  1  0
M  END
$$$$
