No_248-complexes_sdf/6BKW-FPZ/2024-09-17-14-21-01/
     RDKit          3D

 29 31  0  0  0  0  0  0  0  0999 V2000
   -7.7129    4.2099   27.0854 C   0  0  0  0  0  0  0  0  0  0  0  0
   -8.2112    3.0637   26.9225 C   0  0  0  0  0  0  0  0  0  0  0  0
   -8.5108    5.3904   26.9436 C   0  0  0  0  0  0  0  0  0  0  0  0
   -7.9752    6.6981   27.2112 C   0  0  0  0  0  0  0  0  0  0  0  0
   -9.5213    2.8208   26.4688 C   0  0  0  0  0  0  0  0  0  0  0  0
  -10.2979    3.9327   26.2378 C   0  0  0  0  0  0  0  0  0  0  0  0
   -9.7894    5.2123   26.4395 C   0  0  0  0  0  0  0  0  0  0  0  0
   -7.3451    1.8185   27.1796 C   0  0  0  0  0  0  0  0  0  0  0  0
   -7.7232    0.5262   26.9339 C   0  0  0  0  0  0  0  0  0  0  0  0
   -6.8979   -0.5152   27.3134 C   0  0  0  0  0  0  0  0  0  0  0  0
   -5.6407   -0.2250   27.8929 C   0  0  0  0  0  0  0  0  0  0  0  0
   -5.2530    1.0888   28.1418 C   0  0  0  0  0  0  0  0  0  0  0  0
   -6.0420    2.0747   27.8523 C   0  0  0  0  0  0  0  0  0  0  0  0
   -8.6970    7.7218   26.9989 F   0  0  0  0  0  0  0  0  0  0  0  0
   -6.8156    6.9084   26.4715 F   0  0  0  0  0  0  0  0  0  0  0  0
   -7.4790    6.6723   28.5031 F   0  0  0  0  0  0  0  0  0  0  0  0
   -4.0470    1.3533   28.7067 O   0  0  0  0  0  0  0  0  0  0  0  0
  -11.6308    3.8404   25.6547 C   0  0  2  0  0  0  0  0  0  0  0  0
  -12.7108    3.4651   26.4698 C   0  0  0  0  0  0  0  0  0  0  0  0
  -12.4789    3.3200   27.8801 C   0  0  0  0  0  0  0  0  0  0  0  0
  -13.6301    3.0136   28.7488 C   0  0  0  0  0  0  0  0  0  0  0  0
  -14.8497    2.8675   28.1575 C   0  0  0  0  0  0  0  0  0  0  0  0
  -15.0634    3.0411   26.8458 C   0  0  0  0  0  0  0  0  0  0  0  0
  -14.0224    3.4096   25.9778 C   0  0  0  0  0  0  0  0  0  0  0  0
  -11.8108    4.0384   24.2665 C   0  0  0  0  0  0  0  0  0  0  0  0
  -10.7541    4.3186   23.4127 C   0  0  0  0  0  0  0  0  0  0  0  0
  -10.5202    4.1552   22.2678 C   0  0  0  0  0  0  0  0  0  0  0  0
  -10.3950    4.5050   21.1280 C   0  0  0  0  0  0  0  0  0  0  0  0
   -9.5856    3.7729   20.3976 C   0  0  0  0  0  0  0  0  0  0  0  0
  3  4  1  0
  2  8  1  0
  4 14  1  0
  4 15  1  0
  4 16  1  0
 12 17  1  0
  6 18  1  0
 18 25  1  6
 25 26  3  0
 26 27  1  0
 27 28  3  0
 28 29  1  0
 18 19  1  0
  8  9  2  0
  9 10  1  0
 10 11  2  0
 11 12  1  0
 12 13  2  0
 13  8  1  0
  1  2  2  0
  2  5  1  0
  5  6  2  0
  6  7  1  0
  7  3  2  0
  3  1  1  0
 19 20  2  0
 20 21  1  0
 21 22  2  0
 22 23  1  0
 23 24  2  0
 24 19  1  0
M  END
$$$$
