No_2391-complexes_sdf/6BKW-FPZ/2024-09-17-14-21-01/
     RDKit          3D

 23 26  0  0  0  0  0  0  0  0999 V2000
   -7.9040    3.9820   27.1177 C   0  0  0  0  0  0  0  0  0  0  0  0
   -7.8663    4.8694   27.9238 C   0  0  0  0  0  0  0  0  0  0  0  0
   -7.4547    2.7080   27.4594 C   0  0  0  0  0  0  0  0  0  0  0  0
   -7.9337    1.5946   26.8372 C   0  0  0  0  0  0  0  0  0  0  0  0
   -8.9032    1.7881   25.8510 C   0  0  0  0  0  0  0  0  0  0  0  0
   -9.3787    2.9871   25.5530 C   0  0  0  0  0  0  0  0  0  0  0  0
   -8.9781    4.0300   26.2200 C   0  0  0  0  0  0  0  0  0  0  0  0
   -8.0209    6.2023   27.5934 C   0  0  0  0  0  0  0  0  0  0  0  0
   -8.9124    6.5968   26.5593 C   0  0  0  0  0  0  0  0  0  0  0  0
   -9.4627    5.4016   25.8285 C   0  0  0  0  0  0  0  0  0  0  0  0
   -7.3438    0.2624   27.1335 C   0  0  0  0  0  0  0  0  0  0  0  0
   -6.0786    0.1282   27.6820 C   0  0  0  0  0  0  0  0  0  0  0  0
   -5.4558   -0.9565   27.9823 C   0  0  0  0  0  0  0  0  0  0  0  0
   -4.1546   -0.9463   28.5968 C   0  0  0  0  0  0  0  0  0  0  0  0
   -3.4589    0.2618   28.7910 C   0  0  0  0  0  0  0  0  0  0  0  0
   -4.1563    1.4418   28.5036 C   0  0  0  0  0  0  0  0  0  0  0  0
   -5.3455    1.4291   27.9598 C   0  0  0  0  0  0  0  0  0  0  0  0
   -6.1067    2.6246   27.7748 N   0  0  0  0  0  0  0  0  0  0  0  0
  -10.4478    3.1078   24.4739 C   0  0  0  0  0  0  0  0  0  0  0  0
  -10.3222    2.4557   23.3630 C   0  0  0  0  0  0  0  0  0  0  0  0
  -10.9873    2.4555   22.3759 C   0  0  0  0  0  0  0  0  0  0  0  0
  -10.7692    1.5073   21.2135 C   0  0  0  0  0  0  0  0  0  0  0  0
  -11.4807    1.4895   20.0460 C   0  0  0  0  0  0  0  0  0  0  0  0
  6 19  1  0
 19 20  2  3
 20 21  1  0
 21 22  2  3
 22 23  1  0
  4 11  2  0
 11 12  1  0
 17 18  1  0
 18  3  2  0
  1  2  2  0
  2  8  1  0
  8  9  2  0
  9 10  1  0
 10  7  2  0
 12 13  2  0
 13 14  1  0
 14 15  2  0
 15 16  1  0
 16 17  2  0
 17 12  1  0
  1  3  1  0
  3  4  1  0
  4  5  1  0
  5  6  2  0
  6  7  1  0
  7  1  1  0
M  END
$$$$
