No_2952-complexes_sdf/6BKW-FPZ/2024-09-17-14-21-01/
     RDKit          3D

 30 35  0  0  0  0  0  0  0  0999 V2000
   -7.7129    4.2099   27.0854 C   0  0  0  0  0  0  0  0  0  0  0  0
   -7.7814    5.1722   27.8972 C   0  0  0  0  0  0  0  0  0  0  0  0
   -7.3155    2.9700   27.6145 C   0  0  0  0  0  0  0  0  0  0  0  0
   -7.6814    1.8188   26.9581 C   0  0  0  0  0  0  0  0  0  0  0  0
   -7.2010    0.5770   27.3247 C   0  0  0  0  0  0  0  0  0  0  0  0
   -7.9191   -0.5882   27.1192 C   0  0  0  0  0  0  0  0  0  0  0  0
   -9.0850   -0.4407   26.3239 C   0  0  0  0  0  0  0  0  0  0  0  0
   -9.5006    0.7417   25.8080 C   0  0  0  0  0  0  0  0  0  0  0  0
  -10.6226    0.9083   25.0077 C   0  0  0  0  0  0  0  0  0  0  0  0
   -8.7700    1.8859   26.1740 C   0  0  0  0  0  0  0  0  0  0  0  0
   -8.5805    6.3537   27.5970 C   0  0  0  0  0  0  0  0  0  0  0  0
  -10.9194    1.1205   23.9939 C   0  0  0  0  0  0  0  0  0  0  0  0
   -9.8447    1.3226   23.0280 C   0  0  0  0  0  0  0  0  0  0  0  0
  -10.0575    1.7482   21.6033 C   0  0  0  0  0  0  0  0  0  0  0  0
   -9.0876    2.0972   20.8701 C   0  0  0  0  0  0  0  0  0  0  0  0
  -11.3940    1.5575   21.1227 C   0  0  0  0  0  0  0  0  0  0  0  0
   -8.9215    6.5298   26.5278 C   0  0  0  0  0  0  0  0  0  0  0  0
   -9.2060    5.4711   25.6178 C   0  0  0  0  0  0  0  0  0  0  0  0
   -8.5877    4.2493   25.9899 C   0  0  0  0  0  0  0  0  0  0  0  0
   -9.1488    3.0316   25.4818 C   0  0  0  0  0  0  0  0  0  0  0  0
  -11.6369    1.9113   19.8176 C   0  0  0  0  0  0  0  0  0  0  0  0
  -10.6385    2.5506   19.0993 C   0  0  0  0  0  0  0  0  0  0  0  0
   -9.3827    2.7765   19.5925 C   0  0  0  0  0  0  0  0  0  0  0  0
  -11.7162    0.2556   25.8917 C   0  0  0  0  0  0  0  0  0  0  0  0
  -12.6750    0.7229   26.0794 C   0  0  0  0  0  0  0  0  0  0  0  0
  -13.7211    0.2661   26.9565 C   0  0  0  0  0  0  0  0  0  0  0  0
  -13.4112   -0.9129   27.6390 C   0  0  0  0  0  0  0  0  0  0  0  0
  -12.2094   -1.5149   27.4888 C   0  0  0  0  0  0  0  0  0  0  0  0
  -11.3166   -0.9387   26.6764 C   0  0  0  0  0  0  0  0  0  0  0  0
  -10.2212   -1.0530   27.1977 C   0  0  0  0  0  0  0  0  0  0  0  0
  9 12  1  0
 12 13  2  3
 13 14  1  0
  1  3  1  0
  3  4  2  0
 10 20  2  0
 20 19  1  0
 24 25  2  0
 25 26  1  0
 26 27  2  0
 27 28  1  0
 28 29  2  0
  1  2  2  0
  2 11  1  0
 11 17  2  0
 17 18  1  0
 18 19  2  0
 19  1  1  0
 14 15  2  0
 15 23  1  0
 23 22  2  0
 22 21  1  0
 21 16  2  0
 16 14  1  0
  8  9  2  0
  9 24  1  0
 24 29  1  0
 29 30  1  0
 30  7  2  0
  4  5  1  0
  5  6  2  0
  6  7  1  0
  7  8  1  0
  8 10  1  0
 10  4  1  0
M  END
$$$$
