No_255-complexes_sdf/6BKW-FPZ/2024-09-17-14-21-01/
     RDKit          3D

 14 15  0  0  0  0  0  0  0  0999 V2000
   -7.9040    3.9820   27.1177 C   0  0  0  0  0  0  0  0  0  0  0  0
   -8.2057    2.8231   26.8733 C   0  0  0  0  0  0  0  0  0  0  0  0
   -8.7695    5.0740   26.7916 C   0  0  0  0  0  0  0  0  0  0  0  0
   -8.4337    6.4678   27.0913 C   0  0  0  0  0  0  0  0  0  0  0  0
   -7.3775    1.6806   27.3986 C   0  0  0  0  0  0  0  0  0  0  0  0
   -6.0850    2.0823   27.7929 C   0  0  0  0  0  0  0  0  0  0  0  0
   -5.2058    1.0290   28.3172 C   0  0  0  0  0  0  0  0  0  0  0  0
   -5.6491   -0.2546   28.3582 C   0  0  0  0  0  0  0  0  0  0  0  0
   -7.6494    0.3734   27.4113 C   0  0  0  0  0  0  0  0  0  0  0  0
   -6.8443   -0.5729   27.8786 C   0  0  0  0  0  0  0  0  0  0  0  0
   -9.2689    7.4992   26.7002 C   0  0  0  0  0  0  0  0  0  0  0  0
   -9.0007    2.5724   25.6693 C   0  0  0  0  0  0  0  0  0  0  0  0
   -9.8320    3.5457   25.1864 C   0  0  0  0  0  0  0  0  0  0  0  0
   -9.5765    4.9111   25.6800 C   0  0  0  0  0  0  0  0  0  0  0  0
  3  4  1  0
  2  5  1  0
  4 11  2  0
  5  6  2  0
  6  7  1  0
  7  8  2  0
  8 10  1  0
 10  9  2  0
  9  5  1  0
  1  2  2  0
  2 12  1  0
 12 13  2  0
 13 14  1  0
 14  3  2  0
  3  1  1  0
M  END
$$$$
