No_2770-complexes_sdf/6BKW-FPZ/2024-09-17-14-21-01/
     RDKit          3D

 17 19  0  0  0  0  0  0  0  0999 V2000
   -7.9040    3.9820   27.1177 C   0  0  0  0  0  0  0  0  0  0  0  0
   -7.8663    4.8694   27.9238 C   0  0  0  0  0  0  0  0  0  0  0  0
   -9.0953    3.1697   27.0532 C   0  0  0  0  0  0  0  0  0  0  0  0
  -10.1313    3.4052   27.8871 C   0  0  0  0  0  0  0  0  0  0  0  0
   -8.9489    5.3814   28.6671 C   0  0  0  0  0  0  0  0  0  0  0  0
  -10.1039    4.5714   28.7102 C   0  0  0  0  0  0  0  0  0  0  0  0
   -9.0505    1.9437   26.1963 C   0  0  0  0  0  0  0  0  0  0  0  0
   -9.5005    2.1052   24.8742 C   0  0  0  0  0  0  0  0  0  0  0  0
   -9.4919    1.0870   23.9344 C   0  0  0  0  0  0  0  0  0  0  0  0
   -8.5089    0.7561   26.5738 C   0  0  0  0  0  0  0  0  0  0  0  0
   -8.4570   -0.3334   25.6792 C   0  0  0  0  0  0  0  0  0  0  0  0
   -8.9264   -0.1459   24.3811 C   0  0  0  0  0  0  0  0  0  0  0  0
  -10.0092    3.4420   24.3569 C   0  0  1  0  0  0  0  0  0  0  0  0
  -10.5534    3.5580   23.1794 N   0  0  0  0  0  0  0  0  0  0  0  0
  -10.9629    4.7520   22.7814 C   0  0  0  0  0  0  0  0  0  0  0  0
  -10.3047    4.5491   25.0508 C   0  0  0  0  0  0  0  0  0  0  0  0
  -10.7751    5.4087   24.0036 N   0  0  0  0  0  0  0  0  0  0  0  0
  3  7  1  0
 13  8  1  1
 13 14  1  0
 14 15  2  0
 13 16  1  0
 15 17  2  0
 16 17  1  0
  1  2  2  0
  2  5  1  0
  5  6  2  0
  6  4  1  0
  4  3  2  0
  3  1  1  0
  7  8  1  0
  8  9  2  0
  9 12  1  0
 12 11  2  0
 11 10  1  0
 10  7  2  0
M  END
$$$$
