No_2822-complexes_sdf/6BKW-FPZ/2024-09-17-14-21-01/
     RDKit          3D

  8  8  0  0  0  0  0  0  0  0999 V2000
   -7.2496    3.8871   27.4508 C   0  0  0  0  0  0  0  0  0  0  0  0
   -8.5096    4.0291   27.2770 C   0  0  0  0  0  0  0  0  0  0  0  0
   -9.2677    5.1714   27.5773 C   0  0  0  0  0  0  0  0  0  0  0  0
   -6.6520    2.6709   27.2675 N   0  0  0  0  0  0  0  0  0  0  0  0
   -7.5994    1.7987   26.9861 C   0  0  0  0  0  0  0  0  0  0  0  0
   -7.6368    0.4853   26.7528 C   0  0  0  0  0  0  0  0  0  0  0  0
   -8.8205    2.6193   26.9560 C   0  0  0  0  0  0  0  0  0  0  0  0
  -10.6488    5.0718   27.6345 C   0  0  0  0  0  0  0  0  0  0  0  0
  1  2  1  0
  2  3  2  3
  1  4  1  0
  4  5  1  0
  5  6  1  0
  2  7  1  0
  5  7  1  0
  3  8  1  0
M  END
$$$$
