No_2864-complexes_sdf/6BKW-FPZ/2024-09-17-14-21-01/
     RDKit          3D

 11 11  0  0  0  0  0  0  0  0999 V2000
   -7.9040    3.9820   27.1177 C   0  0  0  0  0  0  0  0  0  0  0  0
   -8.2057    2.8231   26.8733 C   0  0  0  0  0  0  0  0  0  0  0  0
   -8.7695    5.0740   26.7916 C   0  0  0  0  0  0  0  0  0  0  0  0
   -9.9618    4.7598   26.1630 C   0  0  0  0  0  0  0  0  0  0  0  0
   -7.3763    1.7038   27.3414 C   0  0  2  0  0  0  0  0  0  0  0  0
   -9.3929    2.3436   26.2895 C   0  0  0  0  0  0  0  0  0  0  0  0
  -10.2635    3.4175   25.9130 C   0  0  0  0  0  0  0  0  0  0  0  0
   -6.1790    1.9779   27.8796 N   0  0  0  0  0  0  0  0  0  0  0  0
   -7.4878    0.3735   26.9321 C   0  0  0  0  0  0  0  0  0  0  0  0
   -5.3609    0.8914   28.1391 C   0  0  0  0  0  0  0  0  0  0  0  0
   -8.7768    0.0603   26.2594 C   0  0  0  0  0  0  0  0  0  0  0  0
  2  5  1  0
  5  8  1  0
  5  9  1  6
  8 10  2  0
  9 11  1  0
  1  2  2  0
  2  6  1  0
  6  7  2  0
  7  4  1  0
  4  3  2  0
  3  1  1  0
M  END
$$$$
