No_2186-complexes_sdf/6BKW-FPZ/2024-09-17-14-21-01/
     RDKit          3D

 18 19  0  0  0  0  0  0  0  0999 V2000
   -7.7129    4.2099   27.0854 C   0  0  0  0  0  0  0  0  0  0  0  0
   -8.2112    3.0637   26.9225 C   0  0  0  0  0  0  0  0  0  0  0  0
   -9.4446    2.8304   26.1868 C   0  0  0  0  0  0  0  0  0  0  0  0
   -8.4697    5.3956   26.7238 C   0  0  0  0  0  0  0  0  0  0  0  0
   -8.0091    6.7588   26.9904 C   0  0  2  0  0  0  0  0  0  0  0  0
  -10.1208    3.9213   25.7408 C   0  0  0  0  0  0  0  0  0  0  0  0
   -9.5939    5.2027   25.9665 C   0  0  0  0  0  0  0  0  0  0  0  0
   -7.1212    6.8389   27.9128 F   0  0  0  0  0  0  0  0  0  0  0  0
   -8.5076    7.8959   26.4587 C   0  0  0  0  0  0  0  0  0  0  0  0
   -7.4683    1.8022   27.3776 C   0  0  0  0  0  0  0  0  0  0  0  0
   -6.0920    1.8647   27.6893 C   0  0  0  0  0  0  0  0  0  0  0  0
   -5.3973    0.7318   28.1862 C   0  0  0  0  0  0  0  0  0  0  0  0
   -6.0555   -0.4962   28.1711 C   0  0  0  0  0  0  0  0  0  0  0  0
   -8.1573    0.5758   27.5040 C   0  0  0  0  0  0  0  0  0  0  0  0
   -7.4014   -0.5298   27.9056 C   0  0  0  0  0  0  0  0  0  0  0  0
   -4.0523    0.8657   28.4334 N   0  0  0  0  0  0  0  0  0  0  0  0
   -3.4227   -0.0285   29.2956 C   0  0  0  0  0  0  0  0  0  0  0  0
   -3.9821   -0.8988   29.9189 C   0  0  0  0  0  0  0  0  0  0  0  0
  4  5  1  0
  5  8  1  0
  5  9  1  1
  2 10  1  0
 12 16  1  0
 16 17  1  0
 17 18  1  0
  1  2  2  0
  2  3  1  0
  3  6  2  0
  6  7  1  0
  7  4  2  0
  4  1  1  0
 10 11  2  0
 11 12  1  0
 12 13  2  0
 13 15  1  0
 15 14  2  0
 14 10  1  0
M  END
$$$$
