No_2286-complexes_sdf/6BKW-FPZ/2024-09-17-14-21-01/
     RDKit          3D

 15 16  0  0  0  0  0  0  0  0999 V2000
   -7.9040    3.9820   27.1177 C   0  0  0  0  0  0  0  0  0  0  0  0
   -7.8663    4.8694   27.9238 C   0  0  0  0  0  0  0  0  0  0  0  0
   -9.0501    3.8017   26.2617 C   0  0  0  0  0  0  0  0  0  0  0  0
  -10.0189    4.7608   26.3707 C   0  0  0  0  0  0  0  0  0  0  0  0
   -8.6973    5.9722   27.8968 C   0  0  0  0  0  0  0  0  0  0  0  0
   -9.8216    5.8946   27.1241 C   0  0  0  0  0  0  0  0  0  0  0  0
   -9.3622    2.6765   25.4475 C   0  0  0  0  0  0  0  0  0  0  0  0
   -8.7799    1.5420   25.7069 N   0  0  0  0  0  0  0  0  0  0  0  0
   -8.7082    0.4953   24.8564 C   0  0  0  0  0  0  0  0  0  0  0  0
   -9.9436    2.8269   24.3531 O   0  0  0  0  0  0  0  0  0  0  0  0
   -7.6579   -0.4017   25.1004 C   0  0  0  0  0  0  0  0  0  0  0  0
   -7.0548   -1.0109   24.0426 C   0  0  0  0  0  0  0  0  0  0  0  0
   -7.6342   -0.9087   22.6985 C   0  0  0  0  0  0  0  0  0  0  0  0
   -8.6572    0.0307   22.5256 C   0  0  0  0  0  0  0  0  0  0  0  0
   -9.0697    0.7799   23.5740 C   0  0  0  0  0  0  0  0  0  0  0  0
  3  7  1  0
  7  8  1  0
  8  9  1  0
  7 10  2  0
  1  2  2  0
  2  5  1  0
  5  6  2  0
  6  4  1  0
  4  3  2  0
  3  1  1  0
  9 11  2  0
 11 12  1  0
 12 13  2  0
 13 14  1  0
 14 15  2  0
 15  9  1  0
M  END
$$$$
