No_233-complexes_sdf/6BKW-FPZ/2024-09-17-14-21-01/
     RDKit          3D

 33 36  0  0  0  0  0  0  0  0999 V2000
   -7.7129    4.2099   27.0854 C   0  0  0  0  0  0  0  0  0  0  0  0
   -8.2112    3.0637   26.9225 C   0  0  0  0  0  0  0  0  0  0  0  0
   -8.4224    5.2106   27.8516 C   0  0  0  0  0  0  0  0  0  0  0  0
   -9.5628    2.7160   27.4089 C   0  0  0  0  0  0  0  0  0  0  0  0
  -10.2639    3.7034   28.1156 C   0  0  0  0  0  0  0  0  0  0  0  0
   -7.8025    6.5389   27.9601 C   0  0  0  0  0  0  0  0  0  0  0  0
   -9.6552    4.9660   28.3153 C   0  0  0  0  0  0  0  0  0  0  0  0
  -10.1546    1.4178   27.3455 C   0  0  0  0  0  0  0  0  0  0  0  0
   -9.2911    0.4014   27.1788 C   0  0  0  0  0  0  0  0  0  0  0  0
  -11.4818    1.2204   27.5944 C   0  0  0  0  0  0  0  0  0  0  0  0
   -7.9544    0.4241   26.9506 C   0  0  0  0  0  0  0  0  0  0  0  0
   -7.4308    1.8130   26.6643 C   0  0  0  0  0  0  0  0  0  0  0  0
  -12.3816    1.6554   26.7806 C   0  0  0  0  0  0  0  0  0  0  0  0
  -11.9388    0.5651   28.8601 C   0  0  0  0  0  0  0  0  0  0  0  0
  -13.3781    1.4003   26.5296 C   0  0  0  0  0  0  0  0  0  0  0  0
  -13.2611    0.2044   28.9340 C   0  0  0  0  0  0  0  0  0  0  0  0
  -14.1060    0.6132   27.7977 C   0  0  0  0  0  0  0  0  0  0  0  0
   -7.0914   -0.6658   26.6862 C   0  0  0  0  0  0  0  0  0  0  0  0
   -7.3996   -1.7057   27.0419 C   0  0  0  0  0  0  0  0  0  0  0  0
   -6.5511   -2.8489   26.9580 C   0  0  0  0  0  0  0  0  0  0  0  0
   -5.2868   -2.6556   26.3784 C   0  0  0  0  0  0  0  0  0  0  0  0
   -4.8940   -1.3864   25.9655 C   0  0  0  0  0  0  0  0  0  0  0  0
   -5.7486   -0.3486   26.1624 C   0  0  0  0  0  0  0  0  0  0  0  0
  -15.5146    0.2650   27.7556 C   0  0  0  0  0  0  0  0  0  0  0  0
  -16.2746    0.4649   28.7386 C   0  0  0  0  0  0  0  0  0  0  0  0
  -16.0260   -0.3444   26.5858 C   0  0  0  0  0  0  0  0  0  0  0  0
  -15.9709    1.0859   29.9067 C   0  0  0  0  0  0  0  0  0  0  0  0
  -15.4865   -0.5281   25.5515 C   0  0  0  0  0  0  0  0  0  0  0  0
  -15.6309   -1.0189   24.5562 C   0  0  0  0  0  0  0  0  0  0  0  0
  -16.8963    1.1896   31.0121 C   0  0  0  0  0  0  0  0  0  0  0  0
  -14.7422   -1.0909   23.4177 C   0  0  0  0  0  0  0  0  0  0  0  0
  -13.5562   -0.4587   23.6090 C   0  0  0  0  0  0  0  0  0  0  0  0
  -13.1551    0.1209   24.7439 C   0  0  0  0  0  0  0  0  0  0  0  0
  3  6  1  0
  8 10  1  0
 11 18  1  0
 17 24  1  0
 24 25  1  0
 24 26  1  0
 25 27  1  0
 26 28  2  3
 28 29  1  0
 27 30  2  0
 29 31  1  0
 31 32  1  0
 32 33  2  0
 18 19  2  0
 19 20  1  0
 20 21  2  0
 21 22  1  0
 22 23  2  0
 23 18  1  0
  1  2  2  0
  4  5  2  0
  5  7  1  0
  7  3  2  0
  3  1  1  0
 10 13  2  0
 13 15  1  0
 15 17  2  0
 17 16  1  0
 16 14  2  0
 14 10  1  0
  2  4  1  0
  4  8  1  0
  8  9  2  0
  9 11  1  0
 11 12  2  0
 12  2  1  0
M  END
$$$$
