No_2789-complexes_sdf/6BKW-FPZ/2024-09-17-14-21-01/
     RDKit          3D

 16 17  0  0  0  0  0  0  0  0999 V2000
   -7.7129    4.2099   27.0854 C   0  0  0  0  0  0  0  0  0  0  0  0
   -7.7814    5.1722   27.8972 C   0  0  0  0  0  0  0  0  0  0  0  0
   -8.8255    3.2789   27.1191 C   0  0  0  0  0  0  0  0  0  0  0  0
   -8.7530    2.0643   26.3119 C   0  0  0  0  0  0  0  0  0  0  0  0
   -7.6193    1.3092   26.4290 C   0  0  0  0  0  0  0  0  0  0  0  0
   -7.5545    0.0972   25.6919 C   0  0  0  0  0  0  0  0  0  0  0  0
   -9.9829    3.6717   27.8130 C   0  0  0  0  0  0  0  0  0  0  0  0
  -10.0391    4.8825   28.5802 C   0  0  0  0  0  0  0  0  0  0  0  0
   -8.9186    5.7067   28.5614 C   0  0  0  0  0  0  0  0  0  0  0  0
   -8.4606   -0.1230   24.6938 C   0  0  0  0  0  0  0  0  0  0  0  0
   -9.6028    1.8472   25.2725 C   0  0  0  0  0  0  0  0  0  0  0  0
  -10.6446    2.8736   25.0102 C   0  0  0  0  0  0  0  0  0  0  0  0
   -9.4920    0.8248   24.4074 C   0  0  0  0  0  0  0  0  0  0  0  0
  -11.3443    3.3078   25.9371 F   0  0  0  0  0  0  0  0  0  0  0  0
  -11.4639    2.5304   23.9185 F   0  0  0  0  0  0  0  0  0  0  0  0
   -9.8836    4.0041   24.4373 F   0  0  0  0  0  0  0  0  0  0  0  0
  3  4  1  0
 11 12  1  0
 12 14  1  0
 12 15  1  0
 12 16  1  0
  4  5  2  0
  5  6  1  0
  6 10  2  0
 10 13  1  0
 13 11  2  0
 11  4  1  0
  1  2  2  0
  2  9  1  0
  9  8  2  0
  8  7  1  0
  7  3  2  0
  3  1  1  0
M  END
$$$$
