No_2006-complexes_sdf/6BKW-FPZ/2024-09-17-14-21-01/
     RDKit          3D

 36 40  0  0  0  0  0  0  0  0999 V2000
   -7.9040    3.9820   27.1177 C   0  0  0  0  0  0  0  0  0  0  0  0
   -7.8663    4.8694   27.9238 C   0  0  0  0  0  0  0  0  0  0  0  0
   -9.0501    3.8017   26.2617 C   0  0  0  0  0  0  0  0  0  0  0  0
   -9.1826    2.7026   25.3575 C   0  0  0  0  0  0  0  0  0  0  0  0
   -8.6940    6.0131   27.8614 C   0  0  0  0  0  0  0  0  0  0  0  0
   -9.9755    4.8547   26.2361 C   0  0  0  0  0  0  0  0  0  0  0  0
   -9.7463    5.9398   27.0364 C   0  0  0  0  0  0  0  0  0  0  0  0
   -8.6982    1.5568   25.7278 N   0  0  0  0  0  0  0  0  0  0  0  0
   -8.5665    0.5033   24.9091 C   0  0  0  0  0  0  0  0  0  0  0  0
   -9.4697    2.9585   24.1570 O   0  0  0  0  0  0  0  0  0  0  0  0
   -7.5882   -0.4118   25.1923 C   0  0  0  0  0  0  0  0  0  0  0  0
   -6.9457   -0.3445   26.4312 C   0  0  0  0  0  0  0  0  0  0  0  0
   -5.8898   -1.1169   26.8621 C   0  0  0  0  0  0  0  0  0  0  0  0
   -5.2535   -0.9552   28.1321 C   0  0  0  0  0  0  0  0  0  0  0  0
   -4.3365   -0.3194   28.4821 C   0  0  0  0  0  0  0  0  0  0  0  0
   -3.9178   -0.0857   29.9072 C   0  0  0  0  0  0  0  0  0  0  0  0
   -4.5573   -0.6918   30.9001 C   0  0  0  0  0  0  0  0  0  0  0  0
   -5.6601   -1.4875   30.5159 C   0  0  0  0  0  0  0  0  0  0  0  0
   -6.0866   -1.5712   29.2438 C   0  0  0  0  0  0  0  0  0  0  0  0
   -3.5822    0.4194   27.5840 F   0  0  0  0  0  0  0  0  0  0  0  0
   -5.1826   -1.8943   25.9833 C   0  0  0  0  0  0  0  0  0  0  0  0
   -5.7110   -2.0670   24.6781 C   0  0  0  0  0  0  0  0  0  0  0  0
   -6.8515   -1.2429   24.2875 C   0  0  0  0  0  0  0  0  0  0  0  0
   -4.2095   -0.7172   32.3020 C   0  0  0  0  0  0  0  0  0  0  0  0
   -5.0433   -0.9204   33.2754 N   0  0  0  0  0  0  0  0  0  0  0  0
   -4.7370   -1.1943   34.5535 C   0  0  0  0  0  0  0  0  0  0  0  0
   -3.4073   -0.9336   34.9572 C   0  0  0  0  0  0  0  0  0  0  0  0
   -2.8019   -0.5525   32.6558 C   0  0  0  0  0  0  0  0  0  0  0  0
   -2.3955   -0.6487   33.9830 C   0  0  0  0  0  0  0  0  0  0  0  0
   -2.9949   -1.0063   36.3946 C   0  0  0  0  0  0  0  0  0  0  0  0
   -3.2333   -0.1523   37.0621 O   0  0  0  0  0  0  0  0  0  0  0  0
   -2.3326   -2.0418   36.7445 O   0  0  0  0  0  0  0  0  0  0  0  0
   -7.3684   -1.3299   22.8964 C   0  0  0  0  0  0  0  0  0  0  0  0
   -8.5274   -0.7452   22.6226 C   0  0  0  0  0  0  0  0  0  0  0  0
   -9.0454    0.3958   23.5306 C   0  0  0  0  0  0  0  0  0  0  0  0
   -7.0189    2.9308   27.2375 O   0  0  0  0  0  0  0  0  0  0  0  0
  3  4  1  0
  4  8  1  0
  8  9  1  0
  4 10  2  0
 13 14  1  0
 15 20  1  0
 17 24  1  0
 27 30  1  0
 30 31  2  0
 30 32  1  0
  1 36  1  0
 24 25  2  0
 25 26  1  0
 26 27  2  0
 27 29  1  0
 29 28  2  0
 28 24  1  0
 14 15  2  0
 15 16  1  0
 16 17  2  0
 17 18  1  0
 18 19  2  0
 19 14  1  0
  9 11  1  0
 23 33  1  0
 33 34  2  0
 34 35  1  0
 35  9  2  0
 11 12  2  0
 12 13  1  0
 13 21  2  0
 21 22  1  0
 22 23  2  0
 23 11  1  0
  1  2  2  0
  2  5  1  0
  5  7  2  0
  7  6  1  0
  6  3  2  0
  3  1  1  0
M  END
$$$$
