No_2534-complexes_sdf/6BKW-FPZ/2024-09-17-14-21-01/
     RDKit          3D

 21 22  0  0  0  0  0  0  0  0999 V2000
   -7.9040    3.9820   27.1177 C   0  0  0  0  0  0  0  0  0  0  0  0
   -8.2057    2.8231   26.8733 C   0  0  0  0  0  0  0  0  0  0  0  0
   -9.2962    2.4021   26.1155 C   0  0  0  0  0  0  0  0  0  0  0  0
   -8.7358    5.0662   26.5917 C   0  0  0  0  0  0  0  0  0  0  0  0
   -9.7618    4.7023   25.7546 C   0  0  0  0  0  0  0  0  0  0  0  0
  -10.0066    3.4105   25.4922 C   0  0  0  0  0  0  0  0  0  0  0  0
   -8.3936    6.4769   26.8843 C   0  0  0  0  0  0  0  0  0  0  0  0
   -8.0307    6.8601   28.0802 N   0  0  0  0  0  0  0  0  0  0  0  0
   -8.6536    7.3503   25.9875 O   0  0  0  0  0  0  0  0  0  0  0  0
   -7.3517    1.6703   27.5004 C   0  0  0  0  0  0  0  0  0  0  0  0
   -7.7043    0.3356   27.3716 C   0  0  0  0  0  0  0  0  0  0  0  0
   -6.7719   -0.6097   27.7080 C   0  0  0  0  0  0  0  0  0  0  0  0
   -5.5235   -0.2205   28.2756 C   0  0  0  0  0  0  0  0  0  0  0  0
   -5.1665    1.1424   28.2813 C   0  0  0  0  0  0  0  0  0  0  0  0
   -5.9723    2.0503   27.8272 C   0  0  0  0  0  0  0  0  0  0  0  0
   -4.4302   -1.1149   28.7543 C   0  0  0  0  0  0  0  0  0  0  0  0
   -3.4691   -0.9108   28.9454 O   0  0  0  0  0  0  0  0  0  0  0  0
   -4.9736   -2.3721   29.0105 O   0  0  0  0  0  0  0  0  0  0  0  0
  -11.1133    3.0807   24.5762 C   0  0  0  0  0  0  0  0  0  0  0  0
  -12.2953    2.7602   24.9915 C   0  0  0  0  0  0  0  0  0  0  0  0
  -13.3434    2.4367   24.0775 C   0  0  0  0  0  0  0  0  0  0  0  0
  4  7  1  0
  7  8  1  0
  7  9  2  0
  2 10  1  0
 13 16  1  0
 16 17  2  0
 16 18  1  0
  6 19  1  0
 19 20  2  3
 20 21  1  0
  1  2  2  0
  2  3  1  0
  3  6  2  0
  6  5  1  0
  5  4  2  0
  4  1  1  0
 10 11  2  0
 11 12  1  0
 12 13  2  0
 13 14  1  0
 14 15  2  0
 15 10  1  0
M  END
$$$$
