No_2620-complexes_sdf/6BKW-FPZ/2024-09-17-14-21-01/
     RDKit          3D

 28 31  0  0  0  0  0  0  0  0999 V2000
   -7.9040    3.9820   27.1177 C   0  0  0  0  0  0  0  0  0  0  0  0
   -8.2057    2.8231   26.8733 C   0  0  0  0  0  0  0  0  0  0  0  0
   -9.3234    2.2125   27.0599 C   0  0  0  0  0  0  0  0  0  0  0  0
   -9.0146    4.9428   27.2420 C   0  0  0  0  0  0  0  0  0  0  0  0
  -10.2851    4.4096   27.2820 C   0  0  0  0  0  0  0  0  0  0  0  0
  -10.4907    3.0453   27.2378 C   0  0  0  0  0  0  0  0  0  0  0  0
   -8.7446    6.3752   27.3815 C   0  0  0  0  0  0  0  0  0  0  0  0
   -7.8709    6.9835   26.3781 C   0  0  0  0  0  0  0  0  0  0  0  0
   -9.5492    0.7285   26.9331 C   0  0  0  0  0  0  0  0  0  0  0  0
  -10.4579    0.1453   27.6562 C   0  0  0  0  0  0  0  0  0  0  0  0
  -10.6149   -1.2789   27.6591 C   0  0  0  0  0  0  0  0  0  0  0  0
   -9.6713   -1.9944   26.9827 C   0  0  0  0  0  0  0  0  0  0  0  0
   -8.6745   -0.0764   26.3930 C   0  0  0  0  0  0  0  0  0  0  0  0
   -8.6812   -1.3831   26.3442 C   0  0  0  0  0  0  0  0  0  0  0  0
   -7.6709   -2.1696   25.5738 C   0  0  0  0  0  0  0  0  0  0  0  0
   -7.0890   -1.6345   24.5759 C   0  0  0  0  0  0  0  0  0  0  0  0
   -6.0579   -2.2588   23.8328 C   0  0  0  0  0  0  0  0  0  0  0  0
   -5.6412   -3.4991   24.1916 C   0  0  0  0  0  0  0  0  0  0  0  0
   -6.2635   -4.0625   25.2669 C   0  0  0  0  0  0  0  0  0  0  0  0
   -7.2077   -3.4080   26.0445 C   0  0  0  0  0  0  0  0  0  0  0  0
   -5.8267   -5.4080   25.7276 C   0  0  0  0  0  0  0  0  0  0  0  0
   -6.2272   -6.3783   25.3325 O   0  0  0  0  0  0  0  0  0  0  0  0
   -4.8356   -5.3314   26.7737 N   0  0  0  0  0  0  0  0  0  0  0  0
   -4.3410   -6.5617   27.3302 C   0  0  0  0  0  0  0  0  0  0  0  0
   -3.4981   -6.3239   28.1347 C   0  0  0  0  0  0  0  0  0  0  0  0
   -2.9813   -5.0782   28.5701 C   0  0  0  0  0  0  0  0  0  0  0  0
   -3.5281   -3.9089   27.9545 C   0  0  0  0  0  0  0  0  0  0  0  0
   -4.4641   -4.0823   27.0503 C   0  0  0  0  0  0  0  0  0  0  0  0
  4  7  1  0
  7  8  1  0
  3  9  1  0
 14 15  1  0
 19 21  1  0
 21 22  2  0
 21 23  1  0
 23 24  1  0
 25 26  1  0
 23 28  1  0
 27 28  1  0
 24 25  1  0
 26 27  1  0
 15 16  2  0
 16 17  1  0
 17 18  2  0
 18 19  1  0
 19 20  2  0
 20 15  1  0
  1  2  2  0
  2  3  1  0
  3  6  2  0
  6  5  1  0
  5  4  2  0
  4  1  1  0
  9 10  2  0
 10 11  1  0
 11 12  2  0
 12 14  1  0
 14 13  2  0
 13  9  1  0
M  END
$$$$
