No_2053-complexes_sdf/6BKW-FPZ/2024-09-17-14-21-01/
     RDKit          3D

 21 23  0  0  0  0  0  0  0  0999 V2000
   -7.2496    3.8871   27.4508 C   0  0  0  0  0  0  0  0  0  0  0  0
   -8.5096    4.0291   27.2770 C   0  0  0  0  0  0  0  0  0  0  0  0
   -9.2677    5.1714   27.5773 C   0  0  0  0  0  0  0  0  0  0  0  0
   -9.2765    2.8248   26.8371 C   0  0  0  0  0  0  0  0  0  0  0  0
   -8.6731    1.7312   26.5464 C   0  0  0  0  0  0  0  0  0  0  0  0
   -6.5216    2.6580   27.4010 C   0  0  0  0  0  0  0  0  0  0  0  0
   -7.2494    1.5864   26.9125 C   0  0  0  0  0  0  0  0  0  0  0  0
   -8.5606    6.4190   27.5911 C   0  0  0  0  0  0  0  0  0  0  0  0
  -10.5849    5.2455   26.8016 C   0  0  0  0  0  0  0  0  0  0  0  0
   -6.5467    0.3190   26.6843 C   0  0  0  0  0  0  0  0  0  0  0  0
   -6.5516   -0.0432   25.5798 F   0  0  0  0  0  0  0  0  0  0  0  0
   -7.2591   -0.6307   27.4877 F   0  0  0  0  0  0  0  0  0  0  0  0
   -5.3557    0.2710   27.2854 F   0  0  0  0  0  0  0  0  0  0  0  0
   -7.1781    6.3792   27.2174 C   0  0  0  0  0  0  0  0  0  0  0  0
   -6.5208    5.1262   27.5677 N   0  0  0  0  0  0  0  0  0  0  0  0
  -10.5034    2.6759   27.5898 C   0  0  0  0  0  0  0  0  0  0  0  0
  -11.3554    3.9133   27.4583 C   0  0  2  0  0  0  0  0  0  0  0  0
  -12.6357    3.6818   26.6515 C   0  0  0  0  0  0  0  0  0  0  0  0
  -13.7264    4.2032   27.2565 C   0  0  0  0  0  0  0  0  0  0  0  0
  -14.9563    4.2806   26.5533 C   0  0  0  0  0  0  0  0  0  0  0  0
  -16.0801    4.8528   27.1208 C   0  0  0  0  0  0  0  0  0  0  0  0
  3  9  1  0
  7 10  1  0
 10 11  1  0
 10 12  1  0
 10 13  1  0
  4 16  1  0
  9 17  1  0
 16 17  1  0
 17 18  1  6
 18 19  1  0
 19 20  2  3
 20 21  1  0
  2  4  1  0
  4  5  2  0
  5  7  1  0
  7  6  2  0
  6  1  1  0
  1  2  2  0
  2  3  1  0
  3  8  2  0
  8 14  1  0
 14 15  2  0
 15  1  1  0
M  END
$$$$
