No_2431-complexes_sdf/6BKW-FPZ/2024-09-17-14-21-01/
     RDKit          3D

 14 15  0  0  0  0  0  0  0  0999 V2000
   -7.2496    3.8871   27.4508 C   0  0  0  0  0  0  0  0  0  0  0  0
   -7.6161    2.7143   27.1523 C   0  0  0  0  0  0  0  0  0  0  0  0
   -8.6212    2.2239   26.4073 C   0  0  0  0  0  0  0  0  0  0  0  0
   -8.1953    4.9310   27.1292 C   0  0  0  0  0  0  0  0  0  0  0  0
   -9.3500    4.6042   26.4181 C   0  0  0  0  0  0  0  0  0  0  0  0
   -9.5766    3.2803   26.0949 C   0  0  0  0  0  0  0  0  0  0  0  0
   -7.9171    6.3341   27.5121 C   0  0  0  0  0  0  0  0  0  0  0  0
   -8.7818    7.3671   26.9828 C   0  0  0  0  0  0  0  0  0  0  0  0
   -6.6118    1.5389   27.5821 C   0  0  0  0  0  0  0  0  0  0  0  0
   -5.3375    1.8655   28.1171 C   0  0  0  0  0  0  0  0  0  0  0  0
   -4.4314    0.8523   28.4931 C   0  0  0  0  0  0  0  0  0  0  0  0
   -4.8348   -0.4638   28.5176 C   0  0  0  0  0  0  0  0  0  0  0  0
   -6.8122    0.1648   27.7516 C   0  0  0  0  0  0  0  0  0  0  0  0
   -6.0738   -0.7651   28.1489 C   0  0  0  0  0  0  0  0  0  0  0  0
  4  7  1  0
  7  8  2  0
  2  9  1  0
  1  2  2  0
  2  3  1  0
  3  6  2  0
  6  5  1  0
  5  4  2  0
  4  1  1  0
  9 10  2  0
 10 11  1  0
 11 12  2  0
 12 14  1  0
 14 13  2  0
 13  9  1  0
M  END
$$$$
