No_2678-complexes_sdf/6BKW-FPZ/2024-09-17-14-21-01/
     RDKit          3D

 40 43  0  0  0  0  0  0  0  0999 V2000
   -7.7129    4.2099   27.0854 C   0  0  0  0  0  0  0  0  0  0  0  0
   -8.9133    4.4736   27.0998 C   0  0  0  0  0  0  0  0  0  0  0  0
   -9.7135    3.9633   26.0300 C   0  0  0  0  0  0  0  0  0  0  0  0
   -6.8655    4.8824   28.1822 C   0  0  0  0  0  0  0  0  0  0  0  0
  -10.8856    4.5824   25.6430 C   0  0  0  0  0  0  0  0  0  0  0  0
   -5.6986    4.5267   28.3589 N   0  0  0  0  0  0  0  0  0  0  0  0
  -11.6636    4.9990   26.7578 C   0  0  0  0  0  0  0  0  0  0  0  0
  -11.0748    5.2545   28.0014 C   0  0  0  0  0  0  0  0  0  0  0  0
   -9.6774    5.0235   28.1717 C   0  0  0  0  0  0  0  0  0  0  0  0
   -7.3933    5.8505   28.8054 O   0  0  0  0  0  0  0  0  0  0  0  0
  -11.5081    4.1482   24.3761 C   0  0  0  0  0  0  0  0  0  0  0  0
  -12.7277    3.8386   24.1963 C   0  0  0  0  0  0  0  0  0  0  0  0
  -13.2809    3.6366   22.8962 C   0  0  0  0  0  0  0  0  0  0  0  0
  -12.4011    3.6923   21.7959 C   0  0  0  0  0  0  0  0  0  0  0  0
  -11.0322    3.9798   21.9639 C   0  0  0  0  0  0  0  0  0  0  0  0
  -10.5305    4.2873   23.2496 C   0  0  0  0  0  0  0  0  0  0  0  0
  -10.1769    4.0507   20.9519 O   0  0  0  0  0  0  0  0  0  0  0  0
   -9.7913    2.8665   20.4248 C   0  0  0  0  0  0  0  0  0  0  0  0
  -14.6609    3.3596   22.6980 C   0  0  0  0  0  0  0  0  0  0  0  0
  -15.4512    3.5256   23.5905 C   0  0  0  0  0  0  0  0  0  0  0  0
  -14.9557    3.7191   24.9910 C   0  0  0  0  0  0  0  0  0  0  0  0
  -13.7152    3.9318   25.2626 C   0  0  0  0  0  0  0  0  0  0  0  0
  -16.0418    3.7759   26.0918 C   0  0  0  0  0  0  0  0  0  0  0  0
  -15.7290    3.7405   27.1574 O   0  0  0  0  0  0  0  0  0  0  0  0
  -17.2557    3.8481   25.7191 O   0  0  0  0  0  0  0  0  0  0  0  0
  -15.0691    3.1419   21.3296 C   0  0  0  0  0  0  0  0  0  0  0  0
  -16.0569    2.7355   21.1764 O   0  0  0  0  0  0  0  0  0  0  0  0
  -14.4481    3.7114   20.3224 O   0  0  0  0  0  0  0  0  0  0  0  0
  -17.8731    4.5101   25.2896 C   0  0  0  0  0  0  0  0  0  0  0  0
  -18.0957    5.7157   25.8596 C   0  0  0  0  0  0  0  0  0  0  0  0
  -17.9956    5.8518   27.2152 C   0  0  1  0  0  0  0  0  0  0  0  0
  -17.6545    6.5433   27.8665 C   0  0  0  0  0  0  0  0  0  0  0  0
  -16.7371    6.3424   29.0559 C   0  0  0  0  0  0  0  0  0  0  0  0
  -15.6539    7.1855   29.4622 C   0  0  0  0  0  0  0  0  0  0  0  0
  -15.6905    8.5449   29.0890 C   0  0  0  0  0  0  0  0  0  0  0  0
  -16.6009    8.9119   28.0280 C   0  0  0  0  0  0  0  0  0  0  0  0
  -17.3881    8.0343   27.5260 C   0  0  0  0  0  0  0  0  0  0  0  0
  -18.9820    4.9031   27.8699 C   0  0  0  0  0  0  0  0  0  0  0  0
  -18.5862    4.2549   28.8889 C   0  0  0  0  0  0  0  0  0  0  0  0
  -19.5260    3.1842   29.4053 C   0  0  0  0  0  0  0  0  0  0  0  0
  1  2  1  0
  1  4  1  0
  4  6  1  0
  4 10  2  0
  5 11  1  0
 15 17  1  0
 17 18  1  0
 21 23  1  0
 23 24  2  0
 23 25  1  0
 19 26  1  0
 26 27  2  0
 26 28  1  0
 25 29  1  0
 29 30  2  3
 30 31  1  0
 31 38  1  0
 38 39  2  3
 39 40  1  0
 31 32  1  6
 11 12  2  0
 13 14  2  0
 14 15  1  0
 15 16  2  0
 16 11  1  0
  2  3  2  0
  3  5  1  0
  5  7  2  0
  7  8  1  0
  8  9  2  0
  9  2  1  0
 32 33  2  0
 33 34  1  0
 34 35  2  0
 35 36  1  0
 36 37  2  0
 37 32  1  0
 12 13  1  0
 13 19  1  0
 19 20  2  0
 20 21  1  0
 21 22  2  0
 22 12  1  0
M  END
$$$$
