No_2303-complexes_sdf/6BKW-FPZ/2024-09-17-14-21-01/
     RDKit          3D

 13 14  0  0  0  0  0  0  0  0999 V2000
   -7.7129    4.2099   27.0854 C   0  0  0  0  0  0  0  0  0  0  0  0
   -7.7814    5.1722   27.8972 C   0  0  0  0  0  0  0  0  0  0  0  0
   -8.7889    3.2468   27.2220 C   0  0  0  0  0  0  0  0  0  0  0  0
   -8.7402    2.0341   26.3990 C   0  0  0  0  0  0  0  0  0  0  0  0
   -8.9680    5.6562   28.5183 C   0  0  0  0  0  0  0  0  0  0  0  0
   -9.9491    3.5176   27.8853 C   0  0  0  0  0  0  0  0  0  0  0  0
  -10.0212    4.7882   28.5980 C   0  0  0  0  0  0  0  0  0  0  0  0
   -8.0521    0.9159   26.8673 C   0  0  0  0  0  0  0  0  0  0  0  0
   -7.9630   -0.2632   26.1840 C   0  0  0  0  0  0  0  0  0  0  0  0
   -9.4104    1.9225   25.2248 C   0  0  0  0  0  0  0  0  0  0  0  0
   -9.3453    0.8116   24.4163 C   0  0  0  0  0  0  0  0  0  0  0  0
   -8.6206   -0.2754   24.9226 C   0  0  0  0  0  0  0  0  0  0  0  0
  -10.9539    2.7513   27.9502 F   0  0  0  0  0  0  0  0  0  0  0  0
  3  4  1  0
  6 13  1  0
  4  8  2  0
  8  9  1  0
  9 12  2  0
 12 11  1  0
 11 10  2  0
 10  4  1  0
  1  2  2  0
  2  5  1  0
  5  7  2  0
  7  6  1  0
  6  3  2  0
  3  1  1  0
M  END
$$$$
