No_2469-complexes_sdf/6BKW-FPZ/2024-09-17-14-21-01/
     RDKit          3D

 19 21  0  0  0  0  0  0  0  0999 V2000
   -7.2496    3.8871   27.4508 C   0  0  0  0  0  0  0  0  0  0  0  0
   -7.9379    4.9063   27.8518 C   0  0  0  0  0  0  0  0  0  0  0  0
   -9.3460    4.8223   27.8695 C   0  0  0  0  0  0  0  0  0  0  0  0
   -7.8628    2.6163   27.1065 C   0  0  0  0  0  0  0  0  0  0  0  0
   -7.1773    1.4959   26.7593 C   0  0  0  0  0  0  0  0  0  0  0  0
   -9.2781    2.5892   27.1482 C   0  0  1  0  0  0  0  0  0  0  0  0
   -9.9152    1.3696   26.8084 C   0  0  0  0  0  0  0  0  0  0  0  0
  -10.0185    3.6972   27.5880 C   0  0  0  0  0  0  0  0  0  0  0  0
  -11.0793    1.2205   26.8242 C   0  0  0  0  0  0  0  0  0  0  0  0
   -9.0285    0.2371   26.4963 C   0  0  0  0  0  0  0  0  0  0  0  0
   -7.6671    0.3473   26.4471 C   0  0  0  0  0  0  0  0  0  0  0  0
  -11.4145    3.5992   27.7298 C   0  0  0  0  0  0  0  0  0  0  0  0
  -12.0394    2.3572   27.4252 C   0  0  0  0  0  0  0  0  0  0  0  0
   -7.3109    6.1141   28.1687 N   0  0  0  0  0  0  0  0  0  0  0  0
   -6.8430   -0.8053   26.0927 C   0  0  0  0  0  0  0  0  0  0  0  0
   -7.0554   -1.7684   25.8069 Cl  0  0  0  0  0  0  0  0  0  0  0  0
   -5.3259   -0.2995   26.2542 C   0  0  0  0  0  0  0  0  0  0  0  0
   -5.0744    0.6469   26.8938 F   0  0  0  0  0  0  0  0  0  0  0  0
   -4.6332   -1.4225   26.7673 F   0  0  0  0  0  0  0  0  0  0  0  0
  1  2  2  0
  2  3  1  0
  1  4  1  0
  4  5  1  0
  6  4  1  1
  6  7  1  0
  3  8  1  0
  6  8  1  0
  7  9  2  0
  7 10  1  0
  5 11  1  0
 10 11  2  0
  8 12  1  0
  9 13  1  0
 12 13  2  0
  2 14  1  0
 11 15  1  0
 15 16  1  0
 15 17  1  0
 17 18  1  0
 17 19  1  0
M  END
$$$$
