No_216-complexes_sdf/6BKW-FPZ/2024-09-17-14-21-01/
     RDKit          3D

 11 11  0  0  0  0  0  0  0  0999 V2000
   -7.2496    3.8871   27.4508 C   0  0  0  0  0  0  0  0  0  0  0  0
   -7.6161    2.7143   27.1523 C   0  0  0  0  0  0  0  0  0  0  0  0
   -8.6212    2.2239   26.4074 C   0  0  0  0  0  0  0  0  0  0  0  0
   -8.2540    4.9237   27.1711 C   0  0  0  0  0  0  0  0  0  0  0  0
   -9.3709    4.6018   26.4511 C   0  0  0  0  0  0  0  0  0  0  0  0
  -10.3317    5.6675   26.1658 C   0  0  0  0  0  0  0  0  0  0  0  0
   -9.6215    3.2976   26.1086 C   0  0  0  0  0  0  0  0  0  0  0  0
   -7.8113    6.5710   27.6939 P   0  0  0  0  0  0  0  0  0  0  0  0
   -7.1488    6.6141   28.6616 O   0  0  0  0  0  0  0  0  0  0  0  0
   -8.5303    7.4886   26.9428 O   0  0  0  0  0  0  0  0  0  0  0  0
   -6.7964    6.9004   26.9088 O   0  0  0  0  0  0  0  0  0  0  0  0
  5  6  1  0
  4  8  1  0
  8  9  2  0
  8 10  1  0
  8 11  1  0
  1  2  2  0
  2  3  1  0
  3  7  2  0
  7  5  1  0
  5  4  2  0
  4  1  1  0
M  END
$$$$
