No_2740-complexes_sdf/6BKW-FPZ/2024-09-17-14-21-01/
     RDKit          3D

  6  6  0  0  0  0  0  0  0  0999 V2000
   -7.2496    3.8871   27.4508 C   0  0  0  0  0  0  0  0  0  0  0  0
   -7.9379    4.9063   27.8518 C   0  0  0  0  0  0  0  0  0  0  0  0
   -9.3460    4.8223   27.8695 C   0  0  0  0  0  0  0  0  0  0  0  0
   -7.8628    2.6163   27.1065 C   0  0  0  0  0  0  0  0  0  0  0  0
   -9.2787    2.5744   27.1970 C   0  0  0  0  0  0  0  0  0  0  0  0
  -10.0108    3.6770   27.6340 C   0  0  0  0  0  0  0  0  0  0  0  0
  1  2  2  0
  2  3  1  0
  3  6  2  0
  6  5  1  0
  5  4  2  0
  4  1  1  0
M  END
$$$$
