No_2763-complexes_sdf/6BKW-FPZ/2024-09-17-14-21-01/
     RDKit          3D

 39 43  0  0  0  0  0  0  0  0999 V2000
   -7.9040    3.9820   27.1177 C   0  0  0  0  0  0  0  0  0  0  0  0
   -9.0711    4.3164   27.0630 C   0  0  0  0  0  0  0  0  0  0  0  0
  -10.0395    3.8218   27.1938 C   0  0  0  0  0  0  0  0  0  0  0  0
   -7.6424    2.5858   27.3610 C   0  0  0  0  0  0  0  0  0  0  0  0
   -8.7646    1.7754   27.4263 C   0  0  0  0  0  0  0  0  0  0  0  0
   -9.9966    2.3406   27.3957 C   0  0  0  0  0  0  0  0  0  0  0  0
   -6.2872    2.0438   27.3877 C   0  0  0  0  0  0  0  0  0  0  0  0
   -5.8745    1.3041   28.3853 C   0  0  0  0  0  0  0  0  0  0  0  0
   -4.7996    0.4870   28.1310 C   0  0  0  0  0  0  0  0  0  0  0  0
   -3.9051    0.7925   27.1062 C   0  0  0  0  0  0  0  0  0  0  0  0
   -4.1663    1.8385   26.3974 N   0  0  0  0  0  0  0  0  0  0  0  0
   -5.3154    2.2811   26.3935 C   0  0  0  0  0  0  0  0  0  0  0  0
   -9.1763    5.9817   26.8248 C   0  0  0  0  0  0  0  0  0  0  0  0
   -9.5964    6.5283   27.8074 F   0  0  0  0  0  0  0  0  0  0  0  0
   -7.8896    6.5161   26.5645 F   0  0  0  0  0  0  0  0  0  0  0  0
   -9.7676    6.1502   25.6508 F   0  0  0  0  0  0  0  0  0  0  0  0
   -2.6165    0.2143   27.1408 N   0  0  0  0  0  0  0  0  0  0  0  0
   -2.1580   -0.7478   27.9383 C   0  0  0  0  0  0  0  0  0  0  0  0
   -1.0561   -1.4305   27.7340 C   0  0  0  0  0  0  0  0  0  0  0  0
   -2.8784   -0.9633   29.1912 C   0  0  0  0  0  0  0  0  0  0  0  0
   -4.2354   -0.3697   29.2684 C   0  0  0  0  0  0  0  0  0  0  0  0
  -11.2404    1.6033   27.6896 C   0  0  0  0  0  0  0  0  0  0  0  0
  -11.1294    0.3176   27.9052 C   0  0  0  0  0  0  0  0  0  0  0  0
  -12.2945   -0.4923   28.2795 C   0  0  0  0  0  0  0  0  0  0  0  0
  -13.4596    0.2073   28.4828 C   0  0  0  0  0  0  0  0  0  0  0  0
  -13.5482    1.5538   28.3357 C   0  0  0  0  0  0  0  0  0  0  0  0
  -12.4381    2.3113   28.0058 C   0  0  0  0  0  0  0  0  0  0  0  0
   -0.0007   -1.2479   28.4899 N   0  0  0  0  0  0  0  0  0  0  0  0
   -4.8888   -0.6708   30.3294 F   0  0  0  0  0  0  0  0  0  0  0  0
    0.5986   -2.1726   29.3238 C   0  0  0  0  0  0  0  0  0  0  0  0
    1.8483   -1.7957   29.8520 C   0  0  0  0  0  0  0  0  0  0  0  0
    0.0000   -3.3384   29.5793 C   0  0  0  0  0  0  0  0  0  0  0  0
    2.3982   -2.4857   30.9819 C   0  0  0  0  0  0  0  0  0  0  0  0
    0.5930   -4.1721   30.6305 C   0  0  0  0  0  0  0  0  0  0  0  0
    1.7992   -3.7438   31.2784 C   0  0  0  0  0  0  0  0  0  0  0  0
   -5.3676    3.1060   27.0954 O   0  0  0  0  0  0  0  0  0  0  0  0
   -5.1298    4.0592   27.9179 C   0  0  0  0  0  0  0  0  0  0  0  0
   -1.0331   -2.4308   26.9464 O   0  0  0  0  0  0  0  0  0  0  0  0
  -14.5554   -0.5635   28.7991 F   0  0  0  0  0  0  0  0  0  0  0  0
  4  7  1  0
  2 13  1  0
 13 14  1  0
 13 15  1  0
 13 16  1  0
 18 19  1  0
  6 22  1  0
 19 28  1  0
 21 29  1  0
 28 30  1  0
 12 36  1  0
 36 37  1  0
 19 38  2  0
 25 39  1  0
 10 17  2  0
 17 18  1  0
 18 20  2  0
 20 21  1  0
 21  9  2  0
  1  2  2  0
  2  3  1  0
  3  6  2  0
  6  5  1  0
  5  4  2  0
  4  1  1  0
 22 23  2  0
 23 24  1  0
 24 25  2  0
 25 26  1  0
 26 27  2  0
 27 22  1  0
  7  8  2  0
  8  9  1  0
  9 10  1  0
 10 11  1  0
 11 12  2  0
 12  7  1  0
 30 31  2  0
 31 33  1  0
 33 35  2  0
 35 34  1  0
 34 32  2  0
 32 30  1  0
M  END
$$$$
