No_2384-complexes_sdf/6BKW-FPZ/2024-09-17-14-21-01/
     RDKit          3D

 29 32  0  0  0  0  0  0  0  0999 V2000
   -7.9040    3.9820   27.1177 C   0  0  0  0  0  0  0  0  0  0  0  0
   -8.2057    2.8231   26.8733 C   0  0  0  0  0  0  0  0  0  0  0  0
   -8.7695    5.0740   26.7916 C   0  0  1  0  0  0  0  0  0  0  0  0
   -8.4337    6.4678   27.0913 C   0  0  0  0  0  0  0  0  0  0  0  0
   -7.3775    1.6806   27.3986 C   0  0  0  0  0  0  0  0  0  0  0  0
   -6.0850    2.0823   27.7929 C   0  0  0  0  0  0  0  0  0  0  0  0
   -5.7270    3.4344   27.9605 C   0  0  0  0  0  0  0  0  0  0  0  0
   -6.5927    4.3693   27.6591 C   0  0  0  0  0  0  0  0  0  0  0  0
   -9.8651    4.8441   25.9119 C   0  0  0  0  0  0  0  0  0  0  0  0
   -5.1574    0.9949   28.2355 C   0  0  0  0  0  0  0  0  0  0  0  0
   -3.9407    1.2294   28.7383 C   0  0  0  0  0  0  0  0  0  0  0  0
   -5.5838   -0.3585   28.0109 C   0  0  0  0  0  0  0  0  0  0  0  0
   -4.7323   -1.4043   28.4206 C   0  0  0  0  0  0  0  0  0  0  0  0
   -3.1035    0.2064   29.2043 C   0  0  0  0  0  0  0  0  0  0  0  0
   -3.4793   -1.1108   29.0299 C   0  0  0  0  0  0  0  0  0  0  0  0
   -8.1604    7.6163   27.1138 N   0  0  0  0  0  0  0  0  0  0  0  0
   -9.7383    4.3856   24.6177 C   0  0  0  0  0  0  0  0  0  0  0  0
  -10.8071    4.0847   23.7745 C   0  0  0  0  0  0  0  0  0  0  0  0
  -12.0946    4.0489   24.3096 C   0  0  0  0  0  0  0  0  0  0  0  0
  -12.2463    4.3671   25.7076 C   0  0  0  0  0  0  0  0  0  0  0  0
  -11.1786    4.7646   26.5216 C   0  0  0  0  0  0  0  0  0  0  0  0
  -10.5441    3.7398   22.1652 Cl  0  0  0  0  0  0  0  0  0  0  0  0
  -13.6355    4.4072   26.2445 C   0  0  0  0  0  0  0  0  0  0  0  0
  -14.7336    4.5830   25.5154 C   0  0  0  0  0  0  0  0  0  0  0  0
  -15.7429    4.7001   25.7865 C   0  0  0  0  0  0  0  0  0  0  0  0
  -16.1372    4.6646   27.2496 C   0  0  0  0  0  0  0  0  0  0  0  0
  -15.0960    4.4987   28.1370 C   0  0  0  0  0  0  0  0  0  0  0  0
  -13.8420    4.4189   27.6910 C   0  0  0  0  0  0  0  0  0  0  0  0
  -15.3976    4.4809   29.8389 Cl  0  0  0  0  0  0  0  0  0  0  0  0
  3  4  1  6
  3  9  1  0
  6 10  1  0
  4 16  3  0
 18 22  1  0
 20 23  1  0
 27 29  1  0
  3  1  1  0
 23 24  2  0
 24 25  1  0
 25 26  2  0
 26 27  1  0
 27 28  2  0
 28 23  1  0
  9 17  2  0
 17 18  1  0
 18 19  2  0
 19 20  1  0
 20 21  2  0
 21  9  1  0
  1  2  2  0
  2  5  1  0
  5  6  2  0
  6  7  1  0
  7  8  2  0
  8  1  1  0
 10 11  2  0
 11 14  1  0
 14 15  2  0
 15 13  1  0
 13 12  2  0
 12 10  1  0
M  END
$$$$
