No_2312-complexes_sdf/6BKW-FPZ/2024-09-17-14-21-01/
     RDKit          3D

 17 19  0  0  0  0  0  0  0  0999 V2000
   -7.9040    3.9820   27.1177 C   0  0  0  0  0  0  0  0  0  0  0  0
   -8.2057    2.8231   26.8733 C   0  0  0  0  0  0  0  0  0  0  0  0
   -8.7695    5.0740   26.7916 C   0  0  0  0  0  0  0  0  0  0  0  0
   -9.9618    4.7598   26.1630 C   0  0  0  0  0  0  0  0  0  0  0  0
   -9.4200    2.4524   26.2850 C   0  0  0  0  0  0  0  0  0  0  0  0
  -10.2590    3.4815   25.9250 C   0  0  0  0  0  0  0  0  0  0  0  0
   -8.3840    6.4693   27.0829 C   0  0  0  0  0  0  0  0  0  0  0  0
   -7.7453    6.8270   28.1334 N   0  0  0  0  0  0  0  0  0  0  0  0
   -8.6560    7.4142   26.2144 N   0  0  0  0  0  0  0  0  0  0  0  0
   -7.2776    1.6709   27.2846 C   0  0  0  0  0  0  0  0  0  0  0  0
   -7.5999    0.3223   27.1834 C   0  0  0  0  0  0  0  0  0  0  0  0
   -6.7186   -0.6281   27.6366 C   0  0  0  0  0  0  0  0  0  0  0  0
   -7.0303   -1.9882   27.6912 C   0  0  0  0  0  0  0  0  0  0  0  0
   -8.3516   -2.3165   27.2906 C   0  0  0  0  0  0  0  0  0  0  0  0
   -9.2515   -1.3945   26.8898 C   0  0  0  0  0  0  0  0  0  0  0  0
   -8.9277   -0.0693   26.9140 C   0  0  0  0  0  0  0  0  0  0  0  0
   -9.8178    1.0265   26.2357 C   0  0  0  0  0  0  0  0  0  0  0  0
  3  7  1  0
  7  8  1  0
  7  9  2  0
 11 12  1  0
 12 13  2  0
 13 14  1  0
 14 15  2  0
 15 16  1  0
  5 17  1  0
 17 16  2  0
 16 11  1  0
 11 10  2  0
 10  2  1  0
  1  2  2  0
  2  5  1  0
  5  6  2  0
  6  4  1  0
  4  3  2  0
  3  1  1  0
M  END
$$$$
