No_2470-complexes_sdf/6BKW-FPZ/2024-09-17-14-21-01/
     RDKit          3D

 20 22  0  0  0  0  0  0  0  0999 V2000
   -7.9040    3.9820   27.1177 C   0  0  0  0  0  0  0  0  0  0  0  0
   -7.8663    4.8694   27.9238 C   0  0  0  0  0  0  0  0  0  0  0  0
   -7.4698    2.6989   27.4277 C   0  0  0  0  0  0  0  0  0  0  0  0
   -7.9683    1.5964   26.8266 C   0  0  0  0  0  0  0  0  0  0  0  0
   -8.9447    1.7923   25.8533 C   0  0  0  0  0  0  0  0  0  0  0  0
   -9.4405    2.9988   25.5757 C   0  0  0  0  0  0  0  0  0  0  0  0
   -8.9424    4.1117   26.2388 C   0  0  0  0  0  0  0  0  0  0  0  0
   -8.3103    6.1970   27.6444 N   0  0  0  0  0  0  0  0  0  0  0  0
   -9.1782    6.4963   26.6776 C   0  0  0  0  0  0  0  0  0  0  0  0
   -9.5449    5.3904   25.9238 C   0  0  0  0  0  0  0  0  0  0  0  0
   -7.3881    0.2591   27.0923 C   0  0  0  0  0  0  0  0  0  0  0  0
   -8.1754   -0.5779   27.4187 F   0  0  0  0  0  0  0  0  0  0  0  0
   -6.4656    0.4262   28.1527 F   0  0  0  0  0  0  0  0  0  0  0  0
   -6.7033   -0.1993   26.0126 F   0  0  0  0  0  0  0  0  0  0  0  0
  -10.4005    3.0809   24.4606 C   0  0  0  0  0  0  0  0  0  0  0  0
   -9.9804    2.9857   23.1933 C   0  0  0  0  0  0  0  0  0  0  0  0
  -11.7271    3.2801   24.7646 C   0  0  0  0  0  0  0  0  0  0  0  0
  -10.8118    3.2018   22.1016 C   0  0  0  0  0  0  0  0  0  0  0  0
  -12.6567    3.5158   23.6804 C   0  0  0  0  0  0  0  0  0  0  0  0
  -12.1651    3.4663   22.3367 C   0  0  0  0  0  0  0  0  0  0  0  0
  4 11  1  0
 11 12  1  0
 11 13  1  0
 11 14  1  0
  6 15  1  0
  1  2  2  0
  2  8  1  0
  8  9  2  0
  9 10  1  0
 10  7  2  0
 15 16  2  0
 16 18  1  0
 18 20  2  0
 20 19  1  0
 19 17  2  0
 17 15  1  0
  1  3  1  0
  3  4  2  0
  4  5  1  0
  5  6  2  0
  6  7  1  0
  7  1  1  0
M  END
$$$$
