No_2054-complexes_sdf/6BKW-FPZ/2024-09-17-14-21-01/
     RDKit          3D

 22 24  0  0  0  0  0  0  0  0999 V2000
   -7.2496    3.8871   27.4508 C   0  0  0  0  0  0  0  0  0  0  0  0
   -7.6161    2.7143   27.1523 C   0  0  0  0  0  0  0  0  0  0  0  0
   -6.9719    1.5838   27.5324 C   0  0  0  0  0  0  0  0  0  0  0  0
   -7.4590    0.2827   27.2615 C   0  0  0  0  0  0  0  0  0  0  0  0
   -8.7866    2.4243   26.3811 C   0  0  0  0  0  0  0  0  0  0  0  0
   -9.6056    3.5845   25.9769 C   0  0  0  0  0  0  0  0  0  0  0  0
   -8.0723    5.0696   27.1568 C   0  0  0  0  0  0  0  0  0  0  0  0
   -9.1766    4.9200   26.3560 C   0  0  0  0  0  0  0  0  0  0  0  0
   -6.7339   -0.8329   27.6668 C   0  0  0  0  0  0  0  0  0  0  0  0
   -5.4662   -0.6290   28.2414 C   0  0  0  0  0  0  0  0  0  0  0  0
   -4.9044    0.6226   28.3977 C   0  0  0  0  0  0  0  0  0  0  0  0
   -5.6180    1.6574   28.0683 C   0  0  0  0  0  0  0  0  0  0  0  0
   -7.6589    6.4069   27.6312 C   0  0  0  0  0  0  0  0  0  0  0  0
   -3.3307    0.7836   29.0982 Cl  0  0  0  0  0  0  0  0  0  0  0  0
  -10.7412    3.4230   25.1189 C   0  0  0  0  0  0  0  0  0  0  0  0
  -10.6486    3.8195   23.8188 C   0  0  0  0  0  0  0  0  0  0  0  0
  -11.5823    3.6882   22.8355 C   0  0  0  0  0  0  0  0  0  0  0  0
  -11.9067    2.8884   25.5883 C   0  0  0  0  0  0  0  0  0  0  0  0
  -12.9830    2.7464   24.6751 C   0  0  0  0  0  0  0  0  0  0  0  0
  -12.8187    3.2044   23.3456 C   0  0  0  0  0  0  0  0  0  0  0  0
   -7.7758    7.2875   27.0008 O   0  0  0  0  0  0  0  0  0  0  0  0
   -6.9917    6.3444   28.7916 O   0  0  0  0  0  0  0  0  0  0  0  0
  2  3  1  0
  7 13  1  0
 11 14  1  0
  6 15  1  0
 13 21  2  0
 13 22  1  0
 15 16  2  0
 16 17  1  0
 17 20  2  0
 20 19  1  0
 19 18  2  0
 18 15  1  0
  3  4  2  0
  4  9  1  0
  9 10  2  0
 10 11  1  0
 11 12  2  0
 12  3  1  0
  1  2  2  0
  2  5  1  0
  5  6  2  0
  6  8  1  0
  8  7  2  0
  7  1  1  0
M  END
$$$$
