No_262-complexes_sdf/6BKW-FPZ/2024-09-17-14-21-01/
     RDKit          3D

 37 41  0  0  0  0  0  0  0  0999 V2000
   -7.2496    3.8871   27.4508 C   0  0  0  0  0  0  0  0  0  0  0  0
   -7.6161    2.7143   27.1523 C   0  0  0  0  0  0  0  0  0  0  0  0
   -8.8302    2.4659   26.5056 C   0  0  0  0  0  0  0  0  0  0  0  0
   -8.1584    5.0090   27.3234 C   0  0  0  0  0  0  0  0  0  0  0  0
   -9.3788    4.7965   26.7695 C   0  0  0  0  0  0  0  0  0  0  0  0
   -9.7028    3.5649   26.3276 C   0  0  0  0  0  0  0  0  0  0  0  0
   -6.7182    1.5519   27.3631 C   0  0  0  0  0  0  0  0  0  0  0  0
   -5.4694    1.7365   28.0694 C   0  0  0  0  0  0  0  0  0  0  0  0
   -4.5986    0.6519   28.2611 C   0  0  0  0  0  0  0  0  0  0  0  0
   -3.3986    0.8278   28.9214 C   0  0  0  0  0  0  0  0  0  0  0  0
   -5.0753   -0.5414   27.5805 C   0  0  0  0  0  0  0  0  0  0  0  0
   -6.2099   -0.7269   26.9594 C   0  0  0  0  0  0  0  0  0  0  0  0
   -7.0566    0.3656   26.8056 C   0  0  0  0  0  0  0  0  0  0  0  0
   -7.7006    6.3711   27.7810 C   0  0  0  0  0  0  0  0  0  0  0  0
  -10.9940    3.3566   25.6251 C   0  0  0  0  0  0  0  0  0  0  0  0
  -12.1017    2.9825   26.2741 C   0  0  0  0  0  0  0  0  0  0  0  0
  -11.0632    3.5132   24.2007 C   0  0  0  0  0  0  0  0  0  0  0  0
  -12.1298    3.4377   23.4783 C   0  0  0  0  0  0  0  0  0  0  0  0
  -13.3308    2.8797   25.5873 C   0  0  0  0  0  0  0  0  0  0  0  0
  -13.3544    3.1505   24.1932 C   0  0  0  0  0  0  0  0  0  0  0  0
   -2.9753   -0.4206   29.6973 C   0  0  2  0  0  0  0  0  0  0  0  0
   -3.3030   -0.4596   31.0186 C   0  0  0  0  0  0  0  0  0  0  0  0
   -2.7613   -1.5529   31.7743 C   0  0  0  0  0  0  0  0  0  0  0  0
   -3.0264   -1.6963   33.1691 C   0  0  0  0  0  0  0  0  0  0  0  0
   -3.8952   -0.7367   33.7500 C   0  0  0  0  0  0  0  0  0  0  0  0
   -4.4578    0.1970   32.9566 C   0  0  0  0  0  0  0  0  0  0  0  0
   -4.1814    0.3914   31.6810 C   0  0  0  0  0  0  0  0  0  0  0  0
   -2.0034   -1.2479   29.0705 C   0  0  0  0  0  0  0  0  0  0  0  0
   -2.0244   -1.5224   27.7145 C   0  0  0  0  0  0  0  0  0  0  0  0
   -1.5471   -0.7647   26.9095 C   0  0  0  0  0  0  0  0  0  0  0  0
   -1.6348   -1.0057   25.4408 C   0  0  0  0  0  0  0  0  0  0  0  0
   -2.1341   -2.2994   25.1408 C   0  0  0  0  0  0  0  0  0  0  0  0
   -2.5284   -3.1682   26.0715 C   0  0  0  0  0  0  0  0  0  0  0  0
   -2.4641   -2.8446   27.4273 C   0  0  0  0  0  0  0  0  0  0  0  0
   -4.2548   -0.8662   35.1967 C   0  0  0  0  0  0  0  0  0  0  0  0
   -3.6801   -0.3214   36.0831 O   0  0  0  0  0  0  0  0  0  0  0  0
   -5.2008   -1.7809   35.4323 O   0  0  0  0  0  0  0  0  0  0  0  0
  2  7  1  0
  4 14  1  0
  6 15  1  0
 21 10  1  1
 21 28  1  0
 28 29  1  0
 25 35  1  0
 35 36  2  0
 35 37  1  0
 21 22  1  0
 10  9  1  0
  1  2  2  0
  2  3  1  0
  3  6  2  0
  6  5  1  0
  5  4  2  0
  4  1  1  0
 15 16  2  0
 16 19  1  0
 19 20  2  0
 20 18  1  0
 18 17  2  0
 17 15  1  0
 22 23  2  0
 23 24  1  0
 24 25  2  0
 25 26  1  0
 26 27  2  0
 27 22  1  0
  7  8  2  0
  8  9  1  0
  9 11  2  0
 11 12  1  0
 12 13  2  0
 13  7  1  0
 29 30  2  0
 30 31  1  0
 31 32  2  0
 32 33  1  0
 33 34  2  0
 34 29  1  0
M  END
$$$$
