No_2936-complexes_sdf/6BKW-FPZ/2024-09-17-14-21-01/
     RDKit          3D

 16 17  0  0  0  0  0  0  0  0999 V2000
   -7.7129    4.2099   27.0854 C   0  0  0  0  0  0  0  0  0  0  0  0
   -8.9133    4.4736   27.0998 C   0  0  0  0  0  0  0  0  0  0  0  0
   -9.4643    5.5426   27.7628 C   0  0  0  0  0  0  0  0  0  0  0  0
   -7.2009    2.9448   26.6134 C   0  0  0  0  0  0  0  0  0  0  0  0
   -8.1365    1.9533   26.2981 C   0  0  0  0  0  0  0  0  0  0  0  0
   -9.4501    2.2651   26.2497 C   0  0  0  0  0  0  0  0  0  0  0  0
   -9.8615    3.4703   26.6763 C   0  0  0  0  0  0  0  0  0  0  0  0
   -7.4108    0.7320   25.8790 C   0  0  0  0  0  0  0  0  0  0  0  0
   -7.9559   -0.2100   26.4693 O   0  0  0  0  0  0  0  0  0  0  0  0
   -8.7422   -0.3522   27.2822 C   0  0  0  0  0  0  0  0  0  0  0  0
  -10.1219   -0.2303   26.9913 C   0  0  1  0  0  0  0  0  0  0  0  0
  -10.4397    1.3418   27.0448 C   0  0  0  0  0  0  0  0  0  0  0  0
  -10.3516   -0.5280   25.5379 C   0  0  0  0  0  0  0  0  0  0  0  0
  -11.0743   -1.5642   25.4249 C   0  0  0  0  0  0  0  0  0  0  0  0
  -11.6347   -2.1843   26.5382 C   0  0  0  0  0  0  0  0  0  0  0  0
  -12.3438   -3.3124   26.5453 C   0  0  0  0  0  0  0  0  0  0  0  0
  5  8  1  0
  8  9  1  0
  9 10  1  0
 11 10  1  6
  6 12  1  0
 11 12  1  0
 11 13  1  0
 13 14  2  3
 14 15  1  0
 15 16  2  0
  3  2  1  0
  1  2  2  0
  2  7  1  0
  7  6  2  0
  6  5  1  0
  5  4  2  0
  4  1  1  0
M  END
$$$$
