No_2216-complexes_sdf/6BKW-FPZ/2024-09-17-14-21-01/
     RDKit          3D

 26 29  0  0  0  0  0  0  0  0999 V2000
   -7.9040    3.9820   27.1177 C   0  0  0  0  0  0  0  0  0  0  0  0
   -7.8663    4.8694   27.9238 C   0  0  0  0  0  0  0  0  0  0  0  0
   -9.0491    3.8523   26.2542 C   0  0  0  0  0  0  0  0  0  0  0  0
   -8.7661    5.9491   27.9690 C   0  0  0  0  0  0  0  0  0  0  0  0
   -9.9295    4.8502   26.2323 C   0  0  0  0  0  0  0  0  0  0  0  0
   -9.8077    5.9288   27.0933 C   0  0  0  0  0  0  0  0  0  0  0  0
   -6.9377    2.5632   27.0872 Cl  0  0  0  0  0  0  0  0  0  0  0  0
   -9.1620    2.7269   25.2654 C   0  0  0  0  0  0  0  0  0  0  0  0
  -10.1232    2.9112   24.2370 C   0  0  0  0  0  0  0  0  0  0  0  0
  -10.9166    4.0708   24.2064 C   0  0  2  0  0  0  0  0  0  0  0  0
  -10.8592    4.9469   25.1747 N   0  0  0  0  0  0  0  0  0  0  0  0
  -11.8438    4.1588   23.3575 F   0  0  0  0  0  0  0  0  0  0  0  0
  -10.2697    1.8421   23.2810 C   0  0  0  0  0  0  0  0  0  0  0  0
   -9.5443    0.6817   23.4234 C   0  0  0  0  0  0  0  0  0  0  0  0
   -8.9125    0.4009   24.6184 C   0  0  0  0  0  0  0  0  0  0  0  0
   -8.5500    1.4945   25.4801 C   0  0  0  0  0  0  0  0  0  0  0  0
   -8.1501   -0.8631   24.7453 C   0  0  1  0  0  0  0  0  0  0  0  0
   -7.9606   -1.3720   25.9801 C   0  0  0  0  0  0  0  0  0  0  0  0
   -9.0051   -1.3703   26.8515 C   0  0  0  0  0  0  0  0  0  0  0  0
   -9.4436   -2.2983   27.3700 C   0  0  0  0  0  0  0  0  0  0  0  0
  -10.5730   -2.2667   28.4342 C   0  0  0  0  0  0  0  0  0  0  0  0
  -11.1222   -1.0018   28.6991 C   0  0  0  0  0  0  0  0  0  0  0  0
  -10.5746    0.1591   28.0886 C   0  0  0  0  0  0  0  0  0  0  0  0
   -9.5809    0.0453   27.2356 C   0  0  0  0  0  0  0  0  0  0  0  0
   -7.6997   -1.5195   23.5873 C   0  0  0  0  0  0  0  0  0  0  0  0
   -8.4828   -2.2183   22.7946 C   0  0  0  0  0  0  0  0  0  0  0  0
  1  7  1  0
  3  8  1  0
  9 10  1  0
  5 11  1  0
 10 11  1  0
 10 12  1  1
 15 17  1  0
 17 18  1  6
 18 19  1  0
 17 25  1  0
 25 26  1  0
  8  9  2  0
  9 13  1  0
 13 14  2  0
 14 15  1  0
 15 16  2  0
 16  8  1  0
  1  2  2  0
  2  4  1  0
  4  6  2  0
  6  5  1  0
  5  3  2  0
  3  1  1  0
 19 20  2  0
 20 21  1  0
 21 22  2  0
 22 23  1  0
 23 24  2  0
 24 19  1  0
M  END
$$$$
