No_2831-complexes_sdf/6BKW-FPZ/2024-09-17-14-21-01/
     RDKit          3D

 27 28  0  0  0  0  0  0  0  0999 V2000
   -7.9040    3.9820   27.1177 C   0  0  0  0  0  0  0  0  0  0  0  0
   -8.2057    2.8231   26.8733 C   0  0  0  0  0  0  0  0  0  0  0  0
   -8.7695    5.0740   26.7916 C   0  0  0  0  0  0  0  0  0  0  0  0
   -8.4337    6.4678   27.0913 C   0  0  0  0  0  0  0  0  0  0  0  0
   -9.3742    2.4311   26.2346 C   0  0  0  0  0  0  0  0  0  0  0  0
  -10.2395    3.4267   25.8887 C   0  0  0  0  0  0  0  0  0  0  0  0
   -9.9567    4.7548   26.1374 C   0  0  0  0  0  0  0  0  0  0  0  0
   -8.6883    7.3863   26.4388 O   0  0  0  0  0  0  0  0  0  0  0  0
   -7.5870    6.5411   28.1527 O   0  0  0  0  0  0  0  0  0  0  0  0
   -7.2488    1.6763   27.2846 C   0  0  1  0  0  0  0  0  0  0  0  0
   -7.5382    0.3979   27.1405 N   0  0  0  0  0  0  0  0  0  0  0  0
   -8.5714   -0.0921   27.1720 C   0  0  0  0  0  0  0  0  0  0  0  0
   -9.8291    0.3442   26.6449 C   0  0  0  0  0  0  0  0  0  0  0  0
   -9.9107    1.2038   26.2263 C   0  0  0  0  0  0  0  0  0  0  0  0
   -6.1227    2.1288   27.6629 F   0  0  0  0  0  0  0  0  0  0  0  0
   -6.3168   -0.4307   27.5269 C   0  0  0  0  0  0  0  0  0  0  0  0
   -5.1466    0.0128   27.3985 C   0  0  0  0  0  0  0  0  0  0  0  0
   -4.1808   -0.1710   27.7064 C   0  0  0  0  0  0  0  0  0  0  0  0
   -2.8182    0.5425   27.3265 C   0  0  0  0  0  0  0  0  0  0  0  0
   -1.6898    0.2155   27.8455 F   0  0  0  0  0  0  0  0  0  0  0  0
   -2.9114    1.9397   27.4402 F   0  0  0  0  0  0  0  0  0  0  0  0
   -2.7483    0.4478   25.9711 F   0  0  0  0  0  0  0  0  0  0  0  0
  -11.4908    3.1823   25.2274 C   0  0  0  0  0  0  0  0  0  0  0  0
  -11.8298    3.6312   24.2622 C   0  0  0  0  0  0  0  0  0  0  0  0
  -13.0689    3.4367   23.5146 C   0  0  0  0  0  0  0  0  0  0  0  0
  -13.8428    2.4759   23.9754 C   0  0  0  0  0  0  0  0  0  0  0  0
  -13.5259    1.8456   25.1401 C   0  0  0  0  0  0  0  0  0  0  0  0
  3  4  1  0
  4  8  2  0
  4  9  1  0
  2 10  1  0
 10 11  1  0
 11 12  1  0
 12 13  2  0
  5 14  1  0
 13 14  1  0
 10 15  1  6
 11 16  1  0
 16 17  1  0
 17 18  2  3
 18 19  1  0
 19 20  1  0
 19 21  1  0
 19 22  1  0
  6 23  1  0
 23 24  2  3
 24 25  1  0
 25 26  2  3
 26 27  1  0
  1  2  2  0
  2  5  1  0
  5  6  2  0
  6  7  1  0
  7  3  2  0
  3  1  1  0
M  END
$$$$
