No_2193-complexes_sdf/6BKW-FPZ/2024-09-17-14-21-01/
     RDKit          3D

 20 22  0  0  0  0  0  0  0  0999 V2000
   -7.9040    3.9820   27.1177 C   0  0  0  0  0  0  0  0  0  0  0  0
   -9.0711    4.3164   27.0630 C   0  0  0  0  0  0  0  0  0  0  0  0
   -9.5294    5.4517   27.7215 C   0  0  0  0  0  0  0  0  0  0  0  0
   -9.9845    3.5634   26.2189 C   0  0  0  0  0  0  0  0  0  0  0  0
   -9.6295    2.5733   25.6121 C   0  0  0  0  0  0  0  0  0  0  0  0
   -7.4226    2.6598   26.7196 C   0  0  0  0  0  0  0  0  0  0  0  0
   -8.3452    1.9310   25.9988 C   0  0  0  0  0  0  0  0  0  0  0  0
   -7.9325    0.6162   25.4795 C   0  0  0  0  0  0  0  0  0  0  0  0
   -8.4465    0.1928   24.2899 C   0  0  0  0  0  0  0  0  0  0  0  0
   -9.3689    0.9700   23.5914 C   0  0  0  0  0  0  0  0  0  0  0  0
  -10.0931    1.9457   24.3714 C   0  0  0  0  0  0  0  0  0  0  0  0
  -11.1999    2.6396   23.6778 C   0  0  0  0  0  0  0  0  0  0  0  0
  -12.3586    2.5219   24.2336 C   0  0  0  0  0  0  0  0  0  0  0  0
  -10.9549    3.4391   22.5461 C   0  0  0  0  0  0  0  0  0  0  0  0
  -11.7006    4.3151   22.0037 C   0  0  0  0  0  0  0  0  0  0  0  0
  -13.4148    3.4357   23.6505 C   0  0  0  0  0  0  0  0  0  0  0  0
  -13.0692    4.2936   22.5549 C   0  0  0  0  0  0  0  0  0  0  0  0
   -7.0009    4.5523   27.9784 F   0  0  0  0  0  0  0  0  0  0  0  0
  -12.7758    1.7774   25.3469 C   0  0  0  0  0  0  0  0  0  0  0  0
  -13.1814    2.1126   26.3210 N   0  0  0  0  0  0  0  0  0  0  0  0
  2  3  1  0
 11 12  1  0
  1 18  1  0
 13 19  1  0
 19 20  2  0
  1  2  2  0
  2  4  1  0
  4  5  2  0
  7  6  2  0
  6  1  1  0
  5  7  1  0
  7  8  1  0
  8  9  2  0
  9 10  1  0
 10 11  2  0
 11  5  1  0
 12 13  2  0
 13 16  1  0
 16 17  2  0
 17 15  1  0
 15 14  2  0
 14 12  1  0
M  END
$$$$
