No_2304-complexes_sdf/6BKW-FPZ/2024-09-17-14-21-01/
     RDKit          3D

 14 15  0  0  0  0  0  0  0  0999 V2000
   -7.7129    4.2099   27.0854 C   0  0  0  0  0  0  0  0  0  0  0  0
   -8.2112    3.0637   26.9225 C   0  0  1  0  0  0  0  0  0  0  0  0
   -7.0021    4.5281   28.2396 C   0  0  0  0  0  0  0  0  0  0  0  0
   -9.4237    2.7810   26.2714 C   0  0  0  0  0  0  0  0  0  0  0  0
   -9.9782    1.4391   26.2525 C   0  0  0  0  0  0  0  0  0  0  0  0
  -11.2118    1.2242   25.6766 C   0  0  0  0  0  0  0  0  0  0  0  0
  -11.8702    2.3218   25.1283 C   0  0  0  0  0  0  0  0  0  0  0  0
  -11.3400    3.5742   25.0895 C   0  0  0  0  0  0  0  0  0  0  0  0
  -10.0352    3.7962   25.6803 C   0  0  0  0  0  0  0  0  0  0  0  0
   -7.1084    2.0453   26.8652 C   0  0  0  0  0  0  0  0  0  0  0  0
   -6.9236    5.9191   28.6126 C   0  0  0  0  0  0  0  0  0  0  0  0
   -7.7740    6.7742   27.8067 C   0  0  0  0  0  0  0  0  0  0  0  0
   -8.5535    5.3971   26.6899 C   0  0  2  0  0  0  0  0  0  0  0  0
   -9.6045    5.2124   25.8518 C   0  0  0  0  0  0  0  0  0  0  0  0
  1  2  1  0
  1  3  2  0
  2  4  1  0
  2 10  1  6
  3 11  1  0
 11 12  2  0
  1 13  1  0
 12 13  1  0
 13 14  1  1
  4  5  2  0
  5  6  1  0
  6  7  2  0
  7  8  1  0
  8  9  2  0
  9  4  1  0
M  END
$$$$
