No_2647-complexes_sdf/6BKW-FPZ/2024-09-17-14-21-01/
     RDKit          3D

 14 15  0  0  0  0  0  0  0  0999 V2000
   -7.7129    4.2099   27.0854 C   0  0  0  0  0  0  0  0  0  0  0  0
   -8.2112    3.0637   26.9225 C   0  0  0  0  0  0  0  0  0  0  0  0
   -7.5138    1.9223   27.4249 C   0  0  0  0  0  0  0  0  0  0  0  0
   -8.5309    5.4147   26.8151 C   0  0  0  0  0  0  0  0  0  0  0  0
   -9.6817    5.2393   26.1100 C   0  0  0  0  0  0  0  0  0  0  0  0
  -10.1032    3.9957   25.8534 C   0  0  0  0  0  0  0  0  0  0  0  0
   -9.4034    2.8430   26.2573 C   0  0  0  0  0  0  0  0  0  0  0  0
   -6.1481    1.9922   27.8210 C   0  0  0  0  0  0  0  0  0  0  0  0
   -5.4897    0.8126   28.2236 C   0  0  0  0  0  0  0  0  0  0  0  0
   -4.1420    0.8345   28.6993 C   0  0  0  0  0  0  0  0  0  0  0  0
   -6.1806   -0.4425   28.0976 C   0  0  0  0  0  0  0  0  0  0  0  0
   -5.5299   -1.5944   28.5475 C   0  0  0  0  0  0  0  0  0  0  0  0
   -3.5468   -0.2971   29.2385 C   0  0  0  0  0  0  0  0  0  0  0  0
   -4.2333   -1.5111   29.1462 C   0  0  0  0  0  0  0  0  0  0  0  0
  2  3  1  0
  3  8  2  3
  8  9  1  0
  9 10  2  0
 10 13  1  0
 13 14  2  0
 14 12  1  0
 12 11  2  0
 11  9  1  0
  1  2  2  0
  2  7  1  0
  7  6  2  0
  6  5  1  0
  5  4  2  0
  4  1  1  0
M  END
$$$$
