No_2735-complexes_sdf/6BKW-FPZ/2024-09-17-14-21-01/
     RDKit          3D

 15 17  0  0  0  0  0  0  0  0999 V2000
   -7.9040    3.9820   27.1177 C   0  0  0  0  0  0  0  0  0  0  0  0
   -7.8663    4.8694   27.9238 C   0  0  0  0  0  0  0  0  0  0  0  0
   -9.0491    3.8523   26.2542 C   0  0  0  0  0  0  0  0  0  0  0  0
   -9.4067    2.6808   25.6532 C   0  0  0  0  0  0  0  0  0  0  0  0
   -8.5920    5.9970   27.6971 N   0  0  0  0  0  0  0  0  0  0  0  0
   -9.6665    6.0483   26.9604 C   0  0  0  0  0  0  0  0  0  0  0  0
   -9.8262    4.9347   26.1706 C   0  0  0  0  0  0  0  0  0  0  0  0
  -10.0275    2.6108   24.4119 C   0  0  0  0  0  0  0  0  0  0  0  0
  -10.2607    1.4029   23.7384 C   0  0  0  0  0  0  0  0  0  0  0  0
   -9.6904    0.2166   24.2621 C   0  0  0  0  0  0  0  0  0  0  0  0
   -8.8005    1.3810   26.0331 C   0  0  0  0  0  0  0  0  0  0  0  0
   -8.9769    0.2511   25.4236 C   0  0  0  0  0  0  0  0  0  0  0  0
   -7.1525    2.8156   27.3742 N   0  0  0  0  0  0  0  0  0  0  0  0
   -7.5117    1.5777   26.8942 C   0  0  0  0  0  0  0  0  0  0  0  0
   -6.8445    0.5750   27.2083 O   0  0  0  0  0  0  0  0  0  0  0  0
  3  4  1  0
  1 13  1  0
 11 14  1  0
 13 14  1  0
 14 15  2  0
  4  8  2  0
  8  9  1  0
  9 10  2  0
 10 12  1  0
 12 11  2  0
 11  4  1  0
  1  2  2  0
  2  5  1  0
  5  6  2  0
  6  7  1  0
  7  3  2  0
  3  1  1  0
M  END
$$$$
