No_2530-complexes_sdf/6BKW-FPZ/2024-09-17-14-21-01/
     RDKit          3D

 22 24  0  0  0  0  0  0  0  0999 V2000
   -7.2496    3.8871   27.4508 C   0  0  0  0  0  0  0  0  0  0  0  0
   -7.6161    2.7143   27.1523 C   0  0  0  0  0  0  0  0  0  0  0  0
   -8.6212    2.2239   26.4074 C   0  0  0  0  0  0  0  0  0  0  0  0
   -8.2540    4.9237   27.1711 C   0  0  0  0  0  0  0  0  0  0  0  0
   -9.3709    4.6018   26.4511 C   0  0  0  0  0  0  0  0  0  0  0  0
   -9.6782    3.5109   26.2537 C   0  0  0  0  0  0  0  0  0  0  0  0
   -7.8579    6.3377   27.5776 C   0  0  0  0  0  0  0  0  0  0  0  0
  -10.8887    3.0598   25.4187 C   0  0  0  0  0  0  0  0  0  0  0  0
  -12.0010    3.0251   26.0269 C   0  0  0  0  0  0  0  0  0  0  0  0
  -10.8314    2.9140   24.0060 C   0  0  0  0  0  0  0  0  0  0  0  0
  -11.8790    2.7990   23.2156 C   0  0  0  0  0  0  0  0  0  0  0  0
  -13.2517    2.8935   25.2904 C   0  0  0  0  0  0  0  0  0  0  0  0
  -11.8667    2.6290   21.7991 C   0  0  0  0  0  0  0  0  0  0  0  0
  -13.1661    2.7883   23.8848 C   0  0  0  0  0  0  0  0  0  0  0  0
   -6.5648    1.5537   27.4718 C   0  0  0  0  0  0  0  0  0  0  0  0
   -6.8919    0.1959   27.4791 C   0  0  0  0  0  0  0  0  0  0  0  0
   -5.9923   -0.7401   27.9135 C   0  0  0  0  0  0  0  0  0  0  0  0
   -4.7429   -0.3021   28.4509 C   0  0  0  0  0  0  0  0  0  0  0  0
   -4.4607    1.0764   28.4713 C   0  0  0  0  0  0  0  0  0  0  0  0
   -5.3017    1.9474   28.0630 C   0  0  0  0  0  0  0  0  0  0  0  0
   -8.7433    7.2762   27.2457 O   0  0  0  0  0  0  0  0  0  0  0  0
  -12.2493    3.4265   21.0159 C   0  0  0  0  0  0  0  0  0  0  0  0
  4  7  1  0
  6  8  1  0
  2 15  1  0
  7 21  2  0
 13 22  1  0
 13 11  1  0
 15 16  2  0
 16 17  1  0
 17 18  2  0
 18 19  1  0
 19 20  2  0
 20 15  1  0
  8  9  2  0
  9 12  1  0
 12 14  2  0
 14 11  1  0
 11 10  2  0
 10  8  1  0
  1  2  2  0
  2  3  1  0
  3  6  2  0
  6  5  1  0
  5  4  2  0
  4  1  1  0
M  END
$$$$
