No_2603-complexes_sdf/6BKW-FPZ/2024-09-17-14-21-01/
     RDKit          3D

 17 18  0  0  0  0  0  0  0  0999 V2000
   -7.7129    4.2099   27.0854 C   0  0  0  0  0  0  0  0  0  0  0  0
   -7.7814    5.1722   27.8972 C   0  0  0  0  0  0  0  0  0  0  0  0
   -7.3155    2.9699   27.6145 C   0  0  0  0  0  0  0  0  0  0  0  0
   -7.6814    1.8188   26.9581 C   0  0  0  0  0  0  0  0  0  0  0  0
   -8.6377    1.9131   25.9324 C   0  0  0  0  0  0  0  0  0  0  0  0
   -9.1866    3.0673   25.6037 C   0  0  0  0  0  0  0  0  0  0  0  0
   -8.8394    4.1752   26.2513 C   0  0  0  0  0  0  0  0  0  0  0  0
   -8.2486    6.4747   27.5719 N   0  0  0  0  0  0  0  0  0  0  0  0
   -9.0953    6.6391   26.5260 C   0  0  0  0  0  0  0  0  0  0  0  0
   -9.4505    5.4775   25.8556 C   0  0  0  0  0  0  0  0  0  0  0  0
   -7.0267    0.5350   27.2749 C   0  0  0  0  0  0  0  0  0  0  0  0
   -7.6495   -0.4871   27.2272 F   0  0  0  0  0  0  0  0  0  0  0  0
   -5.8676    0.4243   26.5218 F   0  0  0  0  0  0  0  0  0  0  0  0
   -6.4369    0.6281   28.5593 F   0  0  0  0  0  0  0  0  0  0  0  0
  -10.1439    3.0514   24.4565 C   0  0  0  0  0  0  0  0  0  0  0  0
   -9.8231    3.2970   23.2124 C   0  0  0  0  0  0  0  0  0  0  0  0
  -10.7027    3.3596   22.1189 C   0  0  0  0  0  0  0  0  0  0  0  0
  4 11  1  0
 11 12  1  0
 11 13  1  0
 11 14  1  0
  6 15  1  0
 15 16  2  3
 16 17  1  0
  1  2  2  0
  2  8  1  0
  8  9  2  0
  9 10  1  0
 10  7  2  0
  1  3  1  0
  3  4  2  0
  4  5  1  0
  5  6  2  0
  6  7  1  0
  7  1  1  0
M  END
$$$$
