No_2979-complexes_sdf/6BKW-FPZ/2024-09-17-14-21-01/
     RDKit          3D

 13 14  0  0  0  0  0  0  0  0999 V2000
   -7.9040    3.9820   27.1177 C   0  0  0  0  0  0  0  0  0  0  0  0
   -7.8663    4.8694   27.9238 C   0  0  0  0  0  0  0  0  0  0  0  0
   -9.0953    3.1697   27.0532 C   0  0  0  0  0  0  0  0  0  0  0  0
  -10.1313    3.4052   27.8871 C   0  0  0  0  0  0  0  0  0  0  0  0
  -11.2910    2.5514   27.9289 C   0  0  0  0  0  0  0  0  0  0  0  0
   -8.9775    5.3451   28.7374 C   0  0  0  0  0  0  0  0  0  0  0  0
  -10.0738    4.4970   28.7375 C   0  0  0  0  0  0  0  0  0  0  0  0
  -12.4825    3.0161   28.2643 C   0  0  0  0  0  0  0  0  0  0  0  0
  -13.5638    2.1886   28.5373 C   0  0  0  0  0  0  0  0  0  0  0  0
  -13.3702    0.8131   28.3006 C   0  0  0  0  0  0  0  0  0  0  0  0
  -11.1400    1.1072   27.8627 C   0  0  0  0  0  0  0  0  0  0  0  0
  -12.1518    0.2705   28.0441 C   0  0  0  0  0  0  0  0  0  0  0  0
   -8.9918    1.9170   26.2395 C   0  0  0  0  0  0  0  0  0  0  0  0
  4  5  1  0
  3 13  1  0
  1  2  2  0
  2  6  1  0
  6  7  2  0
  7  4  1  0
  4  3  2  0
  3  1  1  0
  5  8  2  0
  8  9  1  0
  9 10  2  0
 10 12  1  0
 12 11  2  0
 11  5  1  0
M  END
$$$$
