No_2278-complexes_sdf/6BKW-FPZ/2024-09-17-14-21-01/
     RDKit          3D

 38 43  0  0  0  0  0  0  0  0999 V2000
   -7.2496    3.8871   27.4508 C   0  0  0  0  0  0  0  0  0  0  0  0
   -7.9379    4.9063   27.8518 C   0  0  0  0  0  0  0  0  0  0  0  0
   -7.5112    6.1898   27.6280 C   0  0  0  0  0  0  0  0  0  0  0  0
   -7.4783    2.5435   27.5904 C   0  0  2  0  0  0  0  0  0  0  0  0
   -6.6064    1.5370   27.1750 C   0  0  0  0  0  0  0  0  0  0  0  0
   -5.3905    1.5729   27.8930 C   0  0  0  0  0  0  0  0  0  0  0  0
   -4.4991    0.4506   27.7519 C   0  0  0  0  0  0  0  0  0  0  0  0
   -4.8375   -0.5295   26.8857 C   0  0  0  0  0  0  0  0  0  0  0  0
   -6.8763    0.3768   26.5442 C   0  0  0  0  0  0  0  0  0  0  0  0
   -6.0787   -0.6378   26.3525 C   0  0  0  0  0  0  0  0  0  0  0  0
   -8.8997    2.2554   27.6569 C   0  0  0  0  0  0  0  0  0  0  0  0
   -9.3456    4.6907   28.2127 C   0  0  0  0  0  0  0  0  0  0  0  0
   -9.8188    3.3309   28.1194 C   0  0  0  0  0  0  0  0  0  0  0  0
  -11.1971    2.9984   28.4525 C   0  0  2  0  0  0  0  0  0  0  0  0
  -12.1129    4.0068   28.6704 C   0  0  0  0  0  0  0  0  0  0  0  0
  -11.5893    1.6639   28.6788 C   0  0  0  0  0  0  0  0  0  0  0  0
  -13.3105    3.8576   28.1004 C   0  0  0  0  0  0  0  0  0  0  0  0
  -12.9423    1.3693   28.4130 C   0  0  0  0  0  0  0  0  0  0  0  0
  -13.9270    2.5115   28.4471 C   0  0  2  0  0  0  0  0  0  0  0  0
   -3.1249    0.6237   28.3627 C   0  0  0  0  0  0  0  0  0  0  0  0
   -2.6948   -0.7108   28.9482 C   0  0  0  0  0  0  0  0  0  0  0  0
   -1.7259   -1.3446   28.3918 C   0  0  0  0  0  0  0  0  0  0  0  0
   -1.2258   -2.5341   28.9033 C   0  0  0  0  0  0  0  0  0  0  0  0
   -2.8605   -0.8928   30.3183 C   0  0  0  0  0  0  0  0  0  0  0  0
   -2.3693   -1.9563   31.0102 C   0  0  0  0  0  0  0  0  0  0  0  0
   -1.4783   -2.7839   30.2986 C   0  0  0  0  0  0  0  0  0  0  0  0
   -3.5484    0.1214   30.9731 F   0  0  0  0  0  0  0  0  0  0  0  0
  -15.1668    2.2144   27.5808 C   0  0  2  0  0  0  0  0  0  0  0  0
  -14.3493    2.6202   29.9568 C   0  0  0  0  0  0  0  0  0  0  0  0
  -15.2244    2.0417   30.4060 C   0  0  0  0  0  0  0  0  0  0  0  0
  -16.0871    1.3438   28.1110 C   0  0  0  0  0  0  0  0  0  0  0  0
  -16.3107    1.4713   29.5475 C   0  0  0  0  0  0  0  0  0  0  0  0
  -14.6797    1.9970   26.1756 C   0  0  0  0  0  0  0  0  0  0  0  0
  -14.8189    3.0909   25.3853 C   0  0  0  0  0  0  0  0  0  0  0  0
  -14.1184    3.1599   24.1401 C   0  0  0  0  0  0  0  0  0  0  0  0
  -13.3881    2.0731   23.7712 C   0  0  0  0  0  0  0  0  0  0  0  0
  -13.2518    0.9710   24.5810 C   0  0  0  0  0  0  0  0  0  0  0  0
  -13.8322    0.9827   25.8300 C   0  0  0  0  0  0  0  0  0  0  0  0
  1  2  1  0
  2  3  2  0
  1  4  1  0
  4  5  1  6
  4 11  1  0
  2 12  1  0
 11 13  1  0
 12 13  1  0
 14 13  1  1
 14 15  1  0
 14 16  1  0
 15 17  1  0
 19 17  1  6
 18 19  1  0
  7 20  1  0
 20 21  1  0
 24 27  1  0
 19 28  1  0
 19 29  1  0
 30 32  1  0
 31 32  1  0
 28 33  1  6
 16 18  1  0
 28 31  1  0
 30 29  1  0
 33 34  2  0
 34 35  1  0
 35 36  2  0
 36 37  1  0
 37 38  2  0
 38 33  1  0
 21 22  2  0
 22 23  1  0
 23 26  2  0
 26 25  1  0
 25 24  2  0
 24 21  1  0
  5  6  2  0
  6  7  1  0
  7  8  2  0
  8 10  1  0
 10  9  2  0
  9  5  1  0
M  END
$$$$
