No_225-complexes_sdf/6BKW-FPZ/2024-09-17-14-21-01/
     RDKit          3D

 17 19  0  0  0  0  0  0  0  0999 V2000
   -7.9040    3.9820   27.1177 C   0  0  0  0  0  0  0  0  0  0  0  0
   -7.8663    4.8694   27.9238 C   0  0  0  0  0  0  0  0  0  0  0  0
   -7.4547    2.7080   27.4594 C   0  0  0  0  0  0  0  0  0  0  0  0
   -8.0927    6.2909   27.5184 C   0  0  0  0  0  0  0  0  0  0  0  0
   -8.9150    6.5640   26.4331 C   0  0  0  0  0  0  0  0  0  0  0  0
   -7.6563    1.4669   26.7412 C   0  0  0  0  0  0  0  0  0  0  0  0
   -8.5911    4.1595   25.8847 C   0  0  0  0  0  0  0  0  0  0  0  0
   -9.1495    5.4407   25.5619 C   0  0  0  0  0  0  0  0  0  0  0  0
   -7.0790    0.3201   27.0939 C   0  0  0  0  0  0  0  0  0  0  0  0
   -7.5824   -0.8693   26.6207 C   0  0  0  0  0  0  0  0  0  0  0  0
   -8.6517   -0.8018   25.7032 C   0  0  0  0  0  0  0  0  0  0  0  0
   -9.2384    0.3590   25.3572 C   0  0  0  0  0  0  0  0  0  0  0  0
   -8.7538    1.5456   25.9146 C   0  0  0  0  0  0  0  0  0  0  0  0
   -9.1468    2.9374   25.2405 C   0  0  0  0  0  0  0  0  0  0  0  0
  -10.0425    2.9891   24.1726 C   0  0  0  0  0  0  0  0  0  0  0  0
  -11.2410    3.5831   24.3256 C   0  0  0  0  0  0  0  0  0  0  0  0
  -12.1226    3.6638   23.2505 C   0  0  0  0  0  0  0  0  0  0  0  0
 14 15  1  0
 15 16  2  3
 16 17  1  0
  1  2  2  0
  2  4  1  0
  4  5  2  0
  5  8  1  0
  8  7  2  0
  1  3  1  0
  3  6  2  0
 13 14  2  0
 14  7  1  0
  7  1  1  0
  6  9  1  0
  9 10  2  0
 10 11  1  0
 11 12  2  0
 12 13  1  0
 13  6  1  0
M  END
$$$$
