No_2878-complexes_sdf/6BKW-FPZ/2024-09-17-14-21-01/
     RDKit          3D

 15 16  0  0  0  0  0  0  0  0999 V2000
   -7.7129    4.2099   27.0854 C   0  0  0  0  0  0  0  0  0  0  0  0
   -7.7814    5.1722   27.8972 C   0  0  0  0  0  0  0  0  0  0  0  0
   -8.8776    3.8408   26.3416 C   0  0  0  0  0  0  0  0  0  0  0  0
   -9.9844    4.6492   26.4743 C   0  0  0  0  0  0  0  0  0  0  0  0
   -8.7830    6.1594   27.8870 C   0  0  0  0  0  0  0  0  0  0  0  0
   -9.9269    5.8191   27.1183 C   0  0  0  0  0  0  0  0  0  0  0  0
   -8.8804    2.6871   25.6100 N   0  0  0  0  0  0  0  0  0  0  0  0
   -9.6865    2.4426   24.5858 C   0  0  0  0  0  0  0  0  0  0  0  0
   -9.5367    1.2776   23.8500 C   0  0  0  0  0  0  0  0  0  0  0  0
   -7.9529    1.6462   25.7424 C   0  0  0  0  0  0  0  0  0  0  0  0
   -7.9160    0.5005   25.1746 C   0  0  0  0  0  0  0  0  0  0  0  0
   -8.6818    0.3357   24.1299 C   0  0  0  0  0  0  0  0  0  0  0  0
  -10.4981    1.1588   22.6456 C   0  0  0  0  0  0  0  0  0  0  0  0
  -10.7905    2.2224   21.9669 C   0  0  0  0  0  0  0  0  0  0  0  0
  -11.7090    2.1486   20.8424 C   0  0  0  0  0  0  0  0  0  0  0  0
  3  7  1  0
  7  8  1  0
  7 10  1  0
  9 12  1  0
 11 12  1  0
  9 13  1  0
 13 14  2  3
 14 15  1  0
  8  9  1  0
 11 10  1  0
  1  2  2  0
  2  5  1  0
  5  6  2  0
  6  4  1  0
  4  3  2  0
  3  1  1  0
M  END
$$$$
