No_2134-complexes_sdf/6BKW-FPZ/2024-09-17-14-21-01/
     RDKit          3D

  7  6  0  0  0  0  0  0  0  0999 V2000
   -7.2496    3.8871   27.4508 C   0  0  0  0  0  0  0  0  0  0  0  0
   -7.6161    2.7143   27.1523 C   0  0  0  0  0  0  0  0  0  0  0  0
   -7.1618    1.8631   27.5232 C   0  0  0  0  0  0  0  0  0  0  0  0
   -8.0384    5.0866   27.3232 C   0  0  0  0  0  0  0  0  0  0  0  0
   -7.6402    6.3228   27.8917 C   0  0  0  0  0  0  0  0  0  0  0  0
   -5.9359    1.4370   27.5859 C   0  0  0  0  0  0  0  0  0  0  0  0
   -5.3550    0.2431   28.0731 C   0  0  0  0  0  0  0  0  0  0  0  0
  1  2  1  0
  2  3  1  0
  1  4  2  3
  4  5  1  0
  3  6  1  0
  6  7  2  0
M  END
$$$$
