No_2209-complexes_sdf/6BKW-FPZ/2024-09-17-14-21-01/
     RDKit          3D

 30 33  0  0  0  0  0  0  0  0999 V2000
   -7.2496    3.8871   27.4508 C   0  0  0  0  0  0  0  0  0  0  0  0
   -7.9379    4.9063   27.8518 C   0  0  0  0  0  0  0  0  0  0  0  0
   -7.4895    6.2027   27.7481 C   0  0  0  0  0  0  0  0  0  0  0  0
   -7.8057    2.6324   27.3137 C   0  0  0  0  0  0  0  0  0  0  0  0
   -9.1872    2.4678   27.5434 C   0  0  0  0  0  0  0  0  0  0  0  0
   -9.9237    3.5447   27.9999 C   0  0  0  0  0  0  0  0  0  0  0  0
   -9.3832    4.8080   28.1012 C   0  0  0  0  0  0  0  0  0  0  0  0
  -11.3676    3.2981   28.3203 C   0  0  0  0  0  0  0  0  0  0  0  0
  -12.1857    4.2348   28.6324 C   0  0  0  0  0  0  0  0  0  0  0  0
  -11.7881    1.9457   28.5840 C   0  0  0  0  0  0  0  0  0  0  0  0
  -13.0175    1.6575   29.1044 C   0  0  0  0  0  0  0  0  0  0  0  0
  -13.5288    4.0429   29.0800 C   0  0  0  0  0  0  0  0  0  0  0  0
  -13.8904    2.7371   29.3205 C   0  0  0  0  0  0  0  0  0  0  0  0
   -7.1775    1.3504   27.0009 C   0  0  0  0  0  0  0  0  0  0  0  0
   -7.6915    0.4442   26.2207 N   0  0  0  0  0  0  0  0  0  0  0  0
   -8.6336    0.7449   25.4309 C   0  0  0  0  0  0  0  0  0  0  0  0
   -9.5418   -0.2901   25.1837 C   0  0  0  0  0  0  0  0  0  0  0  0
   -9.5064   -0.7077   23.8808 C   0  0  0  0  0  0  0  0  0  0  0  0
   -9.6312    0.2357   22.8836 C   0  0  0  0  0  0  0  0  0  0  0  0
   -8.8886    1.5142   23.0987 C   0  0  0  0  0  0  0  0  0  0  0  0
   -8.5668    1.8064   24.3673 C   0  0  0  0  0  0  0  0  0  0  0  0
   -5.8815    1.2094   27.4852 N   0  0  0  0  0  0  0  0  0  0  0  0
   -5.1701    0.0440   27.5832 C   0  0  0  0  0  0  0  0  0  0  0  0
   -3.9247    0.1815   28.0280 C   0  0  0  0  0  0  0  0  0  0  0  0
   -3.3177   -0.6953   28.9485 C   0  0  0  0  0  0  0  0  0  0  0  0
   -2.0402   -1.0607   28.7884 C   0  0  0  0  0  0  0  0  0  0  0  0
   -1.4427   -1.8945   29.7378 C   0  0  0  0  0  0  0  0  0  0  0  0
   -4.0892   -1.1369   30.0870 C   0  0  0  0  0  0  0  0  0  0  0  0
   -3.4708   -1.9802   31.0174 C   0  0  0  0  0  0  0  0  0  0  0  0
   -2.1461   -2.3373   30.8752 C   0  0  0  0  0  0  0  0  0  0  0  0
  2  3  1  0
  6  8  1  0
  4 14  1  0
 14 15  2  3
 15 16  1  0
 14 22  1  0
 22 23  1  0
 23 24  2  3
 24 25  1  0
 25 26  2  0
 26 27  1  0
 27 30  2  0
 30 29  1  0
 29 28  2  0
 28 25  1  0
  1  2  2  0
  2  7  1  0
  7  6  2  0
  6  5  1  0
  5  4  2  0
  4  1  1  0
  8  9  2  0
  9 12  1  0
 12 13  2  0
 13 11  1  0
 11 10  2  0
 10  8  1  0
 16 17  2  0
 17 18  1  0
 18 19  2  0
 19 20  1  0
 20 21  2  0
 21 16  1  0
M  END
$$$$
