No_230-complexes_sdf/6BKW-FPZ/2024-09-17-14-21-01/
     RDKit          3D

 11 11  0  0  0  0  0  0  0  0999 V2000
   -7.7129    4.2099   27.0854 C   0  0  0  0  0  0  0  0  0  0  0  0
   -8.9133    4.4736   27.0998 C   0  0  0  0  0  0  0  0  0  0  0  0
   -9.7135    3.9633   26.0300 C   0  0  0  0  0  0  0  0  0  0  0  0
   -7.2585    2.8371   26.9278 C   0  0  0  0  0  0  0  0  0  0  0  0
   -9.4798    2.6045   25.7571 C   0  0  0  0  0  0  0  0  0  0  0  0
   -6.1287    2.2488   27.4739 C   0  0  0  0  0  0  0  0  0  0  0  0
   -8.2254    2.0254   26.2207 C   0  0  0  0  0  0  0  0  0  0  0  0
   -5.8368    1.1529   27.8986 C   0  0  0  0  0  0  0  0  0  0  0  0
   -4.5749    0.8093   28.4677 C   0  0  0  0  0  0  0  0  0  0  0  0
   -4.3212   -0.4801   28.9503 C   0  0  0  0  0  0  0  0  0  0  0  0
   -5.3176   -1.4382   28.8076 C   0  0  0  0  0  0  0  0  0  0  0  0
  1  2  1  0
  2  3  1  0
  1  4  1  0
  3  5  1  0
  4  6  1  0
  4  7  1  0
  5  7  1  0
  6  8  2  3
  8  9  1  0
  9 10  2  3
 10 11  1  0
M  END
$$$$
