No_2836-complexes_sdf/6BKW-FPZ/2024-09-17-14-21-01/
     RDKit          3D

 31 34  0  0  0  0  0  0  0  0999 V2000
   -7.7129    4.2099   27.0854 C   0  0  0  0  0  0  0  0  0  0  0  0
   -8.2112    3.0637   26.9225 C   0  0  0  0  0  0  0  0  0  0  0  0
   -8.5108    5.3904   26.9436 C   0  0  0  0  0  0  0  0  0  0  0  0
   -9.7256    5.1955   26.3518 C   0  0  0  0  0  0  0  0  0  0  0  0
   -9.4995    2.8258   26.4878 C   0  0  0  0  0  0  0  0  0  0  0  0
  -10.2542    3.9691   26.2055 C   0  0  0  0  0  0  0  0  0  0  0  0
   -7.9435    6.6171   27.1653 N   0  0  0  0  0  0  0  0  0  0  0  0
   -7.1823    1.9258   27.3075 C   0  0  0  0  0  0  0  0  0  0  0  0
   -6.0385    2.2571   27.7467 N   0  0  0  0  0  0  0  0  0  0  0  0
   -7.5379    0.5908   27.0449 C   0  0  0  0  0  0  0  0  0  0  0  0
   -6.5663   -0.3403   27.4138 C   0  0  0  0  0  0  0  0  0  0  0  0
   -5.3606    0.0076   27.9457 C   0  0  0  0  0  0  0  0  0  0  0  0
   -5.1220    1.4289   28.1181 C   0  0  0  0  0  0  0  0  0  0  0  0
   -4.3399   -0.9330   28.3798 C   0  0  0  0  0  0  0  0  0  0  0  0
   -3.2945   -0.6023   28.6649 C   0  0  0  0  0  0  0  0  0  0  0  0
   -2.9180    0.8686   28.8294 C   0  0  0  0  0  0  0  0  0  0  0  0
   -3.8216    1.7732   28.5478 C   0  0  0  0  0  0  0  0  0  0  0  0
   -8.5565    7.8282   26.7499 C   0  0  0  0  0  0  0  0  0  0  0  0
   -2.1798   -1.5384   29.1488 C   0  0  0  0  0  0  0  0  0  0  0  0
   -1.1456   -1.5103   28.6127 O   0  0  0  0  0  0  0  0  0  0  0  0
   -2.5993   -2.5553   29.8520 O   0  0  0  0  0  0  0  0  0  0  0  0
   -6.9603   -1.7561   27.2890 C   0  0  0  0  0  0  0  0  0  0  0  0
   -7.8599   -2.0977   26.5380 C   0  0  0  0  0  0  0  0  0  0  0  0
   -8.2809   -3.4289   26.4273 C   0  0  0  0  0  0  0  0  0  0  0  0
   -7.5931   -4.3568   27.1750 C   0  0  0  0  0  0  0  0  0  0  0  0
   -6.5827   -4.0281   28.0091 C   0  0  0  0  0  0  0  0  0  0  0  0
   -6.2490   -2.7354   28.1526 C   0  0  0  0  0  0  0  0  0  0  0  0
   -5.8914   -5.0684   28.7880 C   0  0  0  0  0  0  0  0  0  0  0  0
   -4.6690   -5.2330   28.6879 N   0  0  0  0  0  0  0  0  0  0  0  0
   -3.9547   -5.1749   27.8085 C   0  0  0  0  0  0  0  0  0  0  0  0
   -2.4894   -5.3323   27.9051 C   0  0  0  0  0  0  0  0  0  0  0  0
  3  7  1  0
  2  8  1  0
  7 18  1  0
 15 19  1  0
 19 20  2  0
 19 21  1  0
 11 22  1  0
 26 28  1  0
 28 29  1  0
 29 30  1  0
 30 31  2  0
 22 23  2  0
 23 24  1  0
 24 25  2  0
 25 26  1  0
 26 27  2  0
 27 22  1  0
 13 17  2  0
 17 16  1  0
 16 15  2  0
 15 14  1  0
 14 12  2  0
  1  2  2  0
  2  5  1  0
  5  6  2  0
  6  4  1  0
  4  3  2  0
  3  1  1  0
  8  9  2  0
  9 13  1  0
 13 12  1  0
 12 11  1  0
 11 10  2  0
 10  8  1  0
M  END
$$$$
