No_2569-complexes_sdf/6BKW-FPZ/2024-09-17-14-21-01/
     RDKit          3D

 19 21  0  0  0  0  0  0  0  0999 V2000
   -7.9040    3.9820   27.1177 C   0  0  0  0  0  0  0  0  0  0  0  0
   -8.2057    2.8231   26.8733 C   0  0  0  0  0  0  0  0  0  0  0  0
   -9.2962    2.4021   26.1155 C   0  0  0  0  0  0  0  0  0  0  0  0
   -6.8682    4.5169   28.0704 C   0  0  0  0  0  0  0  0  0  0  0  0
  -10.0578    3.3688   25.5520 C   0  0  0  0  0  0  0  0  0  0  0  0
   -9.6997    4.7480   25.6981 C   0  0  0  0  0  0  0  0  0  0  0  0
   -8.6783    5.1111   26.5262 C   0  0  0  0  0  0  0  0  0  0  0  0
   -8.2232    6.4105   26.9652 C   0  0  2  0  0  0  0  0  0  0  0  0
   -7.2660    6.1716   27.8733 N   0  0  0  0  0  0  0  0  0  0  0  0
   -8.6951    7.6704   26.7089 C   0  0  0  0  0  0  0  0  0  0  0  0
   -7.3481    1.6579   27.5032 C   0  0  0  0  0  0  0  0  0  0  0  0
   -6.7210    0.9994   26.8139 O   0  0  0  0  0  0  0  0  0  0  0  0
  -11.1451    3.1186   24.6042 C   0  0  0  0  0  0  0  0  0  0  0  0
  -11.0264    2.1168   23.7152 C   0  0  0  0  0  0  0  0  0  0  0  0
  -12.0452    1.8038   22.7670 C   0  0  0  0  0  0  0  0  0  0  0  0
  -13.1332    2.6692   22.7191 C   0  0  0  0  0  0  0  0  0  0  0  0
  -13.2199    3.7423   23.5767 C   0  0  0  0  0  0  0  0  0  0  0  0
  -12.2331    4.0339   24.5178 C   0  0  0  0  0  0  0  0  0  0  0  0
   -7.1889    1.7363   28.7825 O   0  0  0  0  0  0  0  0  0  0  0  0
  1  4  1  0
  7  8  1  0
  4  9  2  0
  8  9  1  0
  8 10  1  1
  2 11  1  0
 11 12  2  0
  5 13  1  0
 11 19  1  0
 13 14  2  0
 14 15  1  0
 15 16  2  0
 16 17  1  0
 17 18  2  0
 18 13  1  0
  1  2  2  0
  2  3  1  0
  3  5  2  0
  5  6  1  0
  6  7  2  0
  7  1  1  0
M  END
$$$$
