No_2489-complexes_sdf/6BKW-FPZ/2024-09-17-14-21-01/
     RDKit          3D

 26 29  0  0  0  0  0  0  0  0999 V2000
   -7.2496    3.8871   27.4508 C   0  0  1  0  0  0  0  0  0  0  0  0
   -8.5096    4.0291   27.2770 C   0  0  0  0  0  0  0  0  0  0  0  0
   -9.2677    5.1714   27.5773 C   0  0  0  0  0  0  0  0  0  0  0  0
   -6.5711    2.6400   27.2842 C   0  0  0  0  0  0  0  0  0  0  0  0
   -7.2939    1.5094   27.0532 C   0  0  1  0  0  0  0  0  0  0  0  0
   -8.6122    1.6580   26.7575 C   0  0  0  0  0  0  0  0  0  0  0  0
   -9.2984    2.8495   26.9904 C   0  0  0  0  0  0  0  0  0  0  0  0
   -8.5439    6.4004   27.5644 C   0  0  0  0  0  0  0  0  0  0  0  0
  -10.6456    5.1416   27.8945 C   0  0  0  0  0  0  0  0  0  0  0  0
   -6.5903    0.2717   26.8533 C   0  0  0  0  0  0  0  0  0  0  0  0
   -6.9614   -0.7714   27.7165 C   0  0  0  0  0  0  0  0  0  0  0  0
   -8.0932   -1.1513   27.9786 C   0  0  0  0  0  0  0  0  0  0  0  0
   -8.4748   -2.2324   28.8858 C   0  0  0  0  0  0  0  0  0  0  0  0
   -7.4290   -2.7788   29.6084 C   0  0  0  0  0  0  0  0  0  0  0  0
   -5.8703   -1.4255   28.4501 C   0  0  0  0  0  0  0  0  0  0  0  0
   -6.1171   -2.3973   29.3790 C   0  0  0  0  0  0  0  0  0  0  0  0
   -7.2122    6.4424   27.2694 C   0  0  0  0  0  0  0  0  0  0  0  0
   -6.5143    5.1847   27.4121 C   0  0  0  0  0  0  0  0  0  0  0  0
  -10.7142    2.8355   26.9923 C   0  0  0  0  0  0  0  0  0  0  0  0
  -11.3847    3.9917   27.5042 C   0  0  0  0  0  0  0  0  0  0  0  0
   -4.4696   -0.9768   28.2719 C   0  0  2  0  0  0  0  0  0  0  0  0
   -4.0038    0.0477   29.0979 C   0  0  0  0  0  0  0  0  0  0  0  0
   -3.7192   -1.4838   27.2539 C   0  0  0  0  0  0  0  0  0  0  0  0
   -4.4406    0.4587   30.1368 F   0  0  0  0  0  0  0  0  0  0  0  0
   -3.3289    1.1147   28.1915 C   0  0  0  0  0  0  0  0  0  0  0  0
   -2.7932   -0.6472   29.6278 F   0  0  0  0  0  0  0  0  0  0  0  0
  1  2  1  0
  2  3  2  0
  1  4  1  6
  4  5  1  0
  5  6  1  0
  2  7  1  0
  6  7  2  0
  3  8  1  0
  3  9  1  0
  5 10  1  6
 10 11  1  0
 11 12  2  0
 12 13  1  0
 13 14  2  0
 11 15  1  0
 14 16  1  0
 15 16  2  0
  8 17  2  0
  1 18  1  0
 17 18  1  0
  7 19  1  0
  9 20  2  0
 19 20  2  0
 15 21  1  0
 21 22  1  0
 21 23  1  6
 22 24  1  0
 22 25  1  0
 22 26  1  0
M  END
$$$$
