No_2813-complexes_sdf/6BKW-FPZ/2024-09-17-14-21-01/
     RDKit          3D

 40 45  0  0  0  0  0  0  0  0999 V2000
   -7.9040    3.9820   27.1177 C   0  0  0  0  0  0  0  0  0  0  0  0
   -8.2057    2.8231   26.8733 C   0  0  0  0  0  0  0  0  0  0  0  0
   -7.4766    1.7477   27.4593 C   0  0  0  0  0  0  0  0  0  0  0  0
   -8.7468    5.1251   26.6967 C   0  0  0  0  0  0  0  0  0  0  0  0
   -9.7234    4.8589   25.8202 C   0  0  0  0  0  0  0  0  0  0  0  0
   -9.9711    3.5858   25.4266 C   0  0  0  0  0  0  0  0  0  0  0  0
   -9.2266    2.4957   25.9600 C   0  0  0  0  0  0  0  0  0  0  0  0
   -7.8394    0.3721   27.3404 C   0  0  0  0  0  0  0  0  0  0  0  0
   -7.1362   -0.5937   27.9114 C   0  0  0  0  0  0  0  0  0  0  0  0
   -5.8557   -0.3307   28.4547 C   0  0  0  0  0  0  0  0  0  0  0  0
   -5.3585    0.9906   28.4093 C   0  0  0  0  0  0  0  0  0  0  0  0
   -6.0907    1.9632   27.9066 C   0  0  0  0  0  0  0  0  0  0  0  0
   -8.4206    6.5149   27.0993 C   0  0  0  0  0  0  0  0  0  0  0  0
   -7.9237    7.5824   27.0576 N   0  0  0  0  0  0  0  0  0  0  0  0
   -5.0316   -1.4240   29.0458 C   0  0  0  0  0  0  0  0  0  0  0  0
   -3.9917   -1.2274   29.3746 C   0  0  0  0  0  0  0  0  0  0  0  0
   -3.0961   -2.2352   30.0352 C   0  0  0  0  0  0  0  0  0  0  0  0
   -1.8007   -1.8923   30.5071 C   0  0  0  0  0  0  0  0  0  0  0  0
   -1.3115   -0.6347   30.2207 C   0  0  0  0  0  0  0  0  0  0  0  0
   -2.0612    0.2598   29.4274 C   0  0  0  0  0  0  0  0  0  0  0  0
   -3.2237    0.0168   29.1412 C   0  0  0  0  0  0  0  0  0  0  0  0
   -4.0219    1.0914   28.5880 N   0  0  0  0  0  0  0  0  0  0  0  0
   -5.8236   -2.6410   29.2910 C   0  0  2  0  0  0  0  0  0  0  0  0
   -6.6589   -2.6542   30.2927 N   0  0  0  0  0  0  0  0  0  0  0  0
   -6.4047   -2.5043   31.4973 C   0  0  0  0  0  0  0  0  0  0  0  0
   -8.1366   -2.7424   30.0082 C   0  0  0  0  0  0  0  0  0  0  0  0
   -7.3078   -2.5301   32.6213 C   0  0  0  0  0  0  0  0  0  0  0  0
   -9.0710   -2.8862   31.0291 C   0  0  0  0  0  0  0  0  0  0  0  0
   -6.8412   -2.4143   34.0007 C   0  0  0  0  0  0  0  0  0  0  0  0
   -8.6498   -2.7213   32.3155 C   0  0  0  0  0  0  0  0  0  0  0  0
   -7.3684   -3.0649   34.8897 O   0  0  0  0  0  0  0  0  0  0  0  0
   -5.8401   -1.5436   34.2465 O   0  0  0  0  0  0  0  0  0  0  0  0
   -5.5946   -3.6649   28.6298 F   0  0  0  0  0  0  0  0  0  0  0  0
   -4.6594   -1.9960   34.8583 C   0  0  0  0  0  0  0  0  0  0  0  0
   -3.6394   -1.1943   34.6176 C   0  0  0  0  0  0  0  0  0  0  0  0
   -2.3235   -1.7465   34.8353 C   0  0  0  0  0  0  0  0  0  0  0  0
   -1.1378   -1.0498   34.4324 C   0  0  0  0  0  0  0  0  0  0  0  0
   -1.3634    0.1818   33.6845 C   0  0  0  0  0  0  0  0  0  0  0  0
   -2.6289    0.5439   33.3118 C   0  0  0  0  0  0  0  0  0  0  0  0
   -3.6901   -0.1284   33.7467 C   0  0  0  0  0  0  0  0  0  0  0  0
  2  3  1  0
  4 13  1  0
 13 14  3  0
 15 23  1  0
 23 24  1  0
 24 25  1  0
 24 26  1  0
 27 29  1  0
 27 30  1  0
 28 30  1  0
 29 31  2  0
 29 32  1  0
 23 33  1  1
 32 34  1  0
 34 35  1  0
 25 27  1  0
 28 26  1  0
  1  2  2  0
  2  7  1  0
  7  6  2  0
  6  5  1  0
  5  4  2  0
  4  1  1  0
 11 22  1  0
 22 21  2  0
 16 15  2  0
 15 10  1  0
 35 36  2  0
 36 37  1  0
 37 38  2  0
 38 39  1  0
 39 40  2  0
 40 35  1  0
  3  8  2  0
  8  9  1  0
  9 10  2  0
 10 11  1  0
 11 12  2  0
 12  3  1  0
 16 17  1  0
 17 18  2  0
 18 19  1  0
 19 20  2  0
 20 21  1  0
 21 16  1  0
M  END
$$$$
