No_2634-complexes_sdf/6BKW-FPZ/2024-09-17-14-21-01/
     RDKit          3D

 22 24  0  0  0  0  0  0  0  0999 V2000
   -7.9040    3.9820   27.1177 C   0  0  0  0  0  0  0  0  0  0  0  0
   -8.2057    2.8231   26.8733 C   0  0  0  0  0  0  0  0  0  0  0  0
   -8.7695    5.0740   26.7916 C   0  0  0  0  0  0  0  0  0  0  0  0
   -9.9618    4.7598   26.1630 C   0  0  0  0  0  0  0  0  0  0  0  0
   -9.4200    2.4524   26.2849 C   0  0  0  0  0  0  0  0  0  0  0  0
  -10.2590    3.4815   25.9250 C   0  0  0  0  0  0  0  0  0  0  0  0
   -8.3840    6.4693   27.0829 C   0  0  0  0  0  0  0  0  0  0  0  0
   -7.7453    6.8270   28.1334 N   0  0  0  0  0  0  0  0  0  0  0  0
   -8.7748    7.4415   26.2636 N   0  0  0  0  0  0  0  0  0  0  0  0
   -7.2763    1.6719   27.2843 C   0  0  0  0  0  0  0  0  0  0  0  0
   -6.1159    1.9731   27.8356 N   0  0  0  0  0  0  0  0  0  0  0  0
   -7.3797    0.3516   26.8179 C   0  0  0  0  0  0  0  0  0  0  0  0
   -5.2319    0.9589   28.1276 C   0  0  0  0  0  0  0  0  0  0  0  0
   -5.3842   -0.2883   27.8472 C   0  0  0  0  0  0  0  0  0  0  0  0
   -4.4548   -1.2854   28.2373 C   0  0  0  0  0  0  0  0  0  0  0  0
   -6.5216   -0.6027   27.2145 C   0  0  0  0  0  0  0  0  0  0  0  0
   -3.9130   -1.5005   29.2190 C   0  0  0  0  0  0  0  0  0  0  0  0
   -2.8634   -2.4861   29.5527 C   0  0  0  0  0  0  0  0  0  0  0  0
   -2.5726   -3.3086   28.4884 C   0  0  0  0  0  0  0  0  0  0  0  0
   -4.1062   -2.1851   27.0822 C   0  0  0  0  0  0  0  0  0  0  0  0
   -4.7152   -1.9256   25.8108 C   0  0  0  0  0  0  0  0  0  0  0  0
   -3.0968   -3.1483   27.2029 C   0  0  0  0  0  0  0  0  0  0  0  0
  3  7  1  0
  7  8  1  0
  7  9  2  0
  2 10  1  0
 14 15  1  0
 20 21  1  0
 10 11  2  0
 11 13  1  0
 13 14  2  0
 14 16  1  0
 16 12  2  0
 12 10  1  0
  1  2  2  0
  2  5  1  0
  5  6  2  0
  6  4  1  0
  4  3  2  0
  3  1  1  0
 15 17  2  0
 17 18  1  0
 18 19  2  0
 19 22  1  0
 22 20  2  0
 20 15  1  0
M  END
$$$$
