No_264-complexes_sdf/6BKW-FPZ/2024-09-17-14-21-01/
     RDKit          3D

 18 20  0  0  0  0  0  0  0  0999 V2000
   -7.2496    3.8871   27.4508 C   0  0  0  0  0  0  0  0  0  0  0  0
   -7.6161    2.7143   27.1523 C   0  0  0  0  0  0  0  0  0  0  0  0
   -8.8302    2.4659   26.5056 C   0  0  0  0  0  0  0  0  0  0  0  0
   -8.1584    5.0089   27.3234 C   0  0  0  0  0  0  0  0  0  0  0  0
   -9.3788    4.7965   26.7695 C   0  0  0  0  0  0  0  0  0  0  0  0
   -9.7028    3.5649   26.3276 C   0  0  0  0  0  0  0  0  0  0  0  0
   -6.7182    1.5519   27.3631 C   0  0  0  0  0  0  0  0  0  0  0  0
   -7.0500    0.2083   27.2450 C   0  0  0  0  0  0  0  0  0  0  0  0
   -8.3879    0.0846   26.7095 C   0  0  0  0  0  0  0  0  0  0  0  0
   -9.2609    1.1266   26.3193 C   0  0  0  0  0  0  0  0  0  0  0  0
   -7.6950    6.3580   27.7810 C   0  0  0  0  0  0  0  0  0  0  0  0
   -8.4055    7.3948   27.3275 O   0  0  0  0  0  0  0  0  0  0  0  0
  -10.9846    3.3777   25.6124 C   0  0  0  0  0  0  0  0  0  0  0  0
  -11.0206    3.6407   24.2620 C   0  0  0  0  0  0  0  0  0  0  0  0
  -12.1471    3.6602   23.5271 C   0  0  0  0  0  0  0  0  0  0  0  0
  -12.1159    3.0142   26.2970 C   0  0  0  0  0  0  0  0  0  0  0  0
  -13.3355    3.0468   25.6059 C   0  0  0  0  0  0  0  0  0  0  0  0
  -13.3362    3.3957   24.2462 C   0  0  0  0  0  0  0  0  0  0  0  0
  4 11  1  0
 11 12  1  0
  6 13  1  0
 13 14  2  0
 14 15  1  0
 15 18  2  0
 18 17  1  0
 17 16  2  0
 16 13  1  0
  1  2  2  0
  3  6  2  0
  6  5  1  0
  5  4  2  0
  4  1  1  0
  2  3  1  0
  3 10  1  0
 10  9  2  0
  9  8  1  0
  8  7  2  0
  7  2  1  0
M  END
$$$$
