No_2190-complexes_sdf/6BKW-FPZ/2024-09-17-14-21-01/
     RDKit          3D

 26 29  0  0  0  0  0  0  0  0999 V2000
   -7.9040    3.9820   27.1177 C   0  0  0  0  0  0  0  0  0  0  0  0
   -8.2057    2.8231   26.8733 C   0  0  0  0  0  0  0  0  0  0  0  0
   -7.0130    4.3706   28.1140 C   0  0  0  0  0  0  0  0  0  0  0  0
   -7.3740    1.7588   27.2586 C   0  0  0  0  0  0  0  0  0  0  0  0
   -6.1366    2.1529   27.9510 C   0  0  0  0  0  0  0  0  0  0  0  0
   -5.9453    3.4605   28.2895 C   0  0  0  0  0  0  0  0  0  0  0  0
   -9.0324    4.9281   26.7309 C   0  0  0  0  0  0  0  0  0  0  0  0
   -9.6206    4.8357   25.4881 C   0  0  0  0  0  0  0  0  0  0  0  0
   -9.7351    3.5518   24.9275 C   0  0  0  0  0  0  0  0  0  0  0  0
   -9.0338    2.4255   25.6920 C   0  0  0  0  0  0  0  0  0  0  0  0
   -5.2866    0.9970   28.2471 C   0  0  0  0  0  0  0  0  0  0  0  0
   -4.0618    1.2723   28.7500 N   0  0  0  0  0  0  0  0  0  0  0  0
   -5.6199   -0.3517   28.2050 C   0  0  0  0  0  0  0  0  0  0  0  0
   -4.7573   -1.3072   28.6966 C   0  0  0  0  0  0  0  0  0  0  0  0
   -3.5259   -1.0207   29.1374 C   0  0  0  0  0  0  0  0  0  0  0  0
   -3.2046    0.3957   29.2110 C   0  0  0  0  0  0  0  0  0  0  0  0
  -10.5451    3.3155   23.8378 C   0  0  0  0  0  0  0  0  0  0  0  0
  -10.6478    2.2827   23.1362 C   0  0  0  0  0  0  0  0  0  0  0  0
  -11.3840    2.0820   21.8939 C   0  0  0  0  0  0  0  0  0  0  0  0
  -12.0820    3.2582   21.4640 C   0  0  0  0  0  0  0  0  0  0  0  0
  -11.9843    4.4430   22.1813 C   0  0  0  0  0  0  0  0  0  0  0  0
  -11.2061    4.5654   23.3288 C   0  0  0  0  0  0  0  0  0  0  0  0
   -2.5991   -2.0058   29.6603 C   0  0  0  0  0  0  0  0  0  0  0  0
   -1.2617   -2.3197   28.9314 Cl  0  0  0  0  0  0  0  0  0  0  0  0
   -2.2463   -1.7041   30.9589 F   0  0  0  0  0  0  0  0  0  0  0  0
   -3.3290   -3.1866   29.8793 F   0  0  0  0  0  0  0  0  0  0  0  0
  5 11  1  0
  9 17  1  0
 15 23  1  0
 23 24  1  0
 23 25  1  0
 23 26  1  0
  2  4  1  0
  4  5  2  0
  5  6  1  0
  6  3  2  0
  3  1  1  0
  1  2  2  0
  2 10  1  0
 10  9  2  0
  9  8  1  0
  8  7  2  0
  7  1  1  0
 17 18  2  0
 18 19  1  0
 19 20  2  0
 20 21  1  0
 21 22  2  0
 22 17  1  0
 11 12  2  0
 12 16  1  0
 16 15  2  0
 15 14  1  0
 14 13  2  0
 13 11  1  0
M  END
$$$$
