No_2967-complexes_sdf/6BKW-FPZ/2024-09-17-14-21-01/
     RDKit          3D

 18 20  0  0  0  0  0  0  0  0999 V2000
   -7.9040    3.9820   27.1177 C   0  0  0  0  0  0  0  0  0  0  0  0
   -7.8663    4.8694   27.9238 C   0  0  0  0  0  0  0  0  0  0  0  0
   -9.0491    3.8523   26.2542 C   0  0  0  0  0  0  0  0  0  0  0  0
   -8.7661    5.9491   27.9690 C   0  0  0  0  0  0  0  0  0  0  0  0
   -9.9295    4.8502   26.2323 C   0  0  0  0  0  0  0  0  0  0  0  0
   -9.8077    5.9288   27.0933 C   0  0  0  0  0  0  0  0  0  0  0  0
   -6.8002    2.6256   27.2024 Cl  0  0  0  0  0  0  0  0  0  0  0  0
   -9.1191    2.6984   25.2948 C   0  0  0  0  0  0  0  0  0  0  0  0
  -10.1024    2.8266   24.2781 C   0  0  0  0  0  0  0  0  0  0  0  0
  -10.3076    1.6856   23.4965 C   0  0  0  0  0  0  0  0  0  0  0  0
   -9.4500    0.5344   23.6353 C   0  0  0  0  0  0  0  0  0  0  0  0
   -8.5241    0.4953   24.6469 C   0  0  0  0  0  0  0  0  0  0  0  0
   -8.3514    1.5275   25.4862 C   0  0  0  0  0  0  0  0  0  0  0  0
   -7.4910   -0.8872   24.8680 Cl  0  0  0  0  0  0  0  0  0  0  0  0
  -11.1694    1.7209   22.4941 F   0  0  0  0  0  0  0  0  0  0  0  0
   -9.6795   -0.8784   22.4340 Br  0  0  0  0  0  0  0  0  0  0  0  0
  -10.8348    3.8451   24.0904 O   0  0  0  0  0  0  0  0  0  0  0  0
  -10.9868    5.0139   24.6872 C   0  0  0  0  0  0  0  0  0  0  0  0
  1  7  1  0
  3  8  1  0
 12 14  1  0
 10 15  1  0
 11 16  1  0
  9 17  1  0
  5 18  1  0
 17 18  1  0
  1  2  2  0
  2  4  1  0
  4  6  2  0
  6  5  1  0
  5  3  2  0
  3  1  1  0
  8  9  2  0
  9 10  1  0
 10 11  2  0
 11 12  1  0
 12 13  2  0
 13  8  1  0
M  END
$$$$
