No_203-complexes_sdf/6BKW-FPZ/2024-09-17-14-21-01/
     RDKit          3D

 15 16  0  0  0  0  0  0  0  0999 V2000
   -7.9040    3.9820   27.1177 C   0  0  0  0  0  0  0  0  0  0  0  0
   -8.2057    2.8231   26.8733 C   0  0  0  0  0  0  0  0  0  0  0  0
   -8.7695    5.0740   26.7916 C   0  0  1  0  0  0  0  0  0  0  0  0
   -8.4337    6.4678   27.0913 C   0  0  0  0  0  0  0  0  0  0  0  0
   -7.3775    1.6806   27.3986 C   0  0  0  0  0  0  0  0  0  0  0  0
   -7.6795    0.3394   27.2177 C   0  0  0  0  0  0  0  0  0  0  0  0
   -8.9653    0.1016   26.6342 C   0  0  0  0  0  0  0  0  0  0  0  0
   -9.7377    1.1060   26.1275 C   0  0  0  0  0  0  0  0  0  0  0  0
   -9.3779    2.4385   26.3040 C   0  0  0  0  0  0  0  0  0  0  0  0
   -9.3191    7.4968   26.6788 C   0  0  0  0  0  0  0  0  0  0  0  0
   -9.9150    4.8012   26.0094 C   0  0  0  0  0  0  0  0  0  0  0  0
  -10.2740    3.4485   25.8135 C   0  0  0  0  0  0  0  0  0  0  0  0
   -7.1404    6.7320   27.6931 C   0  0  0  0  0  0  0  0  0  0  0  0
   -6.7139   -0.8683   27.8648 Cl  0  0  0  0  0  0  0  0  0  0  0  0
  -11.3329    3.2374   25.1134 O   0  0  0  0  0  0  0  0  0  0  0  0
  1  2  1  0
  3  4  1  6
  4 10  2  0
  3 11  1  0
  9 12  1  0
 11 12  1  0
  4 13  1  0
  6 14  1  0
 12 15  2  0
  1  3  1  0
  2  5  2  0
  5  6  1  0
  6  7  2  0
  7  8  1  0
  8  9  2  0
  9  2  1  0
M  END
$$$$
