No_2046-complexes_sdf/6BKW-FPZ/2024-09-17-14-21-01/
     RDKit          3D

 16 17  0  0  0  0  0  0  0  0999 V2000
   -7.9040    3.9820   27.1177 C   0  0  0  0  0  0  0  0  0  0  0  0
   -9.0711    4.3164   27.0630 C   0  0  0  0  0  0  0  0  0  0  0  0
   -9.5182    5.5541   27.5777 C   0  0  0  0  0  0  0  0  0  0  0  0
   -6.9424    4.7983   27.8424 C   0  0  0  0  0  0  0  0  0  0  0  0
   -7.3526    5.9739   28.3909 C   0  0  0  0  0  0  0  0  0  0  0  0
   -8.6479    6.3742   28.2169 C   0  0  0  0  0  0  0  0  0  0  0  0
  -10.0621    3.4422   26.3345 C   0  0  0  0  0  0  0  0  0  0  0  0
   -9.6983    2.6787   25.4629 N   0  0  0  0  0  0  0  0  0  0  0  0
  -10.3804    2.1678   24.4096 C   0  0  0  0  0  0  0  0  0  0  0  0
  -10.9238    3.0029   23.6212 C   0  0  0  0  0  0  0  0  0  0  0  0
  -11.6746    2.8953   22.7405 C   0  0  0  0  0  0  0  0  0  0  0  0
  -11.8882    1.5794   22.1872 C   0  0  0  0  0  0  0  0  0  0  0  0
  -10.3115    0.8237   23.9993 C   0  0  0  0  0  0  0  0  0  0  0  0
  -11.1599    0.5521   22.8546 C   0  0  0  0  0  0  0  0  0  0  0  0
  -11.2887    3.7002   26.4593 O   0  0  0  0  0  0  0  0  0  0  0  0
  -12.8758    1.1260   20.6875 Br  0  0  0  0  0  0  0  0  0  0  0  0
  2  7  1  0
  7  8  1  0
  8  9  1  0
  7 15  2  0
 12 16  1  0
  1  2  2  0
  2  3  1  0
  3  6  2  0
  6  5  1  0
  5  4  2  0
  4  1  1  0
  9 10  2  0
 10 11  1  0
 11 12  2  0
 12 14  1  0
 14 13  2  0
 13  9  1  0
M  END
$$$$
