No_2953-complexes_sdf/6BKW-FPZ/2024-09-17-14-21-01/
     RDKit          3D

 16 17  0  0  0  0  0  0  0  0999 V2000
   -7.9040    3.9820   27.1177 C   0  0  0  0  0  0  0  0  0  0  0  0
   -7.8663    4.8694   27.9238 C   0  0  0  0  0  0  0  0  0  0  0  0
   -9.0491    3.8523   26.2542 C   0  0  0  0  0  0  0  0  0  0  0  0
   -8.7661    5.9491   27.9690 C   0  0  0  0  0  0  0  0  0  0  0  0
   -9.9295    4.8502   26.2323 C   0  0  0  0  0  0  0  0  0  0  0  0
   -9.8077    5.9288   27.0933 C   0  0  0  0  0  0  0  0  0  0  0  0
   -6.8002    2.6256   27.2024 Cl  0  0  0  0  0  0  0  0  0  0  0  0
   -9.0975    2.7884   25.3552 O   0  0  0  0  0  0  0  0  0  0  0  0
  -10.1093    2.7937   24.4191 C   0  0  0  0  0  0  0  0  0  0  0  0
  -11.1509    2.3481   24.8090 C   0  0  0  0  0  0  0  0  0  0  0  0
  -11.3456    1.6517   25.9264 C   0  0  0  0  0  0  0  0  0  0  0  0
  -12.6577    1.2035   26.4311 C   0  0  0  0  0  0  0  0  0  0  0  0
  -12.6207    0.5497   27.6567 C   0  0  0  0  0  0  0  0  0  0  0  0
  -11.4444    0.2541   28.4183 C   0  0  0  0  0  0  0  0  0  0  0  0
  -10.2209    0.7040   27.9105 C   0  0  0  0  0  0  0  0  0  0  0  0
  -10.1667    1.3196   26.8438 C   0  0  0  0  0  0  0  0  0  0  0  0
  1  7  1  0
  3  8  1  0
  8  9  1  0
  9 10  2  3
 10 11  1  0
 11 12  2  0
 12 13  1  0
 13 14  2  0
 14 15  1  0
 15 16  2  0
 16 11  1  0
  1  2  2  0
  2  4  1  0
  4  6  2  0
  6  5  1  0
  5  3  2  0
  3  1  1  0
M  END
$$$$
