No_2775-complexes_sdf/6BKW-FPZ/2024-09-17-14-21-01/
     RDKit          3D

 22 24  0  0  0  0  0  0  0  0999 V2000
   -7.9040    3.9820   27.1177 C   0  0  0  0  0  0  0  0  0  0  0  0
   -7.8663    4.8694   27.9238 C   0  0  0  0  0  0  0  0  0  0  0  0
   -9.0501    3.8017   26.2617 C   0  0  0  0  0  0  0  0  0  0  0  0
  -10.0189    4.7608   26.3707 C   0  0  0  0  0  0  0  0  0  0  0  0
   -8.6973    5.9722   27.8968 C   0  0  0  0  0  0  0  0  0  0  0  0
   -9.8216    5.8946   27.1241 C   0  0  0  0  0  0  0  0  0  0  0  0
   -9.1437    2.6293   25.4175 C   0  0  0  0  0  0  0  0  0  0  0  0
   -9.9828    2.7153   24.2925 C   0  0  0  0  0  0  0  0  0  0  0  0
  -10.1268    1.6091   23.5189 C   0  0  0  0  0  0  0  0  0  0  0  0
   -9.3057    0.4350   23.7675 C   0  0  0  0  0  0  0  0  0  0  0  0
   -8.4257    1.4363   25.5742 C   0  0  0  0  0  0  0  0  0  0  0  0
   -8.4905    0.4049   24.8177 C   0  0  0  0  0  0  0  0  0  0  0  0
   -7.6791   -0.7870   25.0655 C   0  0  0  0  0  0  0  0  0  0  0  0
   -6.9099   -0.8585   26.0657 N   0  0  0  0  0  0  0  0  0  0  0  0
   -7.2851   -0.3645   27.2003 C   0  0  0  0  0  0  0  0  0  0  0  0
   -6.4015   -0.5549   28.3601 C   0  0  0  0  0  0  0  0  0  0  0  0
   -5.2895   -0.4346   28.4212 C   0  0  0  0  0  0  0  0  0  0  0  0
   -4.4286   -0.5661   29.5945 C   0  0  0  0  0  0  0  0  0  0  0  0
   -3.1584    0.0605   29.7085 C   0  0  0  0  0  0  0  0  0  0  0  0
   -2.5638    0.4898   28.5058 C   0  0  0  0  0  0  0  0  0  0  0  0
   -4.4536    0.3522   27.3833 C   0  0  0  0  0  0  0  0  0  0  0  0
   -3.5018    0.6796   27.4482 N   0  0  0  0  0  0  0  0  0  0  0  0
  3  7  1  0
 12 13  1  0
 13 14  1  0
 14 15  1  0
 15 16  2  3
 16 17  1  0
  7  8  2  0
  8  9  1  0
  9 10  2  0
 10 12  1  0
 12 11  2  0
 11  7  1  0
 17 18  2  0
 18 19  1  0
 19 20  2  0
 20 22  1  0
 22 21  2  0
 21 17  1  0
  1  2  2  0
  2  5  1  0
  5  6  2  0
  6  4  1  0
  4  3  2  0
  3  1  1  0
M  END
$$$$
