No_2456-complexes_sdf/6BKW-FPZ/2024-09-17-14-21-01/
     RDKit          3D

 40 44  0  0  0  0  0  0  0  0999 V2000
   -7.2496    3.8871   27.4508 C   0  0  0  0  0  0  0  0  0  0  0  0
   -7.9379    4.9063   27.8518 C   0  0  0  0  0  0  0  0  0  0  0  0
   -7.5112    6.1898   27.6280 C   0  0  0  0  0  0  0  0  0  0  0  0
   -8.9846    4.6859   28.4892 C   0  0  0  0  0  0  0  0  0  0  0  0
   -7.6802    2.5416   27.3314 C   0  0  0  0  0  0  0  0  0  0  0  0
   -9.8817    3.7832   28.0267 C   0  0  0  0  0  0  0  0  0  0  0  0
   -7.1034    1.4504   26.7640 C   0  0  0  0  0  0  0  0  0  0  0  0
   -9.1447    2.4885   27.6951 C   0  0  0  0  0  0  0  0  0  0  0  0
   -6.0565    0.8224   27.6067 C   0  0  0  0  0  0  0  0  0  0  0  0
   -5.1172    1.4904   28.1773 C   0  0  0  0  0  0  0  0  0  0  0  0
   -4.0404    0.8334   28.8748 C   0  0  0  0  0  0  0  0  0  0  0  0
   -4.0754   -0.5265   29.0250 C   0  0  0  0  0  0  0  0  0  0  0  0
   -6.0220   -0.6342   27.6709 C   0  0  0  0  0  0  0  0  0  0  0  0
   -5.0808   -1.2782   28.4020 C   0  0  0  0  0  0  0  0  0  0  0  0
   -2.9957   -1.1910   29.8182 C   0  0  0  0  0  0  0  0  0  0  0  0
   -2.7207   -0.6394   31.2093 Cl  0  0  0  0  0  0  0  0  0  0  0  0
   -2.3008   -2.2494   29.3019 C   0  0  0  0  0  0  0  0  0  0  0  0
  -11.2325    3.5028   28.5624 C   0  0  0  0  0  0  0  0  0  0  0  0
  -12.2385    3.2913   27.6731 C   0  0  0  0  0  0  0  0  0  0  0  0
  -13.5676    3.2197   28.1144 C   0  0  0  0  0  0  0  0  0  0  0  0
  -14.6457    3.0948   27.2104 C   0  0  0  0  0  0  0  0  0  0  0  0
  -14.3256    3.0169   25.8398 C   0  0  0  0  0  0  0  0  0  0  0  0
  -13.0454    3.1790   25.3974 C   0  0  0  0  0  0  0  0  0  0  0  0
  -11.9979    3.3691   26.2674 C   0  0  0  0  0  0  0  0  0  0  0  0
   -7.6716    7.4443   27.1333 N   0  0  0  0  0  0  0  0  0  0  0  0
   -9.7540    1.3800   27.6087 F   0  0  0  0  0  0  0  0  0  0  0  0
   -1.4355   -2.6698   29.8501 C   0  0  0  0  0  0  0  0  0  0  0  0
   -0.2192   -2.9634   29.1519 C   0  0  0  0  0  0  0  0  0  0  0  0
   -0.2986   -3.1150   27.7258 C   0  0  0  0  0  0  0  0  0  0  0  0
   -1.4186   -2.5532   27.1105 C   0  0  0  0  0  0  0  0  0  0  0  0
   -2.3278   -1.9923   27.8711 C   0  0  0  0  0  0  0  0  0  0  0  0
   -3.6053   -1.1849   26.8608 Cl  0  0  0  0  0  0  0  0  0  0  0  0
   -5.3086   -2.4325   28.5685 O   0  0  0  0  0  0  0  0  0  0  0  0
   -6.2092   -2.9467   29.4526 C   0  0  0  0  0  0  0  0  0  0  0  0
   -7.1726   -3.3852   29.0623 C   0  0  0  0  0  0  0  0  0  0  0  0
   -8.3459   -3.6144   29.8990 C   0  0  0  0  0  0  0  0  0  0  0  0
   -8.1938   -3.4238   31.3025 C   0  0  0  0  0  0  0  0  0  0  0  0
   -6.9657   -2.9171   31.7546 C   0  0  0  0  0  0  0  0  0  0  0  0
   -5.9816   -2.5982   30.8786 C   0  0  0  0  0  0  0  0  0  0  0  0
   -6.8291   -2.6337   33.2265 C   0  0  0  0  0  0  0  0  0  0  0  0
  2  3  1  0
  5  7  1  0
  7  9  1  0
 12 15  1  0
 15 16  1  0
 15 17  1  0
  6 18  1  0
  3 25  3  0
  8 26  1  0
 31 32  1  0
 14 33  1  0
 33 34  1  0
 38 40  1  0
 18 19  1  0
 17 27  2  0
 27 28  1  0
 28 29  2  0
 29 30  1  0
 30 31  2  0
 31 17  1  0
 19 20  2  0
 20 21  1  0
 21 22  2  0
 22 23  1  0
 23 24  2  0
 24 19  1  0
  1  2  2  0
  2  4  1  0
  4  6  2  0
  6  8  1  0
  8  5  2  0
  5  1  1  0
 34 35  2  0
 35 36  1  0
 36 37  2  0
 37 38  1  0
 38 39  2  0
 39 34  1  0
  9 10  2  0
 10 11  1  0
 11 12  2  0
 12 14  1  0
 14 13  2  0
 13  9  1  0
M  END
$$$$
