No_2139-complexes_sdf/6BKW-FPZ/2024-09-17-14-21-01/
     RDKit          3D

 28 31  0  0  0  0  0  0  0  0999 V2000
   -7.9040    3.9820   27.1177 C   0  0  0  0  0  0  0  0  0  0  0  0
   -9.0711    4.3164   27.0630 C   0  0  0  0  0  0  0  0  0  0  0  0
   -9.8698    3.9665   25.9494 C   0  0  0  0  0  0  0  0  0  0  0  0
   -6.9515    4.6878   28.0207 C   0  0  0  0  0  0  0  0  0  0  0  0
  -11.1591    3.4833   26.0876 C   0  0  0  0  0  0  0  0  0  0  0  0
  -11.8798    3.8261   27.2705 C   0  0  0  0  0  0  0  0  0  0  0  0
  -11.1448    4.2455   28.4095 C   0  0  0  0  0  0  0  0  0  0  0  0
   -9.8033    4.3975   28.3535 C   0  0  0  0  0  0  0  0  0  0  0  0
   -7.5026    5.8007   28.6205 C   0  0  0  0  0  0  0  0  0  0  0  0
   -8.9299    5.9614   28.2565 C   0  0  0  0  0  0  0  0  0  0  0  0
  -11.9281    3.1953   24.8632 C   0  0  0  0  0  0  0  0  0  0  0  0
  -11.5558    3.3324   23.7434 C   0  0  0  0  0  0  0  0  0  0  0  0
  -10.2822    3.3740   23.3764 C   0  0  0  0  0  0  0  0  0  0  0  0
   -9.3879    3.8587   24.5740 C   0  0  0  0  0  0  0  0  0  0  0  0
  -13.3139    3.6520   27.4387 C   0  0  0  0  0  0  0  0  0  0  0  0
  -13.9847    3.9766   28.2243 N   0  0  0  0  0  0  0  0  0  0  0  0
  -15.3609    4.0062   28.3250 C   0  0  0  0  0  0  0  0  0  0  0  0
  -13.9942    3.1796   26.4125 O   0  0  0  0  0  0  0  0  0  0  0  0
  -16.0525    4.8781   29.3482 C   0  0  0  0  0  0  0  0  0  0  0  0
  -15.3070    4.8379   30.4482 C   0  0  0  0  0  0  0  0  0  0  0  0
  -15.7494    5.7224   31.5726 C   0  0  0  0  0  0  0  0  0  0  0  0
  -16.8604    6.4988   31.3354 C   0  0  0  0  0  0  0  0  0  0  0  0
  -17.5510    6.5049   30.1598 C   0  0  0  0  0  0  0  0  0  0  0  0
  -17.0753    5.6966   29.1211 C   0  0  0  0  0  0  0  0  0  0  0  0
  -16.1559    3.4650   27.6060 O   0  0  0  0  0  0  0  0  0  0  0  0
  -14.9981    5.7022   32.8523 C   0  0  0  0  0  0  0  0  0  0  0  0
  -15.2690    6.3917   33.7278 O   0  0  0  0  0  0  0  0  0  0  0  0
  -13.9793    4.8236   32.8936 O   0  0  0  0  0  0  0  0  0  0  0  0
  6 15  1  0
 15 16  1  0
 16 17  1  0
 15 18  2  0
 17 19  1  0
 17 25  2  0
 21 26  1  0
 26 27  1  0
 26 28  2  0
  2  3  1  0
  5  6  1  0
  6  7  2  0
  7  8  1  0
  1  2  2  0
  2  8  1  0
  8 10  2  0
 10  9  1  0
  9  4  2  0
  4  1  1  0
 19 20  2  0
 20 21  1  0
 21 22  2  0
 22 23  1  0
 23 24  2  0
 24 19  1  0
  3  5  2  0
  5 11  1  0
 11 12  2  0
 12 13  1  0
 13 14  2  0
 14  3  1  0
M  END
$$$$
