No_2325-complexes_sdf/6BKW-FPZ/2024-09-17-14-21-01/
     RDKit          3D

 24 27  0  0  0  0  0  0  0  0999 V2000
   -7.2496    3.8871   27.4508 C   0  0  0  0  0  0  0  0  0  0  0  0
   -7.6161    2.7143   27.1523 C   0  0  0  0  0  0  0  0  0  0  0  0
   -7.1618    1.8631   27.5232 C   0  0  0  0  0  0  0  0  0  0  0  0
   -8.0036    5.1085   27.2100 C   0  0  0  0  0  0  0  0  0  0  0  0
   -9.0765    5.1561   26.4023 C   0  0  0  0  0  0  0  0  0  0  0  0
   -9.7518    6.3235   26.1896 C   0  0  0  0  0  0  0  0  0  0  0  0
   -9.5203    3.9603   25.8137 C   0  0  0  0  0  0  0  0  0  0  0  0
   -8.8330    2.6678   26.2690 C   0  0  0  0  0  0  0  0  0  0  0  0
   -7.5536    0.4078   27.3528 C   0  0  0  0  0  0  0  0  0  0  0  0
   -8.8582    0.2032   27.1046 C   0  0  0  0  0  0  0  0  0  0  0  0
   -9.5472    1.4570   26.1264 C   0  0  0  0  0  0  0  0  0  0  0  0
   -8.9890    7.5019   26.6774 C   0  0  0  0  0  0  0  0  0  0  0  0
   -7.8175    7.4015   27.5223 C   0  0  0  0  0  0  0  0  0  0  0  0
   -7.3369    6.2637   27.7614 C   0  0  0  0  0  0  0  0  0  0  0  0
  -10.4968    3.8383   24.8087 C   0  0  0  0  0  0  0  0  0  0  0  0
  -11.8051    3.9350   25.1079 C   0  0  0  0  0  0  0  0  0  0  0  0
  -10.1020    3.6175   23.4850 C   0  0  0  0  0  0  0  0  0  0  0  0
  -12.8133    3.8570   24.1900 C   0  0  0  0  0  0  0  0  0  0  0  0
  -10.9894    3.6475   22.4310 C   0  0  0  0  0  0  0  0  0  0  0  0
  -12.3900    3.7957   22.8197 C   0  0  0  0  0  0  0  0  0  0  0  0
   -9.6005    1.0196   25.0760 O   0  0  0  0  0  0  0  0  0  0  0  0
   -9.6977   -0.7821   27.4650 C   0  0  0  0  0  0  0  0  0  0  0  0
   -9.2304   -1.8671   28.0401 C   0  0  0  0  0  0  0  0  0  0  0  0
   -7.7982   -1.9852   28.1987 C   0  0  0  0  0  0  0  0  0  0  0  0
  3  9  1  0
  8 11  1  0
 10 11  1  0
  7 15  1  0
 11 21  2  0
 10 22  1  0
 22 23  2  3
 23 24  1  0
  2  3  1  0
  9 10  1  0
  5  6  2  0
  6 12  1  0
 12 13  2  0
 13 14  1  0
 14  4  2  0
 15 16  2  0
 16 18  1  0
 18 20  2  0
 20 19  1  0
 19 17  2  0
 17 15  1  0
  1  2  2  0
  2  8  1  0
  8  7  2  0
  7  5  1  0
  5  4  1  0
  4  1  1  0
M  END
$$$$
