No_2161-complexes_sdf/6BKW-FPZ/2024-09-17-14-21-01/
     RDKit          3D

 17 18  0  0  0  0  0  0  0  0999 V2000
   -7.9040    3.9820   27.1177 C   0  0  0  0  0  0  0  0  0  0  0  0
   -7.8663    4.8694   27.9238 C   0  0  0  0  0  0  0  0  0  0  0  0
   -9.0501    3.8017   26.2617 C   0  0  0  0  0  0  0  0  0  0  0  0
  -10.0189    4.7608   26.3707 C   0  0  0  0  0  0  0  0  0  0  0  0
   -8.6973    5.9722   27.8968 C   0  0  0  0  0  0  0  0  0  0  0  0
   -9.8216    5.8946   27.1241 C   0  0  0  0  0  0  0  0  0  0  0  0
   -9.1437    2.6293   25.4175 C   0  0  0  0  0  0  0  0  0  0  0  0
   -8.6100    1.5009   25.7781 N   0  0  0  0  0  0  0  0  0  0  0  0
   -9.8595    2.6803   24.2027 C   0  0  0  0  0  0  0  0  0  0  0  0
   -7.9967    1.2733   26.9513 C   0  0  0  0  0  0  0  0  0  0  0  0
   -7.8904   -0.1505   27.3120 C   0  0  0  0  0  0  0  0  0  0  0  0
   -6.7127   -0.6659   27.7408 C   0  0  0  0  0  0  0  0  0  0  0  0
   -5.6315    0.2214   28.1077 C   0  0  0  0  0  0  0  0  0  0  0  0
   -5.7715    1.5967   27.7145 C   0  0  0  0  0  0  0  0  0  0  0  0
   -6.7402    1.9927   27.1579 C   0  0  0  0  0  0  0  0  0  0  0  0
   -7.0886    2.9177   27.3761 N   0  0  0  0  0  0  0  0  0  0  0  0
   -5.9220    3.7216   28.1234 C   0  0  0  0  0  0  0  0  0  0  0  0
  3  7  1  0
  7  8  2  3
  7  9  1  0
  8 10  1  0
  1 16  1  0
 16 17  1  0
  1  2  2  0
  2  5  1  0
  5  6  2  0
  6  4  1  0
  4  3  2  0
  3  1  1  0
 10 11  2  0
 11 12  1  0
 12 13  2  0
 13 14  1  0
 14 15  2  0
 15 10  1  0
M  END
$$$$
