No_2275-complexes_sdf/6BKW-FPZ/2024-09-17-14-21-01/
     RDKit          3D

 12 13  0  0  0  0  0  0  0  0999 V2000
   -7.9040    3.9820   27.1177 C   0  0  0  0  0  0  0  0  0  0  0  0
   -7.8663    4.8694   27.9238 C   0  0  0  0  0  0  0  0  0  0  0  0
   -9.0806    3.1428   27.1220 C   0  0  0  0  0  0  0  0  0  0  0  0
  -10.0227    3.4873   27.6685 C   0  0  0  0  0  0  0  0  0  0  0  0
  -10.1477    4.7268   28.4729 C   0  0  0  0  0  0  0  0  0  0  0  0
   -8.9684    5.4498   28.5292 C   0  0  0  0  0  0  0  0  0  0  0  0
   -8.9692    1.8522   26.3285 C   0  0  0  0  0  0  0  0  0  0  0  0
   -9.7467    1.6949   25.3181 C   0  0  0  0  0  0  0  0  0  0  0  0
   -9.5533    0.7075   24.3845 C   0  0  0  0  0  0  0  0  0  0  0  0
   -8.0774    0.8463   26.7651 C   0  0  0  0  0  0  0  0  0  0  0  0
   -7.8754   -0.2584   25.9374 C   0  0  0  0  0  0  0  0  0  0  0  0
   -8.6398   -0.3217   24.7656 C   0  0  0  0  0  0  0  0  0  0  0  0
  3  7  1  0
  1  2  2  0
  2  6  1  0
  6  5  2  0
  5  4  1  0
  4  3  2  0
  3  1  1  0
  7  8  2  0
  8  9  1  0
  9 12  2  0
 12 11  1  0
 11 10  2  0
 10  7  1  0
M  END
$$$$
