No_2867-complexes_sdf/6BKW-FPZ/2024-09-17-14-21-01/
     RDKit          3D

 34 39  0  0  0  0  0  0  0  0999 V2000
   -7.7129    4.2099   27.0854 C   0  0  0  0  0  0  0  0  0  0  0  0
   -8.9133    4.4736   27.0998 C   0  0  0  0  0  0  0  0  0  0  0  0
   -9.4616    5.6470   27.6290 C   0  0  0  0  0  0  0  0  0  0  0  0
   -6.8722    5.1130   27.9248 C   0  0  0  0  0  0  0  0  0  0  0  0
   -7.3801    6.2535   28.4126 C   0  0  0  0  0  0  0  0  0  0  0  0
   -8.6734    6.5530   28.2150 C   0  0  0  0  0  0  0  0  0  0  0  0
   -9.9642    3.5985   26.4507 C   0  0  1  0  0  0  0  0  0  0  0  0
   -9.5631    2.4337   26.1562 C   0  0  0  0  0  0  0  0  0  0  0  0
  -10.1955    1.5739   25.2019 C   0  0  0  0  0  0  0  0  0  0  0  0
   -9.6443    0.2929   24.9112 C   0  0  0  0  0  0  0  0  0  0  0  0
   -8.4826   -0.1311   25.5493 C   0  0  0  0  0  0  0  0  0  0  0  0
   -7.8759    0.6443   26.4966 C   0  0  0  0  0  0  0  0  0  0  0  0
   -8.3183    1.8744   26.7963 C   0  0  0  0  0  0  0  0  0  0  0  0
  -11.6861    3.6809   27.0445 Br  0  0  0  0  0  0  0  0  0  0  0  0
   -6.6582    0.1088   27.1969 C   0  0  0  0  0  0  0  0  0  0  0  0
   -5.5491    0.9238   27.4344 C   0  0  0  0  0  0  0  0  0  0  0  0
   -4.4535    0.5280   28.1887 C   0  0  0  0  0  0  0  0  0  0  0  0
   -4.4578   -0.6839   28.8881 C   0  0  0  0  0  0  0  0  0  0  0  0
   -5.6289   -1.4733   28.6993 C   0  0  0  0  0  0  0  0  0  0  0  0
   -6.7057   -1.0848   27.9176 C   0  0  0  0  0  0  0  0  0  0  0  0
   -3.3690   -1.0536   29.7768 C   0  0  0  0  0  0  0  0  0  0  0  0
   -3.2592   -0.4427   30.9444 N   0  0  0  0  0  0  0  0  0  0  0  0
   -2.5680   -1.0113   31.9918 C   0  0  0  0  0  0  0  0  0  0  0  0
   -2.4199   -1.8908   29.2955 C   0  0  0  0  0  0  0  0  0  0  0  0
   -1.6566   -2.0121   31.6595 C   0  0  0  0  0  0  0  0  0  0  0  0
   -1.5651   -2.4350   30.3116 C   0  0  0  0  0  0  0  0  0  0  0  0
   -2.6344   -0.2956   33.5199 Cl  0  0  0  0  0  0  0  0  0  0  0  0
   -5.6884   -2.7586   29.4199 C   0  0  0  0  0  0  0  0  0  0  0  0
   -6.5061   -3.4826   29.5492 C   0  0  0  0  0  0  0  0  0  0  0  0
   -6.4948   -4.7093   30.3071 C   0  0  0  0  0  0  0  0  0  0  0  0
   -5.3037   -5.0110   30.9165 C   0  0  0  0  0  0  0  0  0  0  0  0
   -4.2332   -4.2023   30.8331 C   0  0  0  0  0  0  0  0  0  0  0  0
   -4.3628   -3.0610   30.1321 C   0  0  0  0  0  0  0  0  0  0  0  0
   -3.3628   -3.0725   29.4867 O   0  0  0  0  0  0  0  0  0  0  0  0
  2  7  1  0
  7  8  1  0
  7 14  1  1
 12 15  1  0
 18 21  1  0
 23 27  1  0
 19 28  1  0
 24 34  1  0
 33 34  1  0
 15 16  2  0
 16 17  1  0
 17 18  2  0
 18 19  1  0
 19 20  2  0
 20 15  1  0
 21 22  2  0
 22 23  1  0
 23 25  2  0
 25 26  1  0
 26 24  2  0
 24 21  1  0
  1  2  2  0
  2  3  1  0
  3  6  2  0
  6  5  1  0
  5  4  2  0
  4  1  1  0
 28 29  2  0
 29 30  1  0
 30 31  2  0
 31 32  1  0
 32 33  2  0
 33 28  1  0
  8  9  2  0
  9 10  1  0
 10 11  2  0
 11 12  1  0
 12 13  2  0
 13  8  1  0
M  END
$$$$
