No_2746-complexes_sdf/6BKW-FPZ/2024-09-17-14-21-01/
     RDKit          3D

 30 32  0  0  0  0  0  0  0  0999 V2000
   -7.7129    4.2099   27.0854 C   0  0  0  0  0  0  0  0  0  0  0  0
   -8.2112    3.0637   26.9225 C   0  0  0  0  0  0  0  0  0  0  0  0
   -8.5108    5.3904   26.9436 C   0  0  0  0  0  0  0  0  0  0  0  0
   -7.9752    6.6981   27.2112 C   0  0  0  0  0  0  0  0  0  0  0  0
   -9.5213    2.8208   26.4688 C   0  0  0  0  0  0  0  0  0  0  0  0
  -10.2979    3.9327   26.2378 C   0  0  0  0  0  0  0  0  0  0  0  0
   -9.7894    5.2123   26.4395 C   0  0  0  0  0  0  0  0  0  0  0  0
   -7.3384    1.8199   27.1767 C   0  0  0  0  0  0  0  0  0  0  0  0
   -7.7124    0.5242   26.9346 C   0  0  0  0  0  0  0  0  0  0  0  0
   -6.9586   -0.5251   27.4123 C   0  0  0  0  0  0  0  0  0  0  0  0
   -5.7199   -0.2465   28.0171 C   0  0  0  0  0  0  0  0  0  0  0  0
   -5.2916    1.0731   28.2195 C   0  0  0  0  0  0  0  0  0  0  0  0
   -6.0579    2.0636   27.8826 C   0  0  0  0  0  0  0  0  0  0  0  0
   -8.0591    7.7943   26.6879 N   0  0  0  0  0  0  0  0  0  0  0  0
   -6.9668    6.6312   28.1714 O   0  0  0  0  0  0  0  0  0  0  0  0
   -4.8857   -1.4030   28.5075 C   0  0  0  0  0  0  0  0  0  0  0  0
   -3.7148   -1.4176   28.1455 C   0  0  0  0  0  0  0  0  0  0  0  0
   -5.4674   -2.3218   29.3909 C   0  0  0  0  0  0  0  0  0  0  0  0
   -5.0150   -3.4460   29.4921 C   0  0  0  0  0  0  0  0  0  0  0  0
   -2.9285   -2.6551   28.4507 C   0  0  0  0  0  0  0  0  0  0  0  0
   -3.6013   -3.6237   29.1836 C   0  0  0  0  0  0  0  0  0  0  0  0
  -11.6320    3.7869   25.6559 C   0  0  0  0  0  0  0  0  0  0  0  0
  -12.6124    4.1185   26.3412 F   0  0  0  0  0  0  0  0  0  0  0  0
  -11.8473    2.4675   25.3051 F   0  0  0  0  0  0  0  0  0  0  0  0
  -11.6848    4.4985   24.4776 F   0  0  0  0  0  0  0  0  0  0  0  0
   -2.7572   -5.0653   29.5393 Cl  0  0  0  0  0  0  0  0  0  0  0  0
   -2.8973   -0.3635   27.3751 C   0  0  0  0  0  0  0  0  0  0  0  0
   -3.3413    0.4516   26.4605 C   0  0  0  0  0  0  0  0  0  0  0  0
   -2.1390    0.5938   28.3571 C   0  0  0  0  0  0  0  0  0  0  0  0
   -1.6343   -1.1394   26.6716 C   0  0  0  0  0  0  0  0  0  0  0  0
  3  4  1  0
  2  8  1  0
  4 14  1  0
  4 15  2  0
 11 16  1  0
  6 22  1  0
 22 23  1  0
 22 24  1  0
 22 25  1  0
 21 26  1  0
 17 27  1  0
 27 28  1  0
 27 29  1  0
 27 30  1  0
 16 17  2  0
 17 20  1  0
 20 21  2  0
 21 19  1  0
 19 18  2  0
 18 16  1  0
  8  9  2  0
  9 10  1  0
 10 11  2  0
 11 12  1  0
 12 13  2  0
 13  8  1  0
  1  2  2  0
  2  5  1  0
  5  6  2  0
  6  7  1  0
  7  3  2  0
  3  1  1  0
M  END
$$$$
