No_2308-complexes_sdf/6BKW-FPZ/2024-09-17-14-21-01/
     RDKit          3D

 34 37  0  0  0  0  0  0  0  0999 V2000
   -7.7129    4.2099   27.0854 C   0  0  0  0  0  0  0  0  0  0  0  0
   -8.2112    3.0637   26.9225 C   0  0  0  0  0  0  0  0  0  0  0  0
   -8.5108    5.3904   26.9436 C   0  0  0  0  0  0  0  0  0  0  0  0
   -7.9752    6.6981   27.2112 C   0  0  0  0  0  0  0  0  0  0  0  0
   -9.5213    2.8208   26.4688 C   0  0  0  0  0  0  0  0  0  0  0  0
  -10.2979    3.9327   26.2378 C   0  0  0  0  0  0  0  0  0  0  0  0
   -9.7894    5.2123   26.4395 C   0  0  0  0  0  0  0  0  0  0  0  0
   -7.3451    1.8185   27.1796 C   0  0  0  0  0  0  0  0  0  0  0  0
   -7.7232    0.5262   26.9339 C   0  0  0  0  0  0  0  0  0  0  0  0
   -6.8979   -0.5152   27.3134 C   0  0  0  0  0  0  0  0  0  0  0  0
   -5.6407   -0.2250   27.8929 C   0  0  0  0  0  0  0  0  0  0  0  0
   -5.2530    1.0888   28.1418 C   0  0  0  0  0  0  0  0  0  0  0  0
   -6.0420    2.0747   27.8523 C   0  0  0  0  0  0  0  0  0  0  0  0
   -6.9341    6.8789   27.8752 N   0  0  0  0  0  0  0  0  0  0  0  0
   -8.5468    7.9045   26.5806 C   0  0  0  0  0  0  0  0  0  0  0  0
   -4.7594   -1.3609   28.3217 C   0  0  0  0  0  0  0  0  0  0  0  0
   -5.0155   -2.0566   29.3244 C   0  0  0  0  0  0  0  0  0  0  0  0
   -4.1254   -3.0032   29.8001 C   0  0  0  0  0  0  0  0  0  0  0  0
   -2.9058   -3.1622   29.1162 C   0  0  0  0  0  0  0  0  0  0  0  0
   -2.6023   -2.3932   28.0443 C   0  0  0  0  0  0  0  0  0  0  0  0
   -3.4941   -1.3190   27.6202 C   0  0  0  0  0  0  0  0  0  0  0  0
   -6.2725   -1.9149   30.1552 C   0  0  0  0  0  0  0  0  0  0  0  0
   -6.9422   -3.0473   30.5989 C   0  0  1  0  0  0  0  0  0  0  0  0
   -8.2519   -2.8791   31.1463 C   0  0  0  0  0  0  0  0  0  0  0  0
   -6.4886   -4.3528   30.4965 C   0  0  0  0  0  0  0  0  0  0  0  0
   -8.4146   -2.5090   32.4792 C   0  0  0  0  0  0  0  0  0  0  0  0
   -9.4127   -3.0136   30.3124 C   0  0  0  0  0  0  0  0  0  0  0  0
  -10.7059   -2.7612   30.7965 C   0  0  0  0  0  0  0  0  0  0  0  0
   -9.7815   -2.3422   33.0342 C   0  0  0  0  0  0  0  0  0  0  0  0
  -10.8425   -2.4813   32.2079 C   0  0  0  0  0  0  0  0  0  0  0  0
   -7.4179   -5.3610   30.6000 C   0  0  0  0  0  0  0  0  0  0  0  0
   -6.8730   -6.7036   30.4755 C   0  0  0  0  0  0  0  0  0  0  0  0
   -5.5548   -6.8278   30.2129 C   0  0  0  0  0  0  0  0  0  0  0  0
   -4.6749   -5.8715   30.0986 C   0  0  0  0  0  0  0  0  0  0  0  0
  3  4  1  0
  2  8  1  0
  4 14  2  0
  4 15  1  0
 11 16  1  0
 17 22  1  0
 23 22  1  6
 23 24  1  0
 23 25  1  0
 25 31  2  3
 31 32  1  0
 32 33  2  3
 33 34  1  0
 24 26  2  0
 26 29  1  0
 29 30  2  0
 30 28  1  0
 28 27  2  0
 27 24  1  0
  8  9  2  0
  9 10  1  0
 10 11  2  0
 11 12  1  0
 12 13  2  0
 13  8  1  0
  1  2  2  0
  2  5  1  0
  5  6  2  0
  6  7  1  0
  7  3  2  0
  3  1  1  0
 16 17  1  0
 17 18  2  0
 18 19  1  0
 19 20  2  0
 20 21  1  0
 21 16  2  0
M  END
$$$$
