No_2223-complexes_sdf/6BKW-FPZ/2024-09-17-14-21-01/
     RDKit          3D

 21 22  0  0  0  0  0  0  0  0999 V2000
   -7.2496    3.8871   27.4508 C   0  0  0  0  0  0  0  0  0  0  0  0
   -7.9379    4.9063   27.8518 C   0  0  0  0  0  0  0  0  0  0  0  0
   -9.3460    4.8223   27.8695 C   0  0  0  0  0  0  0  0  0  0  0  0
   -7.8014    2.6429   27.3269 C   0  0  0  0  0  0  0  0  0  0  0  0
   -9.2214    2.5325   27.3397 C   0  0  0  0  0  0  0  0  0  0  0  0
   -9.9608    3.6396   27.6640 C   0  0  0  0  0  0  0  0  0  0  0  0
   -7.0054    1.4964   26.9343 C   0  0  0  0  0  0  0  0  0  0  0  0
   -5.7571    1.7425   27.1911 F   0  0  0  0  0  0  0  0  0  0  0  0
   -7.3843    0.4128   27.7457 F   0  0  0  0  0  0  0  0  0  0  0  0
   -7.2182    1.0704   25.7194 F   0  0  0  0  0  0  0  0  0  0  0  0
   -7.4346    6.1128   28.1982 F   0  0  0  0  0  0  0  0  0  0  0  0
  -11.4403    3.4841   27.8202 C   0  0  0  0  0  0  0  0  0  0  0  0
  -11.9093    3.0937   29.0396 C   0  0  0  0  0  0  0  0  0  0  0  0
  -13.2660    2.9617   29.4301 C   0  0  0  0  0  0  0  0  0  0  0  0
  -14.1907    3.4339   28.4590 C   0  0  0  0  0  0  0  0  0  0  0  0
  -12.3357    4.0291   26.9395 C   0  0  0  0  0  0  0  0  0  0  0  0
  -13.7162    4.0369   27.2311 C   0  0  0  0  0  0  0  0  0  0  0  0
  -13.7425    2.4022   30.6772 C   0  0  0  0  0  0  0  0  0  0  0  0
  -13.5564    1.1491   30.7646 F   0  0  0  0  0  0  0  0  0  0  0  0
  -13.1013    3.0189   31.7586 F   0  0  0  0  0  0  0  0  0  0  0  0
  -15.0424    2.7215   30.8856 F   0  0  0  0  0  0  0  0  0  0  0  0
  4  7  1  0
  7  8  1  0
  7  9  1  0
  7 10  1  0
  2 11  1  0
  6 12  1  0
 14 18  1  0
 18 19  1  0
 18 20  1  0
 18 21  1  0
 12 13  2  0
 13 14  1  0
 14 15  2  0
 15 17  1  0
 17 16  2  0
 16 12  1  0
  1  2  2  0
  2  3  1  0
  3  6  2  0
  6  5  1  0
  5  4  2  0
  4  1  1  0
M  END
$$$$
