No_2718-complexes_sdf/6BKW-FPZ/2024-09-17-14-21-01/
     RDKit          3D

 29 31  0  0  0  0  0  0  0  0999 V2000
   -7.7129    4.2099   27.0854 C   0  0  0  0  0  0  0  0  0  0  0  0
   -8.2112    3.0637   26.9225 C   0  0  0  0  0  0  0  0  0  0  0  0
   -9.4446    2.8304   26.1868 C   0  0  0  0  0  0  0  0  0  0  0  0
   -8.4697    5.3956   26.7238 C   0  0  0  0  0  0  0  0  0  0  0  0
   -9.6172    5.2111   25.9513 C   0  0  0  0  0  0  0  0  0  0  0  0
  -10.0424    3.9782   25.6873 C   0  0  0  0  0  0  0  0  0  0  0  0
   -7.5056    1.8167   27.4088 C   0  0  0  0  0  0  0  0  0  0  0  0
   -8.0423    0.5366   27.2920 C   0  0  0  0  0  0  0  0  0  0  0  0
   -9.3616    0.5005   26.6856 C   0  0  0  0  0  0  0  0  0  0  0  0
   -9.9941    1.5661   26.0723 C   0  0  0  0  0  0  0  0  0  0  0  0
   -7.9443    6.7509   27.0093 C   0  0  0  0  0  0  0  0  0  0  0  0
   -8.4458    7.8346   26.4743 N   0  0  0  0  0  0  0  0  0  0  0  0
   -6.9458    6.8116   27.9434 N   0  0  0  0  0  0  0  0  0  0  0  0
   -7.3975   -0.5589   27.8849 C   0  0  0  0  0  0  0  0  0  0  0  0
   -6.0497   -0.4902   28.2050 C   0  0  0  0  0  0  0  0  0  0  0  0
   -5.3656   -1.5801   28.7670 C   0  0  0  0  0  0  0  0  0  0  0  0
   -6.1052   -2.7157   29.0123 C   0  0  0  0  0  0  0  0  0  0  0  0
   -7.9637   -1.7860   28.1721 C   0  0  0  0  0  0  0  0  0  0  0  0
   -7.3944   -2.7972   28.7683 C   0  0  0  0  0  0  0  0  0  0  0  0
  -11.2007    1.2942   25.4109 C   0  0  0  0  0  0  0  0  0  0  0  0
  -11.3103    1.5138   24.3821 N   0  0  0  0  0  0  0  0  0  0  0  0
  -12.3681    1.6413   23.6129 C   0  0  0  0  0  0  0  0  0  0  0  0
  -12.1396    0.8378   26.0970 O   0  0  0  0  0  0  0  0  0  0  0  0
  -12.2792    2.2748   22.4647 C   0  0  0  0  0  0  0  0  0  0  0  0
  -11.0951    2.6832   21.9108 C   0  0  0  0  0  0  0  0  0  0  0  0
  -10.9152    3.4531   20.7115 C   0  0  0  0  0  0  0  0  0  0  0  0
   -9.6419    3.9451   20.3072 C   0  0  0  0  0  0  0  0  0  0  0  0
  -12.0993    4.0285   20.2472 C   0  0  0  0  0  0  0  0  0  0  0  0
  -13.3363    3.6802   20.6405 C   0  0  0  0  0  0  0  0  0  0  0  0
  4 11  1  0
 11 12  2  0
 11 13  1  0
  8 14  1  0
 10 20  1  0
 20 21  1  0
 21 22  1  0
 20 23  2  0
 22 24  2  3
 24 25  1  0
 25 26  1  0
 26 27  2  0
 26 28  1  0
 28 29  1  0
 14 15  2  0
 15 16  1  0
 16 17  2  0
 17 19  1  0
 19 18  2  0
 18 14  1  0
  1  2  2  0
  3  6  2  0
  6  5  1  0
  5  4  2  0
  4  1  1  0
  2  3  1  0
  3 10  1  0
 10  9  2  0
  9  8  1  0
  8  7  2  0
  7  2  1  0
M  END
$$$$
