No_2293-complexes_sdf/6BKW-FPZ/2024-09-17-14-21-01/
     RDKit          3D

 29 32  0  0  0  0  0  0  0  0999 V2000
   -7.9040    3.9820   27.1177 C   0  0  0  0  0  0  0  0  0  0  0  0
   -9.0711    4.3164   27.0630 C   0  0  0  0  0  0  0  0  0  0  0  0
   -9.5294    5.4517   27.7215 C   0  0  0  0  0  0  0  0  0  0  0  0
   -6.9328    4.7309   27.8881 C   0  0  0  0  0  0  0  0  0  0  0  0
   -7.3377    5.8421   28.5537 C   0  0  0  0  0  0  0  0  0  0  0  0
   -8.6411    6.2609   28.3972 C   0  0  0  0  0  0  0  0  0  0  0  0
  -10.0467    3.4917   26.2630 C   0  0  1  0  0  0  0  0  0  0  0  0
   -9.6004    2.6685   25.4425 N   0  0  0  0  0  0  0  0  0  0  0  0
   -8.8122    1.8026   25.6406 C   0  0  0  0  0  0  0  0  0  0  0  0
   -9.9847    2.7422   24.0131 C   0  0  1  0  0  0  0  0  0  0  0  0
   -8.6224    0.6284   24.8358 C   0  0  0  0  0  0  0  0  0  0  0  0
   -9.8629    1.7085   23.1787 C   0  0  2  0  0  0  0  0  0  0  0  0
   -9.0140    0.7080   23.5451 C   0  0  0  0  0  0  0  0  0  0  0  0
  -11.0880    2.8762   27.1184 C   0  0  0  0  0  0  0  0  0  0  0  0
  -11.7653    2.0779   26.9460 C   0  0  0  0  0  0  0  0  0  0  0  0
  -11.9787    1.4525   25.6486 C   0  0  0  0  0  0  0  0  0  0  0  0
  -12.9155    0.8700   25.4934 C   0  0  0  0  0  0  0  0  0  0  0  0
  -13.6989    0.2784   26.5625 C   0  0  0  0  0  0  0  0  0  0  0  0
  -13.4780    0.6677   27.8639 C   0  0  0  0  0  0  0  0  0  0  0  0
  -12.5680    1.6030   28.0959 C   0  0  0  0  0  0  0  0  0  0  0  0
  -10.7230    3.8535   23.6674 N   0  0  0  0  0  0  0  0  0  0  0  0
  -10.7411    5.0390   24.2759 C   0  0  0  0  0  0  0  0  0  0  0  0
  -11.3318    3.7982   22.3770 C   0  0  2  0  0  0  0  0  0  0  0  0
  -12.1547    4.6036   21.9125 C   0  0  0  0  0  0  0  0  0  0  0  0
  -11.2474    2.5171   21.6846 C   0  0  0  0  0  0  0  0  0  0  0  0
  -10.3834    1.6654   21.9657 C   0  0  0  0  0  0  0  0  0  0  0  0
  -13.1746    0.1438   24.1506 C   0  0  0  0  0  0  0  0  0  0  0  0
  -12.5056   -0.8357   23.7148 C   0  0  0  0  0  0  0  0  0  0  0  0
  -12.7469   -1.3982   22.4631 C   0  0  0  0  0  0  0  0  0  0  0  0
  2  7  1  0
  7  8  1  0
  8  9  1  0
 10  8  1  1
 11 13  1  0
 12 13  1  6
  7 14  1  1
 10 21  1  0
 21 22  1  0
 21 23  1  0
 23 25  1  0
 12 26  1  0
 17 27  1  0
 27 28  2  3
 28 29  1  0
 23 24  1  1
 14 15  1  0
  9 11  1  0
 12 10  1  0
 26 25  1  0
 15 16  2  0
 16 17  1  0
 17 18  2  0
 18 19  1  0
 19 20  2  0
 20 15  1  0
  1  2  2  0
  2  3  1  0
  3  6  2  0
  6  5  1  0
  5  4  2  0
  4  1  1  0
M  END
$$$$
