No_2732-complexes_sdf/6BKW-FPZ/2024-09-17-14-21-01/
     RDKit          3D

 16 16  0  0  0  0  0  0  0  0999 V2000
   -7.9040    3.9820   27.1177 C   0  0  0  0  0  0  0  0  0  0  0  0
   -7.8663    4.8694   27.9238 C   0  0  0  0  0  0  0  0  0  0  0  0
   -9.0491    3.8523   26.2542 C   0  0  0  0  0  0  0  0  0  0  0  0
   -8.7661    5.9491   27.9690 C   0  0  0  0  0  0  0  0  0  0  0  0
   -9.1715    2.7136   25.4037 C   0  0  0  0  0  0  0  0  0  0  0  0
   -9.8832    5.8611   27.1405 C   0  0  0  0  0  0  0  0  0  0  0  0
  -10.0016    4.7998   26.3324 C   0  0  0  0  0  0  0  0  0  0  0  0
   -8.6322    1.5600   25.7340 N   0  0  0  0  0  0  0  0  0  0  0  0
   -8.5592    0.5045   24.9006 C   0  0  0  0  0  0  0  0  0  0  0  0
   -9.7519    2.8341   24.2954 O   0  0  0  0  0  0  0  0  0  0  0  0
   -9.2310    0.3206   23.9509 C   0  0  0  0  0  0  0  0  0  0  0  0
   -7.4981   -0.4309   25.3075 C   0  0  0  0  0  0  0  0  0  0  0  0
   -6.8607   -0.3385   26.4559 N   0  0  0  0  0  0  0  0  0  0  0  0
   -6.8364   -0.5909   27.5345 C   0  0  0  0  0  0  0  0  0  0  0  0
   -5.8923   -0.1908   28.5567 C   0  0  0  0  0  0  0  0  0  0  0  0
   -5.4593   -0.8844   29.7007 C   0  0  0  0  0  0  0  0  0  0  0  0
  3  5  1  0
  5  8  1  0
  8  9  1  0
  5 10  2  0
  9 11  1  0
  9 12  1  0
 12 13  1  0
 13 14  1  0
 14 15  2  3
 15 16  1  0
  1  2  2  0
  2  4  1  0
  4  6  2  0
  6  7  1  0
  7  3  2  0
  3  1  1  0
M  END
$$$$
