No_2709-complexes_sdf/6BKW-FPZ/2024-09-17-14-21-01/
     RDKit          3D

 25 27  0  0  0  0  0  0  0  0999 V2000
   -7.9040    3.9820   27.1177 C   0  0  0  0  0  0  0  0  0  0  0  0
   -8.2057    2.8231   26.8733 C   0  0  0  0  0  0  0  0  0  0  0  0
   -8.7695    5.0740   26.7916 C   0  0  0  0  0  0  0  0  0  0  0  0
   -8.4337    6.4678   27.0913 C   0  0  0  0  0  0  0  0  0  0  0  0
   -9.3742    2.4311   26.2346 C   0  0  0  0  0  0  0  0  0  0  0  0
  -10.2395    3.4267   25.8887 C   0  0  0  0  0  0  0  0  0  0  0  0
   -9.9717    4.8453   26.1440 C   0  0  0  0  0  0  0  0  0  0  0  0
   -7.9336    7.4984   26.9457 N   0  0  0  0  0  0  0  0  0  0  0  0
   -7.0875    1.5103   27.3765 Cl  0  0  0  0  0  0  0  0  0  0  0  0
  -11.5028    3.1294   25.1664 C   0  0  0  0  0  0  0  0  0  0  0  0
  -12.5066    2.6628   25.7526 N   0  0  0  0  0  0  0  0  0  0  0  0
  -13.6663    2.6004   25.4824 C   0  0  0  0  0  0  0  0  0  0  0  0
  -11.5715    3.3516   23.9040 O   0  0  0  0  0  0  0  0  0  0  0  0
  -14.4680    2.0932   26.2739 C   0  0  0  0  0  0  0  0  0  0  0  0
  -13.6589    1.8099   27.4089 C   0  0  1  0  0  0  0  0  0  0  0  0
  -13.9784    1.1750   28.7348 C   0  0  0  0  0  0  0  0  0  0  0  0
  -12.3631    2.1823   27.0718 C   0  0  0  0  0  0  0  0  0  0  0  0
  -14.3904    2.0297   29.7046 C   0  0  0  0  0  0  0  0  0  0  0  0
  -13.5916    3.1450   30.0228 C   0  0  0  0  0  0  0  0  0  0  0  0
  -13.9020    4.0394   31.1350 C   0  0  0  0  0  0  0  0  0  0  0  0
  -13.1823    4.9874   31.6074 C   0  0  0  0  0  0  0  0  0  0  0  0
  -15.3419    3.8122   31.4210 C   0  0  0  0  0  0  0  0  0  0  0  0
  -15.8134    4.7528   32.4970 C   0  0  0  0  0  0  0  0  0  0  0  0
  -15.0206    5.5551   33.1764 C   0  0  0  0  0  0  0  0  0  0  0  0
  -13.6441    5.6925   32.7628 C   0  0  0  0  0  0  0  0  0  0  0  0
  3  4  1  0
  4  8  3  0
  2  9  1  0
  6 10  1  0
 10 11  1  0
 11 12  1  0
 10 13  2  0
 12 14  2  0
 14 15  1  0
 15 16  1  6
 11 17  1  0
 15 17  1  0
 16 18  1  0
 18 19  2  3
 19 20  1  0
 20 21  2  0
 21 25  1  0
 25 24  2  0
 24 23  1  0
 23 22  2  0
 22 20  1  0
  1  2  2  0
  2  5  1  0
  5  6  2  0
  6  7  1  0
  7  3  2  0
  3  1  1  0
M  END
$$$$
