No_2681-complexes_sdf/6BKW-FPZ/2024-09-17-14-21-01/
     RDKit          3D

 14 15  0  0  0  0  0  0  0  0999 V2000
   -7.7129    4.2099   27.0854 C   0  0  0  0  0  0  0  0  0  0  0  0
   -7.7814    5.1722   27.8972 C   0  0  0  0  0  0  0  0  0  0  0  0
   -7.2983    2.9533   27.5684 C   0  0  0  0  0  0  0  0  0  0  0  0
   -7.6908    1.8111   26.9553 C   0  0  1  0  0  0  0  0  0  0  0  0
   -8.6533    1.9165   25.9430 C   0  0  0  0  0  0  0  0  0  0  0  0
   -9.2376    3.0581   25.6387 C   0  0  0  0  0  0  0  0  0  0  0  0
   -8.7036    4.1866   26.1364 C   0  0  0  0  0  0  0  0  0  0  0  0
   -8.1958    6.4843   27.5576 N   0  0  0  0  0  0  0  0  0  0  0  0
   -9.2451    6.6960   26.7500 C   0  0  0  0  0  0  0  0  0  0  0  0
   -9.4809    5.4807   25.8917 C   0  0  0  0  0  0  0  0  0  0  0  0
   -7.0459    0.5305   27.2436 C   0  0  0  0  0  0  0  0  0  0  0  0
   -5.8139    0.4694   27.9283 C   0  0  0  0  0  0  0  0  0  0  0  0
   -4.8669    1.4456   27.8702 C   0  0  0  0  0  0  0  0  0  0  0  0
   -3.5847    1.2493   28.5024 C   0  0  0  0  0  0  0  0  0  0  0  0
  1  3  1  0
  3  4  1  0
  4  5  1  0
  5  6  1  0
  6  7  1  0
  4 11  1  6
 11 12  1  0
 12 13  2  3
 13 14  1  0
  1  2  2  0
  2  8  1  0
  8  9  2  0
  9 10  1  0
 10  7  2  0
  7  1  1  0
M  END
$$$$
