No_2944-complexes_sdf/6BKW-FPZ/2024-09-17-14-21-01/
     RDKit          3D

 16 17  0  0  0  0  0  0  0  0999 V2000
   -7.9040    3.9820   27.1177 C   0  0  0  0  0  0  0  0  0  0  0  0
   -9.0711    4.3164   27.0630 C   0  0  0  0  0  0  0  0  0  0  0  0
   -9.8698    3.9665   25.9494 C   0  0  0  0  0  0  0  0  0  0  0  0
   -7.4046    2.7946   26.4568 C   0  0  0  0  0  0  0  0  0  0  0  0
   -8.3659    2.1310   25.6816 C   0  0  0  0  0  0  0  0  0  0  0  0
   -9.5390    2.7825   25.4030 C   0  0  0  0  0  0  0  0  0  0  0  0
   -7.0337    4.5113   28.0309 F   0  0  0  0  0  0  0  0  0  0  0  0
  -10.4614    2.1682   24.3762 C   0  0  0  0  0  0  0  0  0  0  0  0
  -10.8720    2.6602   23.3726 C   0  0  0  0  0  0  0  0  0  0  0  0
  -11.6965    2.0549   22.3498 C   0  0  0  0  0  0  0  0  0  0  0  0
  -11.9958    0.7023   22.5679 C   0  0  0  0  0  0  0  0  0  0  0  0
  -10.7860    0.7141   24.4500 C   0  0  0  0  0  0  0  0  0  0  0  0
  -11.5009    0.0797   23.5981 C   0  0  0  0  0  0  0  0  0  0  0  0
   -9.4214    5.7276   27.6556 C   0  0  0  0  0  0  0  0  0  0  0  0
  -10.6120    4.0591   23.0392 O   0  0  0  0  0  0  0  0  0  0  0  0
  -11.0637    5.0583   23.7725 C   0  0  0  0  0  0  0  0  0  0  0  0
  1  7  1  0
  6  8  1  0
  2 14  1  0
  9 15  1  0
 15 16  1  0
  1  2  2  0
  2  3  1  0
  3  6  2  0
  6  5  1  0
  5  4  2  0
  4  1  1  0
  8  9  2  0
  9 10  1  0
 10 11  2  0
 11 13  1  0
 13 12  2  0
 12  8  1  0
M  END
$$$$
