No_2888-complexes_sdf/6BKW-FPZ/2024-09-17-14-21-01/
     RDKit          3D

 17 17  0  0  0  0  0  0  0  0999 V2000
   -7.9040    3.9820   27.1177 C   0  0  0  0  0  0  0  0  0  0  0  0
   -7.8663    4.8694   27.9238 C   0  0  0  0  0  0  0  0  0  0  0  0
   -9.0491    3.8523   26.2542 C   0  0  0  0  0  0  0  0  0  0  0  0
   -8.7661    5.9491   27.9690 C   0  0  0  0  0  0  0  0  0  0  0  0
   -9.9295    4.8502   26.2323 C   0  0  0  0  0  0  0  0  0  0  0  0
   -9.8077    5.9288   27.0933 C   0  0  0  0  0  0  0  0  0  0  0  0
   -6.8002    2.6256   27.2024 Cl  0  0  0  0  0  0  0  0  0  0  0  0
   -9.1478    2.4012   25.0292 Br  0  0  0  0  0  0  0  0  0  0  0  0
  -10.8697    4.6921   25.2553 O   0  0  0  0  0  0  0  0  0  0  0  0
  -10.6274    4.7596   23.9423 C   0  0  0  0  0  0  0  0  0  0  0  0
  -11.7719    4.5333   23.1137 C   0  0  0  0  0  0  0  0  0  0  0  0
  -12.0820    3.3501   23.1266 F   0  0  0  0  0  0  0  0  0  0  0  0
  -12.7369    5.3504   23.5286 F   0  0  0  0  0  0  0  0  0  0  0  0
  -11.4822    4.9817   21.8757 F   0  0  0  0  0  0  0  0  0  0  0  0
   -6.8045    5.0487   28.7983 F   0  0  0  0  0  0  0  0  0  0  0  0
   -9.7124    3.9339   23.6355 F   0  0  0  0  0  0  0  0  0  0  0  0
   -9.8732    5.9069   23.7001 F   0  0  0  0  0  0  0  0  0  0  0  0
  1  7  1  0
  3  8  1  0
  5  9  1  0
  9 10  1  0
 10 11  1  0
 11 12  1  0
 11 13  1  0
 11 14  1  0
  2 15  1  0
 10 16  1  0
 10 17  1  0
  1  2  2  0
  2  4  1  0
  4  6  2  0
  6  5  1  0
  5  3  2  0
  3  1  1  0
M  END
$$$$
