No_291-complexes_sdf/6BKW-FPZ/2024-09-17-14-21-01/
     RDKit          3D

 11 11  0  0  0  0  0  0  0  0999 V2000
   -7.9040    3.9820   27.1177 C   0  0  0  0  0  0  0  0  0  0  0  0
   -7.8663    4.8694   27.9238 C   0  0  0  0  0  0  0  0  0  0  0  0
   -7.4698    2.6989   27.4277 C   0  0  0  0  0  0  0  0  0  0  0  0
   -7.9683    1.5964   26.8266 C   0  0  0  0  0  0  0  0  0  0  0  0
   -7.5288    0.3101   27.1202 C   0  0  0  0  0  0  0  0  0  0  0  0
   -6.3497    0.1847   27.8178 C   0  0  0  0  0  0  0  0  0  0  0  0
   -5.8488   -1.1236   28.1986 C   0  0  0  0  0  0  0  0  0  0  0  0
   -6.6869   -2.1477   27.8929 C   0  0  0  0  0  0  0  0  0  0  0  0
   -7.8543   -2.0412   27.2347 C   0  0  0  0  0  0  0  0  0  0  0  0
   -8.2693   -0.7739   26.8895 C   0  0  0  0  0  0  0  0  0  0  0  0
   -8.6321    6.0526   27.7940 C   0  0  0  0  0  0  0  0  0  0  0  0
  1  2  2  3
  1  3  1  0
  3  4  1  0
  4  5  1  0
  2 11  1  0
  5  6  2  0
  6  7  1  0
  7  8  2  0
  8  9  1  0
  9 10  2  0
 10  5  1  0
M  END
$$$$
