No_2465-complexes_sdf/6BKW-FPZ/2024-09-17-14-21-01/
     RDKit          3D

 17 19  0  0  0  0  0  0  0  0999 V2000
   -7.2496    3.8871   27.4508 C   0  0  0  0  0  0  0  0  0  0  0  0
   -7.9379    4.9063   27.8518 C   0  0  0  0  0  0  0  0  0  0  0  0
   -9.3460    4.8223   27.8695 C   0  0  0  0  0  0  0  0  0  0  0  0
   -7.8628    2.6163   27.1065 C   0  0  0  0  0  0  0  0  0  0  0  0
   -7.1773    1.4959   26.7593 C   0  0  0  0  0  0  0  0  0  0  0  0
   -9.2781    2.5892   27.1482 C   0  0  0  0  0  0  0  0  0  0  0  0
   -9.9152    1.3696   26.8084 C   0  0  0  0  0  0  0  0  0  0  0  0
  -10.0185    3.6972   27.5880 C   0  0  0  0  0  0  0  0  0  0  0  0
   -9.2165    0.2500   26.6021 C   0  0  0  0  0  0  0  0  0  0  0  0
   -7.8078    0.3166   26.5263 C   0  0  0  0  0  0  0  0  0  0  0  0
   -7.3577    6.1020   28.1238 O   0  0  0  0  0  0  0  0  0  0  0  0
  -11.4161    3.8112   27.4482 C   0  0  0  0  0  0  0  0  0  0  0  0
  -12.0224    4.3176   26.4377 C   0  0  0  0  0  0  0  0  0  0  0  0
  -13.3457    4.1523   26.1561 C   0  0  0  0  0  0  0  0  0  0  0  0
  -14.2107    3.6461   27.1303 C   0  0  0  0  0  0  0  0  0  0  0  0
  -12.2739    3.4557   28.6220 C   0  0  0  0  0  0  0  0  0  0  0  0
  -13.6377    3.3542   28.4635 C   0  0  0  0  0  0  0  0  0  0  0  0
  2 11  1  0
  8 12  1  0
 12 13  2  0
 13 14  1  0
 14 15  2  0
 15 17  1  0
 17 16  2  0
 16 12  1  0
  4  5  2  0
  5 10  1  0
 10  9  2  0
  9  7  1  0
  7  6  2  0
  1  2  2  0
  2  3  1  0
  3  8  2  0
  8  6  1  0
  6  4  1  0
  4  1  1  0
M  END
$$$$
