No_2657-complexes_sdf/6BKW-FPZ/2024-09-17-14-21-01/
     RDKit          3D

 30 36  0  0  0  0  0  0  0  0999 V2000
   -7.2496    3.8871   27.4508 C   0  0  0  0  0  0  0  0  0  0  0  0
   -7.6161    2.7143   27.1523 C   0  0  0  0  0  0  0  0  0  0  0  0
   -6.9719    1.5838   27.5324 C   0  0  0  0  0  0  0  0  0  0  0  0
   -7.4590    0.2827   27.2615 C   0  0  0  0  0  0  0  0  0  0  0  0
   -8.6787    2.5578   26.1663 C   0  0  0  0  0  0  0  0  0  0  0  0
   -9.4717    3.6665   25.8354 C   0  0  0  0  0  0  0  0  0  0  0  0
   -8.0188    5.1137   27.1696 C   0  0  0  0  0  0  0  0  0  0  0  0
   -9.0768    4.9942   26.2941 C   0  0  0  0  0  0  0  0  0  0  0  0
   -8.6007    0.1798   26.4770 C   0  0  0  0  0  0  0  0  0  0  0  0
   -9.2253    1.3161   25.8951 C   0  0  0  0  0  0  0  0  0  0  0  0
   -7.5171    6.6402   27.7665 Cl  0  0  0  0  0  0  0  0  0  0  0  0
   -6.8166   -0.8817   27.8596 C   0  0  0  0  0  0  0  0  0  0  0  0
   -5.5324   -0.7858   28.2231 C   0  0  0  0  0  0  0  0  0  0  0  0
   -4.9367    0.5580   28.3731 C   0  0  0  0  0  0  0  0  0  0  0  0
   -5.6182    1.6532   28.1120 C   0  0  0  0  0  0  0  0  0  0  0  0
   -3.5478    0.6767   29.0086 C   0  0  0  0  0  0  0  0  0  0  0  0
   -2.9329   -0.6180   29.4535 C   0  0  0  0  0  0  0  0  0  0  0  0
   -2.3448   -0.7705   30.2579 C   0  0  0  0  0  0  0  0  0  0  0  0
   -1.6041   -2.0277   30.6210 C   0  0  0  0  0  0  0  0  0  0  0  0
   -1.7489   -3.0207   29.7215 C   0  0  0  0  0  0  0  0  0  0  0  0
   -2.9625   -1.7616   28.5047 C   0  0  0  0  0  0  0  0  0  0  0  0
   -2.3278   -2.8487   28.6786 C   0  0  0  0  0  0  0  0  0  0  0  0
   -4.2914   -1.6848   27.6190 C   0  0  0  0  0  0  0  0  0  0  0  0
  -10.3401    1.0635   25.0369 C   0  0  0  0  0  0  0  0  0  0  0  0
  -10.5218   -0.0291   24.2794 C   0  0  0  0  0  0  0  0  0  0  0  0
  -11.5566   -0.1741   23.3789 C   0  0  0  0  0  0  0  0  0  0  0  0
  -12.3706    0.9232   23.1295 C   0  0  0  0  0  0  0  0  0  0  0  0
  -12.1787    2.1167   23.7988 C   0  0  0  0  0  0  0  0  0  0  0  0
  -11.1717    2.2699   24.7544 C   0  0  0  0  0  0  0  0  0  0  0  0
  -10.6479    3.4832   25.0424 C   0  0  0  0  0  0  0  0  0  0  0  0
  7 11  1  0
 14 16  1  0
 16 17  1  0
 13 23  1  0
 21 23  1  0
 10 24  1  0
  6 30  1  0
 29 30  1  0
  4 12  2  0
 12 13  1  0
 13 14  2  0
 14 15  1  0
 15  3  2  0
 17 18  2  0
 18 19  1  0
 19 20  2  0
 20 22  1  0
 22 21  2  0
 21 17  1  0
 24 25  2  0
 25 26  1  0
 26 27  2  0
 27 28  1  0
 28 29  2  0
 29 24  1  0
  2  3  1  0
  3  4  1  0
  4  9  1  0
  9 10  2  0
 10  5  1  0
  1  2  2  0
  2  5  1  0
  5  6  2  0
  6  8  1  0
  8  7  2  0
  7  1  1  0
M  END
$$$$
