No_2793-complexes_sdf/6BKW-FPZ/2024-09-17-14-21-01/
     RDKit          3D

 26 30  0  0  0  0  0  0  0  0999 V2000
   -7.2496    3.8871   27.4508 C   0  0  0  0  0  0  0  0  0  0  0  0
   -7.6161    2.7143   27.1523 C   0  0  0  0  0  0  0  0  0  0  0  0
   -8.6212    2.2239   26.4073 C   0  0  0  0  0  0  0  0  0  0  0  0
   -8.2540    4.9237   27.1711 C   0  0  0  0  0  0  0  0  0  0  0  0
   -9.3729    4.5806   26.4432 C   0  0  0  0  0  0  0  0  0  0  0  0
   -9.5830    3.2969   26.1025 C   0  0  0  0  0  0  0  0  0  0  0  0
   -7.9304    6.3207   27.5389 C   0  0  0  0  0  0  0  0  0  0  0  0
   -8.8339    7.2764   27.1605 N   0  0  0  0  0  0  0  0  0  0  0  0
   -8.8826    0.8863   26.0564 C   0  0  0  0  0  0  0  0  0  0  0  0
   -9.0995    0.5431   24.9141 C   0  0  0  0  0  0  0  0  0  0  0  0
   -9.2207    1.5772   23.8602 C   0  0  0  0  0  0  0  0  0  0  0  0
   -9.7149    2.8452   24.3079 C   0  0  0  0  0  0  0  0  0  0  0  0
   -7.1123    6.5568   28.4541 O   0  0  0  0  0  0  0  0  0  0  0  0
  -10.1936    3.9637   23.5444 C   0  0  0  0  0  0  0  0  0  0  0  0
  -10.6105    3.6490   22.2489 C   0  0  0  0  0  0  0  0  0  0  0  0
  -10.1896    2.3435   21.7949 C   0  0  0  0  0  0  0  0  0  0  0  0
   -9.7004    1.3379   22.5516 C   0  0  0  0  0  0  0  0  0  0  0  0
   -9.3305   -0.0000   27.2574 C   0  0  0  0  0  0  0  0  0  0  0  0
   -8.4362   -0.9319   27.6476 C   0  0  0  0  0  0  0  0  0  0  0  0
   -7.0796   -0.7920   27.5764 C   0  0  0  0  0  0  0  0  0  0  0  0
   -6.2860   -1.2841   27.9900 C   0  0  0  0  0  0  0  0  0  0  0  0
   -4.8079   -0.9767   27.9352 C   0  0  0  0  0  0  0  0  0  0  0  0
   -4.4615    0.1184   27.1427 C   0  0  0  0  0  0  0  0  0  0  0  0
   -5.5008    0.7631   26.5502 C   0  0  0  0  0  0  0  0  0  0  0  0
   -6.7261    0.4511   26.7256 C   0  0  0  0  0  0  0  0  0  0  0  0
   -7.1119    1.7700   27.1514 O   0  0  0  0  0  0  0  0  0  0  0  0
  4  7  1  0
  7  8  1  0
  7 13  2  0
  9 18  1  0
 18 19  1  0
 19 20  1  0
  2 26  1  0
 25 26  1  0
  6 12  2  0
 11 10  2  0
 10  9  1  0
  9  3  2  0
  1  2  2  0
  2  3  1  0
  3  6  1  0
  6  5  1  0
  5  4  2  0
  4  1  1  0
 20 21  2  0
 21 22  1  0
 22 23  2  0
 23 24  1  0
 24 25  2  0
 25 20  1  0
 11 12  1  0
 12 14  1  0
 14 15  2  0
 15 16  1  0
 16 17  2  0
 17 11  1  0
M  END
$$$$
