No_2372-complexes_sdf/6BKW-FPZ/2024-09-17-14-21-01/
     RDKit          3D

 27 29  0  0  0  0  0  0  0  0999 V2000
   -7.9040    3.9820   27.1177 C   0  0  0  0  0  0  0  0  0  0  0  0
   -7.8663    4.8694   27.9238 C   0  0  0  0  0  0  0  0  0  0  0  0
   -7.4547    2.7080   27.4594 C   0  0  0  0  0  0  0  0  0  0  0  0
   -7.9337    1.5946   26.8372 C   0  0  0  0  0  0  0  0  0  0  0  0
   -7.4947    0.3059   27.1189 C   0  0  0  0  0  0  0  0  0  0  0  0
   -8.1909    6.2127   27.7180 C   0  0  0  0  0  0  0  0  0  0  0  0
   -8.8742    6.6093   26.5140 C   0  0  0  0  0  0  0  0  0  0  0  0
   -9.0999    5.5324   25.6446 C   0  0  0  0  0  0  0  0  0  0  0  0
   -8.6648    4.1993   25.9042 C   0  0  0  0  0  0  0  0  0  0  0  0
   -8.2050   -0.7835   26.6332 C   0  0  0  0  0  0  0  0  0  0  0  0
   -9.3110   -0.5575   25.8220 C   0  0  0  0  0  0  0  0  0  0  0  0
   -9.7286    0.6791   25.5012 C   0  0  0  0  0  0  0  0  0  0  0  0
   -9.1059    1.7582   26.0688 C   0  0  0  0  0  0  0  0  0  0  0  0
   -9.3376    3.0533   25.3481 C   0  0  0  0  0  0  0  0  0  0  0  0
  -10.2595    3.1948   24.3351 C   0  0  0  0  0  0  0  0  0  0  0  0
  -11.3452    3.9623   24.4988 C   0  0  0  0  0  0  0  0  0  0  0  0
  -12.3946    3.7072   23.9912 C   0  0  2  0  0  0  0  0  0  0  0  0
  -13.6880    4.2380   24.4421 C   0  0  0  0  0  0  0  0  0  0  0  0
  -12.6158    2.8002   22.9104 C   0  0  0  0  0  0  0  0  0  0  0  0
  -14.3630    3.6948   25.2454 C   0  0  0  0  0  0  0  0  0  0  0  0
  -14.0288    2.8395   26.1032 C   0  0  0  0  0  0  0  0  0  0  0  0
  -12.7815    2.6716   26.5579 C   0  0  0  0  0  0  0  0  0  0  0  0
  -12.2274    3.5972   27.4699 C   0  0  0  0  0  0  0  0  0  0  0  0
  -13.0334    4.5601   28.1046 C   0  0  0  0  0  0  0  0  0  0  0  0
  -13.1696    1.7389   23.0260 C   0  0  0  0  0  0  0  0  0  0  0  0
  -13.1398    0.7657   21.9909 C   0  0  0  0  0  0  0  0  0  0  0  0
  -12.4312    1.0824   20.8690 C   0  0  0  0  0  0  0  0  0  0  0  0
 14 15  1  0
 15 16  2  3
 16 17  1  0
 17 18  1  1
 17 19  1  0
 18 20  1  0
 20 21  2  3
 21 22  1  0
 22 23  2  3
 23 24  1  0
 19 25  1  0
 25 26  2  3
 26 27  1  0
  4  5  1  0
  5 10  2  0
 10 11  1  0
 11 12  2  0
 12 13  1  0
  1  3  1  0
  3  4  2  0
  4 13  1  0
 13 14  2  0
 14  9  1  0
  1  2  2  0
  2  6  1  0
  6  7  2  0
  7  8  1  0
  8  9  2  0
  9  1  1  0
M  END
$$$$
