No_2218-complexes_sdf/6BKW-FPZ/2024-09-17-14-21-01/
     RDKit          3D

  9  8  0  0  0  0  0  0  0  0999 V2000
   -7.7129    4.2099   27.0854 C   0  0  0  0  0  0  0  0  0  0  0  0
   -7.7814    5.1722   27.8972 C   0  0  0  0  0  0  0  0  0  0  0  0
   -7.3155    2.9699   27.6145 C   0  0  0  0  0  0  0  0  0  0  0  0
   -7.9010    1.7962   27.2023 C   0  0  0  0  0  0  0  0  0  0  0  0
   -7.4626    0.5915   27.6802 C   0  0  0  0  0  0  0  0  0  0  0  0
   -8.7099    6.3155   27.5283 C   0  0  0  0  0  0  0  0  0  0  0  0
   -8.2271   -0.5925   27.4714 C   0  0  0  0  0  0  0  0  0  0  0  0
   -9.5338   -0.4318   26.9849 C   0  0  0  0  0  0  0  0  0  0  0  0
   -9.9902    0.8004   26.5634 C   0  0  0  0  0  0  0  0  0  0  0  0
  1  2  1  0
  1  3  1  0
  3  4  2  3
  4  5  1  0
  2  6  2  0
  5  7  1  0
  7  8  2  3
  8  9  1  0
M  END
$$$$
