No_2839-complexes_sdf/6BKW-FPZ/2024-09-17-14-21-01/
     RDKit          3D

 22 25  0  0  0  0  0  0  0  0999 V2000
   -7.9040    3.9820   27.1177 C   0  0  0  0  0  0  0  0  0  0  0  0
   -7.8663    4.8694   27.9238 C   0  0  0  0  0  0  0  0  0  0  0  0
   -9.0501    3.8017   26.2617 C   0  0  0  0  0  0  0  0  0  0  0  0
   -9.1826    2.7026   25.3575 C   0  0  2  0  0  0  0  0  0  0  0  0
   -8.6940    6.0131   27.8614 C   0  0  0  0  0  0  0  0  0  0  0  0
   -9.9755    4.8547   26.2361 C   0  0  0  0  0  0  0  0  0  0  0  0
   -9.7463    5.9398   27.0364 C   0  0  0  0  0  0  0  0  0  0  0  0
  -10.0985    2.0025   25.4774 N   0  0  0  0  0  0  0  0  0  0  0  0
  -10.2779    0.8810   24.9134 C   0  0  2  0  0  0  0  0  0  0  0  0
   -9.3998    0.4200   24.1480 C   0  0  0  0  0  0  0  0  0  0  0  0
   -9.2401   -0.5067   23.4170 C   0  0  0  0  0  0  0  0  0  0  0  0
   -8.4822   -0.8843   22.6609 C   0  0  0  0  0  0  0  0  0  0  0  0
   -7.1457   -0.2059   22.6266 C   0  0  0  0  0  0  0  0  0  0  0  0
   -7.0459    0.7616   23.5419 C   0  0  0  0  0  0  0  0  0  0  0  0
   -8.0437    1.1245   24.2691 C   0  0  0  0  0  0  0  0  0  0  0  0
   -8.0438    2.1725   24.9873 O   0  0  0  0  0  0  0  0  0  0  0  0
  -11.5995    0.2984   24.8617 C   0  0  0  0  0  0  0  0  0  0  0  0
  -12.3632    0.0917   25.5702 C   0  0  0  0  0  0  0  0  0  0  0  0
  -13.6823   -0.4756   25.4406 C   0  0  0  0  0  0  0  0  0  0  0  0
  -13.9487   -0.9296   24.1739 C   0  0  0  0  0  0  0  0  0  0  0  0
  -13.0529   -0.7673   23.1827 C   0  0  0  0  0  0  0  0  0  0  0  0
  -11.8845   -0.1482   23.4402 C   0  0  0  0  0  0  0  0  0  0  0  0
  4  3  1  1
  4  8  1  0
  8  9  1  0
  9 10  1  0
  4 16  1  0
 15 16  1  0
  9 17  1  6
 17 18  2  0
 18 19  1  0
 19 20  2  0
 20 21  1  0
 21 22  2  0
 22 17  1  0
 10 11  2  0
 11 12  1  0
 12 13  2  0
 13 14  1  0
 14 15  2  0
 15 10  1  0
  1  2  2  0
  2  5  1  0
  5  7  2  0
  7  6  1  0
  6  3  2  0
  3  1  1  0
M  END
$$$$
