No_276-complexes_sdf/6BKW-FPZ/2024-09-17-14-21-01/
     RDKit          3D

 15 16  0  0  0  0  0  0  0  0999 V2000
   -7.7129    4.2099   27.0854 C   0  0  0  0  0  0  0  0  0  0  0  0
   -8.2112    3.0637   26.9225 C   0  0  0  0  0  0  0  0  0  0  0  0
   -8.5108    5.3904   26.9436 C   0  0  0  0  0  0  0  0  0  0  0  0
   -9.7256    5.1955   26.3518 C   0  0  0  0  0  0  0  0  0  0  0  0
   -9.4995    2.8258   26.4878 C   0  0  0  0  0  0  0  0  0  0  0  0
  -10.2542    3.9691   26.2055 C   0  0  0  0  0  0  0  0  0  0  0  0
   -7.9168    6.7086   27.1908 C   0  0  0  0  0  0  0  0  0  0  0  0
   -7.3556    1.8215   27.2519 C   0  0  0  0  0  0  0  0  0  0  0  0
   -7.7743    0.5204   27.0852 C   0  0  0  0  0  0  0  0  0  0  0  0
   -6.8954   -0.4847   27.3304 C   0  0  0  0  0  0  0  0  0  0  0  0
   -5.6062   -0.2033   27.8496 C   0  0  0  0  0  0  0  0  0  0  0  0
   -5.2027    1.1131   28.0494 C   0  0  0  0  0  0  0  0  0  0  0  0
   -5.9926    2.1042   27.7355 C   0  0  0  0  0  0  0  0  0  0  0  0
   -8.6608    7.7270   27.0059 F   0  0  0  0  0  0  0  0  0  0  0  0
   -7.4863    6.7662   28.5340 F   0  0  0  0  0  0  0  0  0  0  0  0
  3  7  1  0
  2  8  1  0
  7 14  1  0
  7 15  1  0
  8  9  2  0
  9 10  1  0
 10 11  2  0
 11 12  1  0
 12 13  2  0
 13  8  1  0
  1  2  2  0
  2  5  1  0
  5  6  2  0
  6  4  1  0
  4  3  2  0
  3  1  1  0
M  END
$$$$
