No_2558-complexes_sdf/6BKW-FPZ/2024-09-17-14-21-01/
     RDKit          3D

 40 44  0  0  0  0  0  0  0  0999 V2000
   -7.9040    3.9820   27.1177 C   0  0  0  0  0  0  0  0  0  0  0  0
   -7.8663    4.8694   27.9238 C   0  0  0  0  0  0  0  0  0  0  0  0
   -9.0491    3.8523   26.2542 C   0  0  0  0  0  0  0  0  0  0  0  0
   -8.7661    5.9491   27.9690 C   0  0  0  0  0  0  0  0  0  0  0  0
   -9.1798    2.6731   25.4786 C   0  0  0  0  0  0  0  0  0  0  0  0
   -9.8964    5.8854   27.1460 C   0  0  0  0  0  0  0  0  0  0  0  0
   -9.9958    4.8034   26.3470 C   0  0  0  0  0  0  0  0  0  0  0  0
  -10.0251    2.6919   24.3447 C   0  0  0  0  0  0  0  0  0  0  0  0
  -10.1429    1.5791   23.5538 C   0  0  0  0  0  0  0  0  0  0  0  0
  -10.9294    1.6078   22.3468 C   0  0  0  0  0  0  0  0  0  0  0  0
  -11.5995    2.8265   22.0781 C   0  0  0  0  0  0  0  0  0  0  0  0
  -11.4698    3.9307   22.8672 C   0  0  0  0  0  0  0  0  0  0  0  0
  -10.6143    3.8931   23.9986 C   0  0  0  0  0  0  0  0  0  0  0  0
  -10.8659    4.8131   25.1479 N   0  0  0  0  0  0  0  0  0  0  0  0
   -6.7270    2.6854   27.2446 Cl  0  0  0  0  0  0  0  0  0  0  0  0
   -9.3801    0.3212   23.7489 C   0  0  0  0  0  0  0  0  0  0  0  0
   -9.6448   -0.3789   24.9156 C   0  0  0  0  0  0  0  0  0  0  0  0
   -8.8349   -1.4607   25.2158 C   0  0  0  0  0  0  0  0  0  0  0  0
   -8.3447   -0.0293   22.9543 C   0  0  0  0  0  0  0  0  0  0  0  0
   -7.5014   -1.1100   23.1713 C   0  0  0  0  0  0  0  0  0  0  0  0
   -7.7373   -1.8555   24.3555 C   0  0  0  0  0  0  0  0  0  0  0  0
   -6.8914   -3.0265   24.6844 C   0  0  0  0  0  0  0  0  0  0  0  0
   -7.2104   -3.8191   25.3142 C   0  0  0  0  0  0  0  0  0  0  0  0
   -6.3112   -4.9852   25.6954 C   0  0  0  0  0  0  0  0  0  0  0  0
   -5.0592   -5.0189   25.1141 C   0  0  0  0  0  0  0  0  0  0  0  0
   -4.6558   -3.9777   24.2757 C   0  0  0  0  0  0  0  0  0  0  0  0
   -5.4912   -2.9087   24.0473 C   0  0  0  0  0  0  0  0  0  0  0  0
   -4.0950   -6.1081   25.3755 C   0  0  0  0  0  0  0  0  0  0  0  0
   -4.3680   -7.0816   26.5507 Cl  0  0  0  0  0  0  0  0  0  0  0  0
   -2.8663   -5.5501   25.6023 F   0  0  0  0  0  0  0  0  0  0  0  0
   -3.8810   -6.7726   24.2290 F   0  0  0  0  0  0  0  0  0  0  0  0
  -10.6831   -0.0974   25.8880 C   0  0  0  0  0  0  0  0  0  0  0  0
  -10.7736   -0.1504   26.9077 O   0  0  0  0  0  0  0  0  0  0  0  0
  -12.0006   -0.1551   25.2148 O   0  0  0  0  0  0  0  0  0  0  0  0
  -12.9964    0.5936   25.7152 C   0  0  0  0  0  0  0  0  0  0  0  0
  -13.9076    1.0368   24.7455 C   0  0  0  0  0  0  0  0  0  0  0  0
  -14.7173    2.1486   25.1239 C   0  0  2  0  0  0  0  0  0  0  0  0
  -15.6224    2.7693   24.2422 C   0  0  0  0  0  0  0  0  0  0  0  0
  -14.1211    3.0456   25.9672 C   0  0  0  0  0  0  0  0  0  0  0  0
  -14.8172    4.2392   26.3941 C   0  0  0  0  0  0  0  0  0  0  0  0
  1 15  1  0
  9 16  1  0
 21 22  1  0
 25 28  1  0
 28 29  1  0
 28 30  1  0
 28 31  1  0
 17 32  1  0
 32 33  2  0
 32 34  1  0
 34 35  1  0
 35 36  2  3
 36 37  1  0
 37 38  1  6
 37 39  1  0
 39 40  2  0
  3  5  2  0
  5  8  1  0
 13 14  1  0
 14  7  2  0
 22 23  2  0
 23 24  1  0
 24 25  2  0
 25 26  1  0
 26 27  2  0
 27 22  1  0
 16 17  2  0
 17 18  1  0
 18 21  2  0
 21 20  1  0
 20 19  2  0
 19 16  1  0
  1  2  2  0
  2  4  1  0
  4  6  2  0
  6  7  1  0
  7  3  1  0
  3  1  1  0
  8  9  2  0
  9 10  1  0
 10 11  2  0
 11 12  1  0
 12 13  2  0
 13  8  1  0
M  END
$$$$
