No_2816-complexes_sdf/6BKW-FPZ/2024-09-17-14-21-01/
     RDKit          3D

 11 11  0  0  0  0  0  0  0  0999 V2000
   -7.2496    3.8871   27.4508 C   0  0  0  0  0  0  0  0  0  0  0  0
   -8.5096    4.0291   27.2770 C   0  0  0  0  0  0  0  0  0  0  0  0
   -9.2677    5.1714   27.5773 C   0  0  0  0  0  0  0  0  0  0  0  0
   -9.2765    2.8248   26.8371 C   0  0  0  0  0  0  0  0  0  0  0  0
   -8.6731    1.7312   26.5464 C   0  0  0  0  0  0  0  0  0  0  0  0
   -6.5350    2.6522   27.3724 C   0  0  0  0  0  0  0  0  0  0  0  0
   -7.2308    1.5739   26.9609 C   0  0  0  0  0  0  0  0  0  0  0  0
   -8.5000    6.1621   27.9235 F   0  0  0  0  0  0  0  0  0  0  0  0
  -10.1266    5.0675   28.6960 F   0  0  0  0  0  0  0  0  0  0  0  0
   -9.9522    5.6372   26.5171 F   0  0  0  0  0  0  0  0  0  0  0  0
   -4.9173    2.5260   27.8200 Cl  0  0  0  0  0  0  0  0  0  0  0  0
  2  3  1  0
  3  8  1  0
  3  9  1  0
  3 10  1  0
  6 11  1  0
  1  2  2  0
  2  4  1  0
  4  5  2  0
  5  7  1  0
  7  6  2  0
  6  1  1  0
M  END
$$$$
