No_2288-complexes_sdf/6BKW-FPZ/2024-09-17-14-21-01/
     RDKit          3D

 19 21  0  0  0  0  0  0  0  0999 V2000
   -7.9040    3.9820   27.1177 C   0  0  0  0  0  0  0  0  0  0  0  0
   -7.8663    4.8694   27.9238 C   0  0  0  0  0  0  0  0  0  0  0  0
   -9.0491    3.8523   26.2542 C   0  0  0  0  0  0  0  0  0  0  0  0
   -8.7661    5.9491   27.9690 C   0  0  0  0  0  0  0  0  0  0  0  0
   -9.9295    4.8502   26.2323 C   0  0  0  0  0  0  0  0  0  0  0  0
   -9.8077    5.9288   27.0933 C   0  0  0  0  0  0  0  0  0  0  0  0
   -6.9606    2.7994   27.1981 C   0  0  0  0  0  0  0  0  0  0  0  0
   -5.8113    2.9359   27.9439 C   0  0  0  0  0  0  0  0  0  0  0  0
   -4.9385    1.8125   28.0967 C   0  0  0  0  0  0  0  0  0  0  0  0
   -5.3533    0.5637   27.6951 C   0  0  0  0  0  0  0  0  0  0  0  0
   -7.3974    1.4981   26.8822 C   0  0  0  0  0  0  0  0  0  0  0  0
   -6.6562    0.4138   27.1531 C   0  0  0  0  0  0  0  0  0  0  0  0
   -4.5283   -0.5883   27.9925 C   0  0  0  0  0  0  0  0  0  0  0  0
   -3.4919   -0.7022   28.2575 C   0  0  0  0  0  0  0  0  0  0  0  0
   -2.6827   -1.9170   28.5884 C   0  0  0  0  0  0  0  0  0  0  0  0
   -1.4073   -1.9782   28.8491 C   0  0  0  0  0  0  0  0  0  0  0  0
   -0.5946   -0.8463   28.6865 C   0  0  0  0  0  0  0  0  0  0  0  0
   -1.1793    0.3501   28.2344 C   0  0  0  0  0  0  0  0  0  0  0  0
   -2.4775    0.4526   28.0796 C   0  0  0  0  0  0  0  0  0  0  0  0
  1  7  1  0
 10 13  1  0
 13 14  1  0
  7  8  2  0
  8  9  1  0
  9 10  2  0
 10 12  1  0
 12 11  2  0
 11  7  1  0
 14 15  2  0
 15 16  1  0
 16 17  2  0
 17 18  1  0
 18 19  2  0
 19 14  1  0
  1  2  2  0
  2  4  1  0
  4  6  2  0
  6  5  1  0
  5  3  2  0
  3  1  1  0
M  END
$$$$
