No_2451-complexes_sdf/6BKW-FPZ/2024-09-17-14-21-01/
     RDKit          3D

 29 31  0  0  0  0  0  0  0  0999 V2000
   -7.7129    4.2099   27.0854 C   0  0  0  0  0  0  0  0  0  0  0  0
   -8.2112    3.0637   26.9225 C   0  0  0  0  0  0  0  0  0  0  0  0
   -8.4224    5.2106   27.8516 C   0  0  0  0  0  0  0  0  0  0  0  0
   -9.5628    2.7160   27.4089 C   0  0  0  0  0  0  0  0  0  0  0  0
  -10.2428    3.7496   28.1155 C   0  0  0  0  0  0  0  0  0  0  0  0
   -9.6677    4.9738   28.3232 C   0  0  0  0  0  0  0  0  0  0  0  0
   -7.7834    6.4141   28.0170 O   0  0  0  0  0  0  0  0  0  0  0  0
  -10.1026    1.3916   27.2160 C   0  0  0  0  0  0  0  0  0  0  0  0
  -10.8399    1.1980   26.2562 N   0  0  0  0  0  0  0  0  0  0  0  0
  -11.1894    1.7833   25.3242 C   0  0  0  0  0  0  0  0  0  0  0  0
  -11.2295    2.8898   25.1483 C   0  0  0  0  0  0  0  0  0  0  0  0
  -11.5330    3.6948   23.8456 C   0  0  0  0  0  0  0  0  0  0  0  0
  -11.7847    2.9855   22.7741 C   0  0  0  0  0  0  0  0  0  0  0  0
  -11.7513    1.5969   22.8603 C   0  0  0  0  0  0  0  0  0  0  0  0
  -11.4432    1.0046   23.9860 C   0  0  0  0  0  0  0  0  0  0  0  0
  -11.6893   -0.1360   26.5951 C   0  0  0  0  0  0  0  0  0  0  0  0
   -9.5466    0.6008   28.0778 O   0  0  0  0  0  0  0  0  0  0  0  0
  -13.0660    0.1641   26.8152 C   0  0  0  0  0  0  0  0  0  0  0  0
  -13.5340    0.9686   27.4917 C   0  0  0  0  0  0  0  0  0  0  0  0
  -14.9614    1.2420   27.7284 C   0  0  0  0  0  0  0  0  0  0  0  0
  -15.7767    0.2996   27.0921 C   0  0  0  0  0  0  0  0  0  0  0  0
  -14.0804   -0.7144   26.2058 C   0  0  0  0  0  0  0  0  0  0  0  0
  -15.3351   -0.6071   26.3066 C   0  0  0  0  0  0  0  0  0  0  0  0
  -12.0680    3.6913   21.5104 C   0  0  0  0  0  0  0  0  0  0  0  0
  -11.4910    4.7374   21.2337 N   0  0  0  0  0  0  0  0  0  0  0  0
  -12.7616    3.1337   20.6075 O   0  0  0  0  0  0  0  0  0  0  0  0
  -11.0725   -1.1023   27.0144 O   0  0  0  0  0  0  0  0  0  0  0  0
  -11.5652    3.5024   28.6896 C   0  0  0  0  0  0  0  0  0  0  0  0
  -10.5770    5.4343   22.1356 C   0  0  0  0  0  0  0  0  0  0  0  0
  3  7  1  0
  4  8  1  0
  8  9  1  0
  9 10  1  0
  9 16  1  0
  8 17  2  0
 16 18  1  0
 13 24  1  0
 24 25  1  0
 24 26  2  0
 16 27  2  0
  5 28  1  0
 25 29  1  0
  1  2  2  0
  2  4  1  0
  4  5  2  0
  5  6  1  0
  6  3  2  0
  3  1  1  0
 18 19  2  0
 19 20  1  0
 20 21  2  0
 21 23  1  0
 23 22  2  0
 22 18  1  0
 10 11  2  0
 11 12  1  0
 12 13  2  0
 13 14  1  0
 14 15  2  0
 15 10  1  0
M  END
$$$$
