No_2179-complexes_sdf/6BKW-FPZ/2024-09-17-14-21-01/
     RDKit          3D

 26 29  0  0  0  0  0  0  0  0999 V2000
   -7.9040    3.9820   27.1177 C   0  0  0  0  0  0  0  0  0  0  0  0
   -9.0711    4.3164   27.0630 C   0  0  0  0  0  0  0  0  0  0  0  0
   -9.5182    5.5541   27.5777 C   0  0  0  0  0  0  0  0  0  0  0  0
   -6.9424    4.7983   27.8424 C   0  0  0  0  0  0  0  0  0  0  0  0
   -7.3526    5.9739   28.3909 C   0  0  0  0  0  0  0  0  0  0  0  0
   -8.6479    6.3742   28.2169 C   0  0  0  0  0  0  0  0  0  0  0  0
  -10.2021    3.5782   26.4472 C   0  0  0  0  0  0  0  0  0  0  0  0
  -11.2960    3.3861   26.7089 C   0  0  0  0  0  0  0  0  0  0  0  0
  -11.6982    3.8842   28.1597 C   0  0  0  0  0  0  0  0  0  0  0  0
   -9.7363    3.0435   25.0797 C   0  0  0  0  0  0  0  0  0  0  0  0
  -12.7246    3.3297   28.7438 C   0  0  0  0  0  0  0  0  0  0  0  0
  -10.6229    2.6874   24.1268 C   0  0  0  0  0  0  0  0  0  0  0  0
  -11.9287    2.5260   24.5940 C   0  0  0  0  0  0  0  0  0  0  0  0
  -12.3344    2.8752   25.9097 C   0  0  0  0  0  0  0  0  0  0  0  0
  -13.3181    2.1607   28.3764 C   0  0  0  0  0  0  0  0  0  0  0  0
  -13.4071    1.9259   26.9638 C   0  0  0  0  0  0  0  0  0  0  0  0
  -10.2208    2.3771   22.9087 N   0  0  0  0  0  0  0  0  0  0  0  0
   -9.5855    1.1832   22.5225 C   0  0  0  0  0  0  0  0  0  0  0  0
  -10.4053    3.2933   21.8122 C   0  0  0  0  0  0  0  0  0  0  0  0
  -10.1724   -0.0000   22.6451 C   0  0  0  0  0  0  0  0  0  0  0  0
   -9.4872   -1.0947   22.4444 C   0  0  0  0  0  0  0  0  0  0  0  0
   -8.1157   -1.0869   22.0222 C   0  0  0  0  0  0  0  0  0  0  0  0
   -7.4317    0.1008   22.1297 C   0  0  0  0  0  0  0  0  0  0  0  0
   -8.1333    1.2565   22.3192 C   0  0  0  0  0  0  0  0  0  0  0  0
  -10.7234    4.6585   22.1761 C   0  0  0  0  0  0  0  0  0  0  0  0
  -10.3051    2.9232   20.4996 C   0  0  0  0  0  0  0  0  0  0  0  0
  2  7  1  0
 12 17  1  0
 17 18  1  0
 17 19  1  0
 19 25  1  0
 19 26  1  0
  1  2  2  0
  2  3  1  0
  3  6  2  0
  6  5  1  0
  5  4  2  0
  4  1  1  0
 18 20  2  0
 20 21  1  0
 21 22  2  0
 22 23  1  0
 23 24  2  0
 24 18  1  0
  7  8  1  0
 14 13  1  0
 13 12  2  0
 12 10  1  0
 10  7  2  0
  8  9  2  0
  9 11  1  0
 11 15  2  0
 15 16  1  0
 16 14  2  0
 14  8  1  0
M  END
$$$$
