No_2596-complexes_sdf/6BKW-FPZ/2024-09-17-14-21-01/
     RDKit          3D

 27 30  0  0  0  0  0  0  0  0999 V2000
   -7.9040    3.9820   27.1177 C   0  0  0  0  0  0  0  0  0  0  0  0
   -7.8663    4.8694   27.9238 C   0  0  0  0  0  0  0  0  0  0  0  0
   -7.4547    2.7080   27.4594 C   0  0  0  0  0  0  0  0  0  0  0  0
   -8.7044    6.0412   27.8492 C   0  0  0  0  0  0  0  0  0  0  0  0
   -7.9501    1.5743   26.8848 C   0  0  0  0  0  0  0  0  0  0  0  0
   -8.8773    1.7289   25.8707 C   0  0  0  0  0  0  0  0  0  0  0  0
   -9.3595    2.9624   25.5238 C   0  0  0  0  0  0  0  0  0  0  0  0
   -9.0069    4.0555   26.2453 C   0  0  0  0  0  0  0  0  0  0  0  0
   -9.4620    5.3111   26.3320 N   0  0  0  0  0  0  0  0  0  0  0  0
  -10.3373    3.2003   24.4469 C   0  0  0  0  0  0  0  0  0  0  0  0
  -10.9211    4.3782   24.2735 C   0  0  0  0  0  0  0  0  0  0  0  0
  -10.5039    2.2144   23.4688 C   0  0  0  0  0  0  0  0  0  0  0  0
  -11.7911    4.6129   23.1879 C   0  0  0  0  0  0  0  0  0  0  0  0
  -11.3159    2.4050   22.3604 C   0  0  0  0  0  0  0  0  0  0  0  0
  -11.9669    3.6521   22.2108 C   0  0  0  0  0  0  0  0  0  0  0  0
   -7.3354    0.2123   27.0528 C   0  0  0  0  0  0  0  0  0  0  0  0
   -6.0491    0.0821   27.4979 C   0  0  0  0  0  0  0  0  0  0  0  0
   -5.4942   -1.1556   27.8428 C   0  0  0  0  0  0  0  0  0  0  0  0
   -6.2746   -2.2500   27.6284 C   0  0  0  0  0  0  0  0  0  0  0  0
   -8.0049   -0.9759   26.9747 C   0  0  0  0  0  0  0  0  0  0  0  0
   -7.5353   -2.1712   27.2338 C   0  0  0  0  0  0  0  0  0  0  0  0
   -4.0904   -1.1896   28.3620 C   0  0  0  0  0  0  0  0  0  0  0  0
   -3.9243   -0.6741   29.7286 C   0  0  0  0  0  0  0  0  0  0  0  0
   -4.1440    0.6301   29.9188 C   0  0  0  0  0  0  0  0  0  0  0  0
   -3.5045   -1.5813   30.7505 C   0  0  0  0  0  0  0  0  0  0  0  0
   -2.9001   -2.5195   30.6307 C   0  0  0  0  0  0  0  0  0  0  0  0
   -4.0710    1.0119   31.2738 N   0  0  0  0  0  0  0  0  0  0  0  0
  1  2  1  0
  2  4  2  0
  4  9  1  0
  8  9  1  0
  7 10  1  0
  5 16  1  0
 18 22  1  0
 22 23  1  0
 23 24  1  0
 23 25  1  0
 25 26  2  0
 24 27  1  0
 10 11  2  0
 11 13  1  0
 13 15  2  0
 15 14  1  0
 14 12  2  0
 12 10  1  0
  1  3  2  0
  3  5  1  0
  5  6  2  0
  6  7  1  0
  7  8  2  0
  8  1  1  0
 16 17  2  0
 17 18  1  0
 18 19  2  0
 19 21  1  0
 21 20  2  0
 20 16  1  0
M  END
$$$$
