No_2464-complexes_sdf/6BKW-FPZ/2024-09-17-14-21-01/
     RDKit          3D

 15 16  0  0  0  0  0  0  0  0999 V2000
   -7.9040    3.9820   27.1177 C   0  0  0  0  0  0  0  0  0  0  0  0
   -9.0711    4.3164   27.0630 C   0  0  0  0  0  0  0  0  0  0  0  0
   -9.9692    3.7224   26.1073 C   0  0  0  0  0  0  0  0  0  0  0  0
   -6.9787    4.6761   28.1003 C   0  0  0  0  0  0  0  0  0  0  0  0
   -9.4538    2.6801   25.3673 C   0  0  0  0  0  0  0  0  0  0  0  0
   -8.1927    2.1957   25.6621 C   0  0  0  0  0  0  0  0  0  0  0  0
   -7.4333    2.8255   26.6299 C   0  0  0  0  0  0  0  0  0  0  0  0
  -10.3066    1.9975   24.3777 C   0  0  0  0  0  0  0  0  0  0  0  0
  -10.6559    2.6408   23.2832 C   0  0  0  0  0  0  0  0  0  0  0  0
  -11.3742    2.0135   22.1919 C   0  0  0  0  0  0  0  0  0  0  0  0
  -11.5774    0.6233   22.3134 C   0  0  0  0  0  0  0  0  0  0  0  0
  -10.4347    0.6185   24.3077 C   0  0  0  0  0  0  0  0  0  0  0  0
  -11.0716   -0.0282   23.3388 C   0  0  0  0  0  0  0  0  0  0  0  0
   -7.4061    5.7537   28.6616 O   0  0  0  0  0  0  0  0  0  0  0  0
   -5.8854    4.1238   28.3925 O   0  0  0  0  0  0  0  0  0  0  0  0
  1  4  1  0
  5  8  1  0
  4 14  1  0
  4 15  2  0
  8  9  2  0
  9 10  1  0
 10 11  2  0
 11 13  1  0
 13 12  2  0
 12  8  1  0
  1  2  2  0
  2  3  1  0
  3  5  2  0
  5  6  1  0
  6  7  2  0
  7  1  1  0
M  END
$$$$
