No_2415-complexes_sdf/6BKW-FPZ/2024-09-17-14-21-01/
     RDKit          3D

 17 19  0  0  0  0  0  0  0  0999 V2000
   -7.9040    3.9820   27.1177 C   0  0  0  0  0  0  0  0  0  0  0  0
   -7.8663    4.8694   27.9238 C   0  0  0  0  0  0  0  0  0  0  0  0
   -7.4547    2.7080   27.4594 C   0  0  0  0  0  0  0  0  0  0  0  0
   -7.9337    1.5946   26.8372 C   0  0  0  0  0  0  0  0  0  0  0  0
   -8.9032    1.7881   25.8510 C   0  0  0  0  0  0  0  0  0  0  0  0
   -9.3787    2.9871   25.5530 C   0  0  0  0  0  0  0  0  0  0  0  0
   -8.9781    4.0300   26.2200 C   0  0  0  0  0  0  0  0  0  0  0  0
   -8.2454    6.2265   27.6332 N   0  0  0  0  0  0  0  0  0  0  0  0
   -9.1863    6.5523   26.7292 C   0  0  0  0  0  0  0  0  0  0  0  0
   -9.5535    5.3940   25.9221 C   0  0  0  0  0  0  0  0  0  0  0  0
   -7.3291    0.2650   27.1226 C   0  0  0  0  0  0  0  0  0  0  0  0
   -6.0434    0.1532   27.6378 C   0  0  0  0  0  0  0  0  0  0  0  0
   -5.5232   -1.0299   28.0832 C   0  0  0  0  0  0  0  0  0  0  0  0
   -6.3627   -2.1316   27.9829 C   0  0  0  0  0  0  0  0  0  0  0  0
   -8.0029   -0.9581   27.2170 C   0  0  0  0  0  0  0  0  0  0  0  0
   -7.5892   -2.0846   27.6077 C   0  0  0  0  0  0  0  0  0  0  0  0
  -10.6076    3.0880   24.1239 Br  0  0  0  0  0  0  0  0  0  0  0  0
  1  2  1  0
  2  8  1  0
  8  9  1  0
  7 10  1  0
  9 10  1  0
  4 11  1  0
  6 17  1  0
 11 12  2  0
 12 13  1  0
 13 14  2  0
 14 16  1  0
 16 15  2  0
 15 11  1  0
  1  3  2  0
  3  4  1  0
  4  5  2  0
  5  6  1  0
  6  7  2  0
  7  1  1  0
M  END
$$$$
