No_2800-complexes_sdf/6BKW-FPZ/2024-09-17-14-21-01/
     RDKit          3D

 40 45  0  0  0  0  0  0  0  0999 V2000
   -7.2496    3.8871   27.4508 C   0  0  0  0  0  0  0  0  0  0  0  0
   -7.6161    2.7143   27.1523 C   0  0  0  0  0  0  0  0  0  0  0  0
   -8.6212    2.2239   26.4073 C   0  0  0  0  0  0  0  0  0  0  0  0
   -8.2540    4.9237   27.1711 C   0  0  0  0  0  0  0  0  0  0  0  0
   -9.1907    4.7659   26.6543 C   0  0  0  0  0  0  0  0  0  0  0  0
   -9.5699    3.4368   26.1888 C   0  0  0  0  0  0  0  0  0  0  0  0
   -7.7704    6.3345   27.6940 C   0  0  0  0  0  0  0  0  0  0  0  0
  -10.8044    3.1333   25.4080 C   0  0  0  0  0  0  0  0  0  0  0  0
  -10.7960    3.5278   24.1091 C   0  0  0  0  0  0  0  0  0  0  0  0
  -10.0080    4.2934   23.4999 C   0  0  0  0  0  0  0  0  0  0  0  0
  -11.8937    2.9295   23.2540 C   0  0  0  0  0  0  0  0  0  0  0  0
  -10.1764    4.7676   22.1446 C   0  0  0  0  0  0  0  0  0  0  0  0
  -12.1211    3.3216   21.9547 C   0  0  0  0  0  0  0  0  0  0  0  0
  -11.2146    4.2486   21.3857 C   0  0  0  0  0  0  0  0  0  0  0  0
  -11.8610    2.6595   26.1619 C   0  0  0  0  0  0  0  0  0  0  0  0
  -11.8611    2.5171   27.4902 C   0  0  0  0  0  0  0  0  0  0  0  0
  -12.4816    2.6791   28.4253 C   0  0  0  0  0  0  0  0  0  0  0  0
  -13.5538    3.6855   28.4200 C   0  0  0  0  0  0  0  0  0  0  0  0
  -14.3561    3.9937   29.5695 C   0  0  0  0  0  0  0  0  0  0  0  0
  -13.9416    3.4211   30.7864 C   0  0  0  0  0  0  0  0  0  0  0  0
  -12.9193    2.4814   30.8478 C   0  0  0  0  0  0  0  0  0  0  0  0
  -12.1864    2.1833   29.7469 C   0  0  0  0  0  0  0  0  0  0  0  0
   -6.5094    1.5478   27.4504 C   0  0  0  0  0  0  0  0  0  0  0  0
   -5.2231    1.8814   27.8234 C   0  0  0  0  0  0  0  0  0  0  0  0
   -4.3864    0.7244   28.1346 C   0  0  0  0  0  0  0  0  0  0  0  0
   -4.7813   -0.2671   28.1684 C   0  0  0  0  0  0  0  0  0  0  0  0
   -6.7160    0.1593   27.6074 C   0  0  0  0  0  0  0  0  0  0  0  0
   -6.0284   -0.7466   27.9439 C   0  0  0  0  0  0  0  0  0  0  0  0
  -13.1776    2.3858   25.5618 C   0  0  0  0  0  0  0  0  0  0  0  0
  -13.1383    2.3899   24.0332 C   0  0  0  0  0  0  0  0  0  0  0  0
   -7.9195    7.3907   27.1435 N   0  0  0  0  0  0  0  0  0  0  0  0
  -14.7247    3.8471   32.0155 C   0  0  0  0  0  0  0  0  0  0  0  0
  -15.5377    4.6012   31.9695 O   0  0  0  0  0  0  0  0  0  0  0  0
  -14.2462    3.2745   33.1222 O   0  0  0  0  0  0  0  0  0  0  0  0
   -3.7650   -1.4564   28.7154 C   0  0  0  0  0  0  0  0  0  0  0  0
   -3.6122   -1.5876   30.0487 C   0  0  0  0  0  0  0  0  0  0  0  0
   -2.6395   -2.3436   30.5395 C   0  0  0  0  0  0  0  0  0  0  0  0
   -1.8663   -3.1223   29.6633 C   0  0  0  0  0  0  0  0  0  0  0  0
   -2.8831   -2.0828   27.8461 C   0  0  0  0  0  0  0  0  0  0  0  0
   -1.9377   -2.9249   28.3032 C   0  0  0  0  0  0  0  0  0  0  0  0
  4  7  1  0
  6  8  1  0
 15 16  1  0
  2 23  1  0
  7 31  1  0
 20 32  1  0
 32 33  2  0
 32 34  1  0
 26 35  1  0
 16 17  1  0
  9 10  2  0
 10 12  1  0
 12 14  2  0
 14 13  1  0
 13 11  2  0
  1  2  2  0
  2  3  1  0
  3  6  2  0
  6  5  1  0
  5  4  2  0
  4  1  1  0
 23 24  2  0
 24 25  1  0
 25 26  2  0
 26 28  1  0
 28 27  2  0
 27 23  1  0
 35 36  2  0
 36 37  1  0
 37 38  2  0
 38 40  1  0
 40 39  2  0
 39 35  1  0
 17 18  2  0
 18 19  1  0
 19 20  2  0
 20 21  1  0
 21 22  2  0
 22 17  1  0
  8  9  1  0
  9 11  1  0
 11 30  1  0
 30 29  2  0
 29 15  1  0
 15  8  2  0
M  END
$$$$
