No_2924-complexes_sdf/6BKW-FPZ/2024-09-17-14-21-01/
     RDKit          3D

 18 19  0  0  0  0  0  0  0  0999 V2000
   -7.9040    3.9820   27.1177 C   0  0  0  0  0  0  0  0  0  0  0  0
   -7.8663    4.8694   27.9238 C   0  0  0  0  0  0  0  0  0  0  0  0
   -9.0501    3.8017   26.2617 C   0  0  0  0  0  0  0  0  0  0  0  0
   -9.1826    2.7026   25.3575 C   0  0  0  0  0  0  0  0  0  0  0  0
   -8.6940    6.0131   27.8614 C   0  0  0  0  0  0  0  0  0  0  0  0
   -9.9755    4.8547   26.2361 C   0  0  0  0  0  0  0  0  0  0  0  0
   -9.7463    5.9398   27.0364 C   0  0  0  0  0  0  0  0  0  0  0  0
   -8.6850    1.4682   25.7485 C   0  0  0  0  0  0  0  0  0  0  0  0
   -9.8790    2.8113   24.1394 C   0  0  0  0  0  0  0  0  0  0  0  0
   -8.6861    0.3846   24.9073 C   0  0  0  0  0  0  0  0  0  0  0  0
   -9.9538    1.7184   23.2975 C   0  0  0  0  0  0  0  0  0  0  0  0
   -9.3506    0.5057   23.7124 C   0  0  0  0  0  0  0  0  0  0  0  0
   -9.4356   -0.6511   22.7463 C   0  0  0  0  0  0  0  0  0  0  0  0
  -10.1338   -0.5757   21.6492 C   0  0  0  0  0  0  0  0  0  0  0  0
  -10.2233   -1.6732   20.8108 C   0  0  0  0  0  0  0  0  0  0  0  0
  -11.0344   -1.6127   19.6346 C   0  0  0  0  0  0  0  0  0  0  0  0
  -11.6729   -0.4052   19.3262 C   0  0  0  0  0  0  0  0  0  0  0  0
  -11.5103    0.6971   20.0694 C   0  0  0  0  0  0  0  0  0  0  0  0
  3  4  1  0
 12 13  1  0
 13 14  2  3
 14 15  1  0
 15 16  2  3
 16 17  1  0
 17 18  2  0
  4  8  2  0
  8 10  1  0
 10 12  2  0
 12 11  1  0
 11  9  2  0
  9  4  1  0
  1  2  2  0
  2  5  1  0
  5  7  2  0
  7  6  1  0
  6  3  2  0
  3  1  1  0
M  END
$$$$
