No_2037-complexes_sdf/6BKW-FPZ/2024-09-17-14-21-01/
     RDKit          3D

 18 19  0  0  0  0  0  0  0  0999 V2000
   -7.7129    4.2099   27.0854 C   0  0  0  0  0  0  0  0  0  0  0  0
   -8.9133    4.4736   27.0998 C   0  0  0  0  0  0  0  0  0  0  0  0
   -9.7937    3.7368   26.2091 C   0  0  0  0  0  0  0  0  0  0  0  0
   -6.8266    5.0441   28.0594 C   0  0  0  0  0  0  0  0  0  0  0  0
   -9.2322    2.6276   25.6126 C   0  0  0  0  0  0  0  0  0  0  0  0
   -7.9794    2.1924   25.9863 C   0  0  0  0  0  0  0  0  0  0  0  0
   -7.2411    2.9387   26.9009 C   0  0  0  0  0  0  0  0  0  0  0  0
  -10.0593    1.7685   24.7435 C   0  0  0  0  0  0  0  0  0  0  0  0
  -10.6600    2.2245   23.7631 C   0  0  0  0  0  0  0  0  0  0  0  0
  -11.3872    1.4091   22.7814 C   0  0  0  0  0  0  0  0  0  0  0  0
  -11.2984    0.0258   22.9456 C   0  0  0  0  0  0  0  0  0  0  0  0
  -10.0510    0.3272   24.8681 C   0  0  0  0  0  0  0  0  0  0  0  0
  -10.6351   -0.4741   23.9936 C   0  0  0  0  0  0  0  0  0  0  0  0
   -9.4791    5.8446   27.4629 C   0  0  0  0  0  0  0  0  0  0  0  0
   -5.7391    2.2714   27.4554 Cl  0  0  0  0  0  0  0  0  0  0  0  0
  -10.0458    6.5057   26.5084 F   0  0  0  0  0  0  0  0  0  0  0  0
  -10.4492    5.5054   28.3889 F   0  0  0  0  0  0  0  0  0  0  0  0
   -8.6887    6.6582   28.0715 F   0  0  0  0  0  0  0  0  0  0  0  0
  1  4  1  0
  5  8  1  0
  2 14  1  0
  7 15  1  0
 14 16  1  0
 14 17  1  0
 14 18  1  0
  8  9  2  0
  9 10  1  0
 10 11  2  0
 11 13  1  0
 13 12  2  0
 12  8  1  0
  1  2  2  0
  2  3  1  0
  3  5  2  0
  5  6  1  0
  6  7  2  0
  7  1  1  0
M  END
$$$$
