No_2991-complexes_sdf/6BKW-FPZ/2024-09-17-14-21-01/
     RDKit          3D

 22 24  0  0  0  0  0  0  0  0999 V2000
   -7.9040    3.9820   27.1177 C   0  0  0  0  0  0  0  0  0  0  0  0
   -8.2057    2.8231   26.8733 C   0  0  0  0  0  0  0  0  0  0  0  0
   -9.2962    2.4021   26.1155 C   0  0  0  0  0  0  0  0  0  0  0  0
   -8.7358    5.0662   26.5917 C   0  0  0  0  0  0  0  0  0  0  0  0
   -9.7618    4.7023   25.7546 C   0  0  0  0  0  0  0  0  0  0  0  0
  -10.0066    3.4105   25.4922 C   0  0  0  0  0  0  0  0  0  0  0  0
   -8.3943    6.4760   26.8801 C   0  0  0  0  0  0  0  0  0  0  0  0
   -8.5947    7.4080   26.1130 N   0  0  0  0  0  0  0  0  0  0  0  0
   -7.5592    6.5953   27.9508 N   0  0  0  0  0  0  0  0  0  0  0  0
   -7.3669    1.6524   27.4766 C   0  0  0  0  0  0  0  0  0  0  0  0
   -7.7373    0.3252   27.3697 C   0  0  0  0  0  0  0  0  0  0  0  0
   -8.9666    0.1201   26.6706 C   0  0  0  0  0  0  0  0  0  0  0  0
   -9.6773    1.0289   25.9877 C   0  0  0  0  0  0  0  0  0  0  0  0
   -6.9830   -0.6788   28.0196 C   0  0  0  0  0  0  0  0  0  0  0  0
   -5.6828   -0.4244   28.4278 C   0  0  0  0  0  0  0  0  0  0  0  0
   -4.7898   -0.8836   28.2724 C   0  0  0  0  0  0  0  0  0  0  0  0
   -3.3829   -0.4141   28.8148 C   0  0  0  0  0  0  0  0  0  0  0  0
   -3.4298    0.8316   29.4471 C   0  0  0  0  0  0  0  0  0  0  0  0
   -5.4267    0.9556   29.1449 C   0  0  0  0  0  0  0  0  0  0  0  0
   -4.3277    1.3773   29.6046 C   0  0  0  0  0  0  0  0  0  0  0  0
   -7.4975   -1.9467   28.2815 C   0  0  0  0  0  0  0  0  0  0  0  0
   -7.1705   -2.8942   27.4941 N   0  0  0  0  0  0  0  0  0  0  0  0
  4  7  1  0
  7  8  2  0
  7  9  1  0
 11 14  1  0
 14 15  1  0
 14 21  1  0
 21 22  2  0
 15 16  2  0
 16 17  1  0
 17 18  2  0
 18 20  1  0
 20 19  2  0
 19 15  1  0
  1  2  2  0
  3  6  2  0
  6  5  1  0
  5  4  2  0
  4  1  1  0
  2  3  1  0
  3 13  1  0
 13 12  2  0
 12 11  1  0
 11 10  2  0
 10  2  1  0
M  END
$$$$
