No_2375-complexes_sdf/6BKW-FPZ/2024-09-17-14-21-01/
     RDKit          3D

 15 16  0  0  0  0  0  0  0  0999 V2000
   -7.7129    4.2099   27.0854 C   0  0  0  0  0  0  0  0  0  0  0  0
   -8.9133    4.4736   27.0998 C   0  0  0  0  0  0  0  0  0  0  0  0
   -9.4643    5.5426   27.7628 C   0  0  0  0  0  0  0  0  0  0  0  0
   -7.2009    2.9448   26.6134 C   0  0  0  0  0  0  0  0  0  0  0  0
   -8.1365    1.9533   26.2981 C   0  0  0  0  0  0  0  0  0  0  0  0
   -9.4514    2.2934   26.2667 C   0  0  0  0  0  0  0  0  0  0  0  0
   -9.8600    3.4834   26.7068 C   0  0  0  0  0  0  0  0  0  0  0  0
   -7.6136    0.6633   25.8927 C   0  0  0  0  0  0  0  0  0  0  0  0
   -6.8650   -0.0847   26.8603 C   0  0  0  0  0  0  0  0  0  0  0  0
   -6.3438   -1.3385   26.5451 C   0  0  0  0  0  0  0  0  0  0  0  0
   -6.6408   -1.8092   25.2410 C   0  0  0  0  0  0  0  0  0  0  0  0
   -7.7421   -0.1312   24.7784 C   0  0  0  0  0  0  0  0  0  0  0  0
   -7.2686   -1.1872   24.3620 C   0  0  0  0  0  0  0  0  0  0  0  0
  -10.7272    5.8129   27.9826 F   0  0  0  0  0  0  0  0  0  0  0  0
   -8.9255    5.7604   28.9897 F   0  0  0  0  0  0  0  0  0  0  0  0
  5  8  1  0
  3 14  1  0
  3 15  1  0
  3  2  1  0
  1  2  2  0
  2  7  1  0
  7  6  2  0
  6  5  1  0
  5  4  2  0
  4  1  1  0
  8  9  2  0
  9 10  1  0
 10 11  2  0
 11 13  1  0
 13 12  2  0
 12  8  1  0
M  END
$$$$
