No_2739-complexes_sdf/6BKW-FPZ/2024-09-17-14-21-01/
     RDKit          3D

 12 12  0  0  0  0  0  0  0  0999 V2000
   -7.2496    3.8871   27.4508 C   0  0  0  0  0  0  0  0  0  0  0  0
   -7.6161    2.7143   27.1523 C   0  0  0  0  0  0  0  0  0  0  0  0
   -7.1619    1.8631   27.5232 C   0  0  0  0  0  0  0  0  0  0  0  0
   -8.0036    5.1085   27.2100 C   0  0  0  0  0  0  0  0  0  0  0  0
   -9.0764    5.1562   26.4023 C   0  0  0  0  0  0  0  0  0  0  0  0
   -9.5423    3.9741   25.8512 C   0  0  0  0  0  0  0  0  0  0  0  0
   -8.9083    2.8788   26.2032 C   0  0  0  0  0  0  0  0  0  0  0  0
   -7.6183    0.4331   27.3404 C   0  0  0  0  0  0  0  0  0  0  0  0
   -8.8339    0.3453   26.6699 C   0  0  0  0  0  0  0  0  0  0  0  0
   -9.4636    1.5114   26.0058 C   0  0  0  0  0  0  0  0  0  0  0  0
   -8.1457    2.7769   25.0114 F   0  0  0  0  0  0  0  0  0  0  0  0
  -10.6615    1.3078   25.3890 C   0  0  0  0  0  0  0  0  0  0  0  0
  3  8  1  0
  8  9  2  3
  9 10  1  0
  7 11  1  0
 10 12  1  0
  3  2  1  0
  1  2  2  0
  2  7  1  0
  7  6  2  0
  6  5  1  0
  5  4  2  0
  4  1  1  0
M  END
$$$$
