No_2280-complexes_sdf/6BKW-FPZ/2024-09-17-14-21-01/
     RDKit          3D

 35 38  0  0  0  0  0  0  0  0999 V2000
   -7.9040    3.9820   27.1177 C   0  0  0  0  0  0  0  0  0  0  0  0
   -7.8663    4.8694   27.9238 C   0  0  0  0  0  0  0  0  0  0  0  0
   -9.0501    3.8017   26.2617 C   0  0  0  0  0  0  0  0  0  0  0  0
  -10.0189    4.7608   26.3707 C   0  0  0  0  0  0  0  0  0  0  0  0
   -8.6770    5.9780   27.9222 C   0  0  0  0  0  0  0  0  0  0  0  0
   -9.8040    5.8752   27.0958 C   0  0  0  0  0  0  0  0  0  0  0  0
   -9.1518    2.6191   25.4170 C   0  0  0  0  0  0  0  0  0  0  0  0
   -8.6413    1.4242   25.8318 C   0  0  0  0  0  0  0  0  0  0  0  0
   -8.7321    0.3067   25.0180 C   0  0  0  0  0  0  0  0  0  0  0  0
   -9.3519    0.4515   23.7775 C   0  0  0  0  0  0  0  0  0  0  0  0
   -9.7556    2.6899   24.1776 C   0  0  0  0  0  0  0  0  0  0  0  0
   -9.8156    1.6480   23.3533 C   0  0  0  0  0  0  0  0  0  0  0  0
  -10.4523    1.7590   22.0137 C   0  0  0  0  0  0  0  0  0  0  0  0
  -10.6982    0.7517   21.2517 C   0  0  0  0  0  0  0  0  0  0  0  0
  -10.6309    3.1103   21.4875 C   0  0  0  0  0  0  0  0  0  0  0  0
  -11.1953    3.3150   20.2595 C   0  0  0  0  0  0  0  0  0  0  0  0
  -11.2625    0.9136   19.9225 C   0  0  0  0  0  0  0  0  0  0  0  0
  -11.4780    2.2104   19.4637 C   0  0  0  0  0  0  0  0  0  0  0  0
   -8.1087   -0.9366   25.4376 C   0  0  0  0  0  0  0  0  0  0  0  0
   -7.6745   -1.6437   24.8667 O   0  0  0  0  0  0  0  0  0  0  0  0
   -8.5238   -1.2480   26.7775 O   0  0  0  0  0  0  0  0  0  0  0  0
   -7.8878   -2.2373   27.4007 C   0  0  0  0  0  0  0  0  0  0  0  0
   -6.8512   -1.8363   28.0553 C   0  0  0  0  0  0  0  0  0  0  0  0
   -6.3886   -0.5829   28.2919 C   0  0  0  0  0  0  0  0  0  0  0  0
   -5.0867   -0.2450   28.7531 C   0  0  0  0  0  0  0  0  0  0  0  0
   -4.5275    1.1046   28.7831 C   0  0  0  0  0  0  0  0  0  0  0  0
   -4.2582   -1.3014   29.1934 C   0  0  0  0  0  0  0  0  0  0  0  0
   -2.9633   -1.0096   29.7364 C   0  0  0  0  0  0  0  0  0  0  0  0
   -2.2056   -2.0032   30.0533 C   0  0  0  0  0  0  0  0  0  0  0  0
   -3.2979    1.3221   29.2489 N   0  0  0  0  0  0  0  0  0  0  0  0
   -2.5577    0.3919   29.6845 C   0  0  0  0  0  0  0  0  0  0  0  0
   -1.2507   -1.9350   30.8370 C   0  0  0  0  0  0  0  0  0  0  0  0
   -5.0816    2.2841   28.2684 N   0  0  0  0  0  0  0  0  0  0  0  0
   -0.4910   -3.0878   31.1567 C   0  0  0  0  0  0  0  0  0  0  0  0
   -0.8409   -4.2909   30.6480 C   0  0  0  0  0  0  0  0  0  0  0  0
  3  7  1  0
 12 13  1  0
  9 19  1  0
 19 20  2  0
 19 21  1  0
 21 22  1  0
 22 23  2  3
 23 24  1  0
 29 32  1  0
 26 33  1  0
 32 34  2  3
 34 35  1  0
 29 28  1  0
 24 25  1  0
  7  8  2  0
  8  9  1  0
  9 10  2  0
 10 12  1  0
 12 11  2  0
 11  7  1  0
 25 26  2  0
 26 30  1  0
 30 31  2  0
 31 28  1  0
 28 27  2  0
 27 25  1  0
  1  2  2  0
  2  5  1  0
  5  6  2  0
  6  4  1  0
  4  3  2  0
  3  1  1  0
 13 14  2  0
 14 17  1  0
 17 18  2  0
 18 16  1  0
 16 15  2  0
 15 13  1  0
M  END
$$$$
