No_2155-complexes_sdf/6BKW-FPZ/2024-09-17-14-21-01/
     RDKit          3D

 15 16  0  0  0  0  0  0  0  0999 V2000
   -7.9040    3.9820   27.1177 C   0  0  0  0  0  0  0  0  0  0  0  0
   -8.2057    2.8231   26.8733 C   0  0  0  0  0  0  0  0  0  0  0  0
   -7.0130    4.3706   28.1140 C   0  0  0  0  0  0  0  0  0  0  0  0
   -9.3829    2.4374   26.1668 C   0  0  0  0  0  0  0  0  0  0  0  0
   -9.6934    1.0230   26.0164 C   0  0  0  0  0  0  0  0  0  0  0  0
   -8.8160    0.1163   26.5021 C   0  0  0  0  0  0  0  0  0  0  0  0
   -7.6769    0.4330   27.1868 C   0  0  0  0  0  0  0  0  0  0  0  0
   -7.3087    1.7883   27.4390 C   0  0  0  0  0  0  0  0  0  0  0  0
   -8.8427    5.0802   26.6774 C   0  0  0  0  0  0  0  0  0  0  0  0
   -8.5463    6.4627   26.9587 C   0  0  0  0  0  0  0  0  0  0  0  0
   -6.8861    5.8035   28.5058 C   0  0  0  0  0  0  0  0  0  0  0  0
   -7.6138    6.7356   27.8731 C   0  0  0  0  0  0  0  0  0  0  0  0
   -6.8046   -0.6271   27.7635 C   0  0  0  0  0  0  0  0  0  0  0  0
   -7.2782   -1.7668   28.3231 C   0  0  0  0  0  0  0  0  0  0  0  0
   -6.4624   -2.6972   28.9382 C   0  0  0  0  0  0  0  0  0  0  0  0
  1  2  1  0
  7 13  1  0
 13 14  2  3
 14 15  1  0
  1  3  2  0
  3 11  1  0
 11 12  2  0
 12 10  1  0
 10  9  2  0
  9  1  1  0
  2  4  2  0
  4  5  1  0
  5  6  2  0
  6  7  1  0
  7  8  2  0
  8  2  1  0
M  END
$$$$
