No_2931-complexes_sdf/6BKW-FPZ/2024-09-17-14-21-01/
     RDKit          3D

 12 13  0  0  0  0  0  0  0  0999 V2000
   -7.9040    3.9820   27.1177 C   0  0  0  0  0  0  0  0  0  0  0  0
   -9.0711    4.3164   27.0630 C   0  0  0  0  0  0  0  0  0  0  0  0
   -9.5182    5.5541   27.5777 C   0  0  0  0  0  0  0  0  0  0  0  0
   -6.9424    4.7983   27.8424 C   0  0  0  0  0  0  0  0  0  0  0  0
   -7.3526    5.9739   28.3909 C   0  0  0  0  0  0  0  0  0  0  0  0
   -8.6479    6.3742   28.2169 C   0  0  0  0  0  0  0  0  0  0  0  0
   -9.9331    3.3424   26.2519 C   0  0  0  0  0  0  0  0  0  0  0  0
  -10.8743    2.7140   26.9346 C   0  0  0  0  0  0  0  0  0  0  0  0
  -11.7429    1.7279   26.3292 C   0  0  0  0  0  0  0  0  0  0  0  0
  -11.5719    1.5588   24.9558 C   0  0  0  0  0  0  0  0  0  0  0  0
   -9.8274    3.2275   24.8906 C   0  0  0  0  0  0  0  0  0  0  0  0
  -10.5530    2.3580   24.2508 C   0  0  0  0  0  0  0  0  0  0  0  0
  2  7  1  0
  7  8  2  0
  8  9  1  0
  9 10  2  0
 10 12  1  0
 12 11  2  0
 11  7  1  0
  1  2  2  0
  2  3  1  0
  3  6  2  0
  6  5  1  0
  5  4  2  0
  4  1  1  0
M  END
$$$$
