No_2329-complexes_sdf/6BKW-FPZ/2024-09-17-14-21-01/
     RDKit          3D

 20 21  0  0  0  0  0  0  0  0999 V2000
   -7.7129    4.2099   27.0854 C   0  0  0  0  0  0  0  0  0  0  0  0
   -8.2112    3.0637   26.9225 C   0  0  0  0  0  0  0  0  0  0  0  0
   -9.5629    2.7997   27.0678 C   0  0  0  0  0  0  0  0  0  0  0  0
   -8.5911    5.3704   27.2036 C   0  0  0  0  0  0  0  0  0  0  0  0
   -9.9544    5.1489   27.1401 C   0  0  0  0  0  0  0  0  0  0  0  0
  -10.4577    3.9280   27.0818 C   0  0  0  0  0  0  0  0  0  0  0  0
   -8.0077    6.7251   27.2943 C   0  0  0  0  0  0  0  0  0  0  0  0
  -10.0661    1.3994   26.9567 C   0  0  0  0  0  0  0  0  0  0  0  0
  -11.1066    1.0306   27.6224 C   0  0  0  0  0  0  0  0  0  0  0  0
  -11.5277   -0.3679   27.6762 C   0  0  0  0  0  0  0  0  0  0  0  0
  -10.7005   -1.2757   27.0548 C   0  0  0  0  0  0  0  0  0  0  0  0
   -9.3424    0.2200   26.5391 C   0  0  0  0  0  0  0  0  0  0  0  0
   -9.6231   -0.9752   26.5099 C   0  0  0  0  0  0  0  0  0  0  0  0
   -8.8367    7.6030   27.6729 F   0  0  0  0  0  0  0  0  0  0  0  0
   -7.3697    7.0487   26.1523 F   0  0  0  0  0  0  0  0  0  0  0  0
   -7.0119    6.6714   28.2343 F   0  0  0  0  0  0  0  0  0  0  0  0
  -11.2440   -2.5881   27.1547 F   0  0  0  0  0  0  0  0  0  0  0  0
  -12.6766   -0.6828   28.3226 F   0  0  0  0  0  0  0  0  0  0  0  0
   -8.8744   -1.9113   25.9581 F   0  0  0  0  0  0  0  0  0  0  0  0
  -12.1371    3.7606   27.1755 Cl  0  0  0  0  0  0  0  0  0  0  0  0
  4  7  1  0
  3  8  1  0
  7 14  1  0
  7 15  1  0
  7 16  1  0
 11 17  1  0
 10 18  1  0
 13 19  1  0
  6 20  1  0
  1  2  2  0
  2  3  1  0
  3  6  2  0
  6  5  1  0
  5  4  2  0
  4  1  1  0
  8  9  2  0
  9 10  1  0
 10 11  2  0
 11 13  1  0
 13 12  2  0
 12  8  1  0
M  END
$$$$
