No_2075-complexes_sdf/6BKW-FPZ/2024-09-17-14-21-01/
     RDKit          3D

 30 35  0  0  0  0  0  0  0  0999 V2000
   -7.9040    3.9820   27.1177 C   0  0  0  0  0  0  0  0  0  0  0  0
   -9.0711    4.3164   27.0630 C   0  0  0  0  0  0  0  0  0  0  0  0
   -9.8698    3.9665   25.9494 C   0  0  0  0  0  0  0  0  0  0  0  0
   -7.0332    4.5030   28.2025 C   0  0  0  0  0  0  0  0  0  0  0  0
   -9.4357    2.9501   25.1393 C   0  0  0  0  0  0  0  0  0  0  0  0
   -8.8270    2.1042   25.6837 C   0  0  0  0  0  0  0  0  0  0  0  0
   -7.7509    2.5860   26.6867 C   0  0  0  0  0  0  0  0  0  0  0  0
   -5.8817    4.0660   28.2974 O   0  0  0  0  0  0  0  0  0  0  0  0
   -7.5407    5.5596   28.9138 N   0  0  0  0  0  0  0  0  0  0  0  0
  -10.3878    2.5639   24.0594 C   0  0  0  0  0  0  0  0  0  0  0  0
  -10.2170    1.5059   23.3075 C   0  0  0  0  0  0  0  0  0  0  0  0
  -10.8991    1.2277   22.0711 C   0  0  0  0  0  0  0  0  0  0  0  0
  -11.7925    2.2045   21.6224 C   0  0  0  0  0  0  0  0  0  0  0  0
  -11.2533    3.5863   23.4243 C   0  0  0  0  0  0  0  0  0  0  0  0
  -11.9229    3.4021   22.2903 C   0  0  0  0  0  0  0  0  0  0  0  0
  -12.5454    1.9680   20.3667 C   0  0  0  0  0  0  0  0  0  0  0  0
  -12.7607    2.8347   19.5666 C   0  0  0  0  0  0  0  0  0  0  0  0
  -13.5167    2.6440   18.3632 C   0  0  0  0  0  0  0  0  0  0  0  0
  -13.9369    1.3546   18.0719 C   0  0  0  0  0  0  0  0  0  0  0  0
  -12.9707    0.6641   20.0040 C   0  0  0  0  0  0  0  0  0  0  0  0
  -13.6254    0.3901   18.9149 C   0  0  0  0  0  0  0  0  0  0  0  0
  -14.0649   -0.9854   18.5680 C   0  0  0  0  0  0  0  0  0  0  0  0
  -14.5178   -1.4302   17.7747 N   0  0  0  0  0  0  0  0  0  0  0  0
  -13.4443   -2.0036   19.5394 C   0  0  0  0  0  0  0  0  0  0  0  0
  -12.8098   -1.8414   20.6438 C   0  0  0  0  0  0  0  0  0  0  0  0
  -12.5117   -0.4984   20.9510 C   0  0  0  0  0  0  0  0  0  0  0  0
  -14.8489   -2.6207   17.4864 C   0  0  0  0  0  0  0  0  0  0  0  0
  -14.4540   -3.6125   18.2842 C   0  0  0  0  0  0  0  0  0  0  0  0
  -13.7984   -3.3563   19.3116 C   0  0  0  0  0  0  0  0  0  0  0  0
  -11.1212   -0.1425   21.7434 C   0  0  0  0  0  0  0  0  0  0  0  0
  1  4  1  0
  4  8  2  0
  4  9  1  0
  5 10  1  0
 13 16  1  0
 12 30  1  0
 26 30  1  0
  1  2  2  0
  2  3  1  0
  3  5  2  0
  5  6  1  0
  6  7  2  0
  7  1  1  0
 22 23  2  0
 23 27  1  0
 27 28  2  0
 28 29  1  0
 29 24  2  0
 10 11  2  0
 11 12  1  0
 12 13  2  0
 13 15  1  0
 15 14  2  0
 14 10  1  0
 16 17  2  0
 17 18  1  0
 18 19  2  0
 19 21  1  0
 20 16  1  0
 20 21  2  0
 21 22  1  0
 22 24  1  0
 24 25  1  0
 25 26  2  0
 26 20  1  0
M  END
$$$$
