No_2098-complexes_sdf/6BKW-FPZ/2024-09-17-14-21-01/
     RDKit          3D

 16 18  0  0  0  0  0  0  0  0999 V2000
   -7.9040    3.9820   27.1177 C   0  0  0  0  0  0  0  0  0  0  0  0
   -7.8663    4.8694   27.9238 C   0  0  0  0  0  0  0  0  0  0  0  0
   -9.0501    3.8017   26.2617 C   0  0  0  0  0  0  0  0  0  0  0  0
  -10.0189    4.7608   26.3707 C   0  0  0  0  0  0  0  0  0  0  0  0
   -8.6973    5.9722   27.8968 C   0  0  0  0  0  0  0  0  0  0  0  0
   -9.8216    5.8946   27.1241 C   0  0  0  0  0  0  0  0  0  0  0  0
   -9.1437    2.6293   25.4175 C   0  0  0  0  0  0  0  0  0  0  0  0
   -8.6170    1.4258   25.8177 C   0  0  0  0  0  0  0  0  0  0  0  0
   -8.5364    0.3667   24.9514 C   0  0  0  0  0  0  0  0  0  0  0  0
   -9.1729    0.5165   23.6906 C   0  0  0  0  0  0  0  0  0  0  0  0
   -9.7565    1.7166   23.2856 C   0  0  0  0  0  0  0  0  0  0  0  0
   -9.6658    2.7891   24.1337 C   0  0  0  0  0  0  0  0  0  0  0  0
  -10.3155    1.8446   21.9516 C   0  0  0  0  0  0  0  0  0  0  0  0
  -10.4254    3.1139   21.4804 C   0  0  0  0  0  0  0  0  0  0  0  0
  -10.5441    4.2220   22.4105 C   0  0  0  0  0  0  0  0  0  0  0  0
  -10.1386    4.0912   23.6703 C   0  0  0  0  0  0  0  0  0  0  0  0
  3  7  1  0
 12 16  2  0
 16 15  1  0
 15 14  2  0
 14 13  1  0
 13 11  2  0
  1  2  2  0
  2  5  1  0
  5  6  2  0
  6  4  1  0
  4  3  2  0
  3  1  1  0
  7  8  2  0
  8  9  1  0
  9 10  2  0
 10 11  1  0
 11 12  1  0
 12  7  1  0
M  END
$$$$
