No_2283-complexes_sdf/6BKW-FPZ/2024-09-17-14-21-01/
     RDKit          3D

 22 23  0  0  0  0  0  0  0  0999 V2000
   -7.9040    3.9820   27.1177 C   0  0  0  0  0  0  0  0  0  0  0  0
   -7.8663    4.8694   27.9238 C   0  0  0  0  0  0  0  0  0  0  0  0
   -9.0501    3.8017   26.2617 C   0  0  0  0  0  0  0  0  0  0  0  0
  -10.0189    4.7608   26.3707 C   0  0  0  0  0  0  0  0  0  0  0  0
   -8.6973    5.9722   27.8968 C   0  0  0  0  0  0  0  0  0  0  0  0
   -9.8216    5.8946   27.1241 C   0  0  0  0  0  0  0  0  0  0  0  0
   -9.1437    2.6293   25.4175 C   0  0  0  0  0  0  0  0  0  0  0  0
   -8.6100    1.5009   25.7781 N   0  0  0  0  0  0  0  0  0  0  0  0
  -10.1334    2.5286   24.4230 C   0  0  0  0  0  0  0  0  0  0  0  0
   -8.7663    0.4888   24.9445 C   0  0  0  0  0  0  0  0  0  0  0  0
  -10.8327    3.6145   23.9599 N   0  0  0  0  0  0  0  0  0  0  0  0
   -9.9775    1.2403   23.7840 C   0  0  0  0  0  0  0  0  0  0  0  0
  -11.8617    3.7112   23.4035 C   0  0  0  0  0  0  0  0  0  0  0  0
  -12.6996    2.6654   23.4983 C   0  0  0  0  0  0  0  0  0  0  0  0
  -13.1523    2.0524   24.1860 C   0  0  0  0  0  0  0  0  0  0  0  0
  -13.8158    1.4291   24.6403 C   0  0  0  0  0  0  0  0  0  0  0  0
  -14.3981    0.6198   25.5597 C   0  0  1  0  0  0  0  0  0  0  0  0
  -14.8194    1.0851   26.5321 O   0  0  0  0  0  0  0  0  0  0  0  0
  -14.6739   -0.6624   25.1754 N   0  0  0  0  0  0  0  0  0  0  0  0
  -14.2579   -1.3065   24.0972 C   0  0  0  0  0  0  0  0  0  0  0  0
  -13.3151   -1.5568   23.6507 C   0  0  0  0  0  0  0  0  0  0  0  0
  -13.0040   -2.2298   22.4177 C   0  0  0  0  0  0  0  0  0  0  0  0
  3  7  1  0
  7  8  2  0
  7  9  1  0
  8 10  1  0
  9 11  2  3
  9 12  1  0
 10 12  1  0
 11 13  1  0
 13 14  1  0
 14 15  1  0
 15 16  2  3
 16 17  1  0
 17 18  1  6
 17 19  1  0
 19 20  1  0
 20 21  2  3
 21 22  1  0
  1  2  2  0
  2  5  1  0
  5  6  2  0
  6  4  1  0
  4  3  2  0
  3  1  1  0
M  END
$$$$
