No_2434-complexes_sdf/6BKW-FPZ/2024-09-17-14-21-01/
     RDKit          3D

 37 41  0  0  0  0  0  0  0  0999 V2000
   -7.9040    3.9820   27.1177 C   0  0  0  0  0  0  0  0  0  0  0  0
   -9.0711    4.3164   27.0630 C   0  0  0  0  0  0  0  0  0  0  0  0
   -9.8698    3.9665   25.9494 C   0  0  0  0  0  0  0  0  0  0  0  0
   -7.0332    4.5030   28.2025 C   0  0  0  0  0  0  0  0  0  0  0  0
   -9.4357    2.9501   25.1393 C   0  0  0  0  0  0  0  0  0  0  0  0
   -8.2567    2.3218   25.4797 C   0  0  0  0  0  0  0  0  0  0  0  0
   -7.5105    2.7966   26.5752 C   0  0  0  0  0  0  0  0  0  0  0  0
  -10.2472    2.5204   24.0264 C   0  0  0  0  0  0  0  0  0  0  0  0
  -10.5935    3.4337   22.9918 C   0  0  0  0  0  0  0  0  0  0  0  0
  -11.0560    3.0889   21.7619 C   0  0  0  0  0  0  0  0  0  0  0  0
  -11.1640    1.6856   21.4603 C   0  0  0  0  0  0  0  0  0  0  0  0
  -10.1868    1.1976   23.5300 C   0  0  0  0  0  0  0  0  0  0  0  0
  -10.6663    0.7940   22.3167 C   0  0  0  0  0  0  0  0  0  0  0  0
   -6.9135    5.7186   28.4014 N   0  0  0  0  0  0  0  0  0  0  0  0
   -5.8997    3.8609   28.2178 O   0  0  0  0  0  0  0  0  0  0  0  0
  -10.5143    5.1597   23.3636 Cl  0  0  0  0  0  0  0  0  0  0  0  0
  -10.7453   -0.6506   21.9379 C   0  0  2  0  0  0  0  0  0  0  0  0
  -11.4710   -1.4028   22.1885 C   0  0  0  0  0  0  0  0  0  0  0  0
  -12.6388   -1.0329   23.0424 C   0  0  0  0  0  0  0  0  0  0  0  0
  -13.6555   -2.0204   23.4056 C   0  0  0  0  0  0  0  0  0  0  0  0
  -13.4868   -3.2554   22.8266 C   0  0  0  0  0  0  0  0  0  0  0  0
  -12.5256   -3.6543   22.0160 C   0  0  0  0  0  0  0  0  0  0  0  0
  -11.4951   -2.7833   21.6623 C   0  0  0  0  0  0  0  0  0  0  0  0
   -9.3828   -0.9700   21.2224 C   0  0  0  0  0  0  0  0  0  0  0  0
   -8.4638   -1.4276   21.7952 C   0  0  0  0  0  0  0  0  0  0  0  0
   -7.8207   -2.4045   22.1070 C   0  0  0  0  0  0  0  0  0  0  0  0
   -8.1802   -3.6499   21.7216 C   0  0  0  0  0  0  0  0  0  0  0  0
   -7.4812   -4.8426   22.1002 C   0  0  0  0  0  0  0  0  0  0  0  0
   -6.3053   -4.6548   22.8061 C   0  0  0  0  0  0  0  0  0  0  0  0
   -5.8166   -3.4176   23.1790 C   0  0  0  0  0  0  0  0  0  0  0  0
   -6.5044   -2.2917   22.8218 C   0  0  0  0  0  0  0  0  0  0  0  0
   -7.6554   -0.0794   22.3850 C   0  0  0  0  0  0  0  0  0  0  0  0
   -6.1086   -1.0111   23.1884 C   0  0  0  0  0  0  0  0  0  0  0  0
   -6.8312    0.5846   21.7069 C   0  0  0  0  0  0  0  0  0  0  0  0
   -5.2620   -1.0206   24.0356 O   0  0  0  0  0  0  0  0  0  0  0  0
   -6.1903    0.1977   22.6071 C   0  0  2  0  0  0  0  0  0  0  0  0
   -5.5054    1.2470   22.8049 O   0  0  0  0  0  0  0  0  0  0  0  0
  1  4  1  0
  5  8  1  0
  4 14  1  0
  4 15  2  0
  9 16  1  0
 13 17  1  0
 17 24  1  1
 24 25  1  0
 25 26  1  0
 25 32  1  0
 31 33  1  0
 32 34  1  0
 33 35  2  0
 33 36  1  0
 34 36  1  0
 36 37  1  6
 17 18  1  0
 18 19  2  0
 19 20  1  0
 20 21  2  0
 21 22  1  0
 22 23  2  0
 23 18  1  0
  8  9  2  0
  9 10  1  0
 10 11  2  0
 11 13  1  0
 13 12  2  0
 12  8  1  0
 26 27  2  0
 27 28  1  0
 28 29  2  0
 29 30  1  0
 30 31  2  0
 31 26  1  0
  1  2  2  0
  2  3  1  0
  3  5  2  0
  5  6  1  0
  6  7  2  0
  7  1  1  0
M  END
$$$$
