No_240-complexes_sdf/6BKW-FPZ/2024-09-17-14-21-01/
     RDKit          3D

 19 21  0  0  0  0  0  0  0  0999 V2000
   -7.9040    3.9820   27.1177 C   0  0  0  0  0  0  0  0  0  0  0  0
   -7.8663    4.8694   27.9238 C   0  0  0  0  0  0  0  0  0  0  0  0
   -7.4547    2.7080   27.4594 C   0  0  0  0  0  0  0  0  0  0  0  0
   -7.9337    1.5946   26.8372 C   0  0  0  0  0  0  0  0  0  0  0  0
   -8.9032    1.7881   25.8510 C   0  0  0  0  0  0  0  0  0  0  0  0
   -9.3787    2.9871   25.5530 C   0  0  0  0  0  0  0  0  0  0  0  0
   -8.9781    4.0300   26.2200 C   0  0  0  0  0  0  0  0  0  0  0  0
   -8.0013    6.0716   27.8481 N   0  0  0  0  0  0  0  0  0  0  0  0
  -10.3917    3.1448   24.4429 C   0  0  0  0  0  0  0  0  0  0  0  0
  -10.9884    4.3468   24.2273 C   0  0  0  0  0  0  0  0  0  0  0  0
  -10.5892    2.1534   23.5307 C   0  0  0  0  0  0  0  0  0  0  0  0
  -11.8794    4.5872   23.2285 C   0  0  0  0  0  0  0  0  0  0  0  0
  -11.4713    2.3362   22.4521 C   0  0  0  0  0  0  0  0  0  0  0  0
  -12.1121    3.6039   22.2945 C   0  0  0  0  0  0  0  0  0  0  0  0
   -8.7506    6.6214   26.8761 C   0  0  0  0  0  0  0  0  0  0  0  0
   -9.2375    5.5557   25.9740 C   0  0  0  0  0  0  0  0  0  0  0  0
   -7.3585    0.2396   27.0806 C   0  0  0  0  0  0  0  0  0  0  0  0
   -8.0198   -0.8822   26.9703 C   0  0  0  0  0  0  0  0  0  0  0  0
   -7.4939   -2.1192   27.3697 C   0  0  0  0  0  0  0  0  0  0  0  0
  6  9  1  0
  4 17  1  0
 17 18  2  3
 18 19  1  0
  1  2  2  0
  2  8  1  0
  8 15  2  0
 15 16  1  0
 16  7  2  0
  9 10  2  0
 10 12  1  0
 12 14  2  0
 14 13  1  0
 13 11  2  0
 11  9  1  0
  1  3  1  0
  3  4  2  0
  4  5  1  0
  5  6  2  0
  6  7  1  0
  7  1  1  0
M  END
$$$$
