No_2004-complexes_sdf/6BKW-FPZ/2024-09-17-14-21-01/
     RDKit          3D

 40 45  0  0  0  0  0  0  0  0999 V2000
   -7.2496    3.8871   27.4508 C   0  0  0  0  0  0  0  0  0  0  0  0
   -7.9379    4.9063   27.8518 C   0  0  0  0  0  0  0  0  0  0  0  0
   -9.3376    4.8647   27.7795 C   0  0  0  0  0  0  0  0  0  0  0  0
   -7.8544    2.6294   27.0414 C   0  0  0  0  0  0  0  0  0  0  0  0
   -9.2852    2.6570   27.0666 C   0  0  0  0  0  0  0  0  0  0  0  0
  -10.0126    3.7528   27.4890 C   0  0  0  0  0  0  0  0  0  0  0  0
  -11.4946    3.6924   27.5201 C   0  0  0  0  0  0  0  0  0  0  0  0
  -12.0376    2.7933   28.0586 N   0  0  0  0  0  0  0  0  0  0  0  0
  -13.2270    2.7265   28.6313 C   0  0  0  0  0  0  0  0  0  0  0  0
  -13.9532    3.8281   28.4319 C   0  0  0  0  0  0  0  0  0  0  0  0
  -13.4374    4.9829   27.8419 C   0  0  0  0  0  0  0  0  0  0  0  0
  -12.0811    4.9835   27.5183 C   0  0  0  0  0  0  0  0  0  0  0  0
   -7.1811    1.5635   26.7417 N   0  0  0  0  0  0  0  0  0  0  0  0
   -6.2544    0.9931   27.6217 C   0  0  0  0  0  0  0  0  0  0  0  0
   -5.6453   -0.2551   27.3383 C   0  0  0  0  0  0  0  0  0  0  0  0
   -7.6241    0.6858   25.8107 C   0  0  0  0  0  0  0  0  0  0  0  0
   -4.5614   -0.6333   28.1504 C   0  0  0  0  0  0  0  0  0  0  0  0
   -4.0742    0.2217   29.1706 C   0  0  0  0  0  0  0  0  0  0  0  0
   -4.5756    1.5641   29.2082 C   0  0  0  0  0  0  0  0  0  0  0  0
   -5.4888    1.9430   28.4008 C   0  0  0  0  0  0  0  0  0  0  0  0
  -13.9195    1.2190   29.0788 Cl  0  0  0  0  0  0  0  0  0  0  0  0
   -7.1098    6.3872   28.2829 Cl  0  0  0  0  0  0  0  0  0  0  0  0
   -8.8853    0.3092   25.8312 C   0  0  1  0  0  0  0  0  0  0  0  0
   -9.8233    1.4764   26.1565 C   0  0  0  0  0  0  0  0  0  0  0  0
   -2.9472   -0.1575   30.0547 C   0  0  0  0  0  0  0  0  0  0  0  0
   -3.2485   -1.2738   30.9416 C   0  0  0  0  0  0  0  0  0  0  0  0
   -2.3892   -1.5404   31.8577 C   0  0  0  0  0  0  0  0  0  0  0  0
   -2.6400   -2.5983   32.7757 C   0  0  0  0  0  0  0  0  0  0  0  0
   -3.8492   -3.2764   32.6894 C   0  0  0  0  0  0  0  0  0  0  0  0
   -4.7467   -2.9235   31.7240 C   0  0  0  0  0  0  0  0  0  0  0  0
   -4.4891   -1.8930   30.8484 C   0  0  0  0  0  0  0  0  0  0  0  0
   -9.4735   -0.2733   24.5374 C   0  0  0  0  0  0  0  0  0  0  0  0
  -10.6597   -0.1557   24.0817 C   0  0  0  0  0  0  0  0  0  0  0  0
  -11.0617   -0.7304   22.9597 C   0  0  0  0  0  0  0  0  0  0  0  0
  -10.0939   -1.3017   22.1017 C   0  0  0  0  0  0  0  0  0  0  0  0
   -8.7465   -1.3383   22.4630 C   0  0  0  0  0  0  0  0  0  0  0  0
   -8.3709   -0.8229   23.6571 C   0  0  0  0  0  0  0  0  0  0  0  0
   -9.1907   -0.7785   26.8972 C   0  0  0  0  0  0  0  0  0  0  0  0
   -9.7634   -0.4714   28.1461 C   0  0  0  0  0  0  0  0  0  0  0  0
   -8.9034   -2.1297   26.6020 C   0  0  0  0  0  0  0  0  0  0  0  0
  6  7  1  0
  4 13  1  0
 13 14  1  0
 13 16  1  0
  9 21  1  0
  2 22  1  0
 16 23  1  0
  5 24  1  0
 23 24  1  0
 18 25  1  0
 25 26  1  0
 23 32  1  0
 23 38  1  1
 38 39  1  0
 38 40  1  0
 32 33  2  0
 33 34  1  0
 34 35  2  0
 35 36  1  0
 36 37  2  0
 37 32  1  0
  1  2  2  0
  2  3  1  0
  3  6  2  0
  6  5  1  0
  5  4  2  0
  4  1  1  0
  7  8  2  0
  8  9  1  0
  9 10  2  0
 10 11  1  0
 11 12  2  0
 12  7  1  0
 26 27  2  0
 27 28  1  0
 28 29  2  0
 29 30  1  0
 30 31  2  0
 31 26  1  0
 14 15  2  0
 15 17  1  0
 17 18  2  0
 18 19  1  0
 19 20  2  0
 20 14  1  0
M  END
$$$$
