No_2072-complexes_sdf/6BKW-FPZ/2024-09-17-14-21-01/
     RDKit          3D

 13 13  0  0  0  0  0  0  0  0999 V2000
   -7.7129    4.2099   27.0854 C   0  0  0  0  0  0  0  0  0  0  0  0
   -8.2112    3.0637   26.9225 C   0  0  0  0  0  0  0  0  0  0  0  0
   -8.5108    5.3904   26.9436 C   0  0  0  0  0  0  0  0  0  0  0  0
   -7.9752    6.6981   27.2112 C   0  0  0  0  0  0  0  0  0  0  0  0
   -9.3028    2.7986   26.6391 C   0  0  0  0  0  0  0  0  0  0  0  0
  -10.2394    3.8537   26.3723 C   0  0  0  0  0  0  0  0  0  0  0  0
   -9.7885    5.1481   26.5368 C   0  0  0  0  0  0  0  0  0  0  0  0
   -7.2441    1.9923   27.2176 F   0  0  0  0  0  0  0  0  0  0  0  0
   -8.0871    7.7961   26.6446 N   0  0  0  0  0  0  0  0  0  0  0  0
   -7.0237    6.6415   28.2002 F   0  0  0  0  0  0  0  0  0  0  0  0
  -11.6190    3.6317   25.9214 C   0  0  0  0  0  0  0  0  0  0  0  0
  -12.6323    3.6976   26.8082 C   0  0  0  0  0  0  0  0  0  0  0  0
  -13.9867    3.5558   26.4143 C   0  0  0  0  0  0  0  0  0  0  0  0
  3  4  1  0
  2  8  1  0
  4  9  2  0
  4 10  1  0
  6 11  1  0
 11 12  2  3
 12 13  1  0
  1  2  2  0
  2  5  1  0
  5  6  2  0
  6  7  1  0
  7  3  2  0
  3  1  1  0
M  END
$$$$
