No_2334-complexes_sdf/6BKW-FPZ/2024-09-17-14-21-01/
     RDKit          3D

 15 17  0  0  0  0  0  0  0  0999 V2000
   -7.9040    3.9820   27.1177 C   0  0  0  0  0  0  0  0  0  0  0  0
   -7.8663    4.8694   27.9238 C   0  0  0  0  0  0  0  0  0  0  0  0
   -9.0491    3.8523   26.2542 C   0  0  0  0  0  0  0  0  0  0  0  0
   -8.7661    5.9491   27.9690 C   0  0  0  0  0  0  0  0  0  0  0  0
   -9.9295    4.8502   26.2323 C   0  0  0  0  0  0  0  0  0  0  0  0
   -9.8077    5.9288   27.0933 C   0  0  0  0  0  0  0  0  0  0  0  0
   -8.9047    2.6822   25.3193 C   0  0  0  0  0  0  0  0  0  0  0  0
   -9.7965    2.7547   24.3029 C   0  0  0  0  0  0  0  0  0  0  0  0
  -10.7302    3.8523   24.1445 C   0  0  0  0  0  0  0  0  0  0  0  0
  -10.7717    4.9053   25.1652 C   0  0  0  0  0  0  0  0  0  0  0  0
  -11.5991    3.7988   23.1413 O   0  0  0  0  0  0  0  0  0  0  0  0
  -11.1834    3.7732   21.9258 C   0  0  0  0  0  0  0  0  0  0  0  0
   -6.9590    2.9971   27.2325 F   0  0  0  0  0  0  0  0  0  0  0  0
   -9.9480    3.6167   21.8214 C   0  0  0  0  0  0  0  0  0  0  0  0
   -9.3077    2.5382   22.7037 C   0  0  0  0  0  0  0  0  0  0  0  0
  9 11  1  0
 11 12  1  0
  1 13  1  0
 12 14  1  0
  8 15  1  0
 14 15  1  0
  5 10  2  0
 10  9  1  0
  9  8  2  0
  8  7  1  0
  7  3  2  0
  1  2  2  0
  2  4  1  0
  4  6  2  0
  6  5  1  0
  5  3  1  0
  3  1  1  0
M  END
$$$$
