No_2756-complexes_sdf/6BKW-FPZ/2024-09-17-14-21-01/
     RDKit          3D

 17 18  0  0  0  0  0  0  0  0999 V2000
   -7.7129    4.2099   27.0854 C   0  0  0  0  0  0  0  0  0  0  0  0
   -8.2112    3.0637   26.9225 C   0  0  0  0  0  0  0  0  0  0  0  0
   -8.5108    5.3904   26.9436 C   0  0  0  0  0  0  0  0  0  0  0  0
   -9.7256    5.1955   26.3518 C   0  0  0  0  0  0  0  0  0  0  0  0
   -9.4995    2.8258   26.4878 C   0  0  0  0  0  0  0  0  0  0  0  0
  -10.2542    3.9691   26.2055 C   0  0  0  0  0  0  0  0  0  0  0  0
   -7.9168    6.7086   27.1908 C   0  0  0  0  0  0  0  0  0  0  0  0
   -7.1107    1.5076   27.3600 Br  0  0  0  0  0  0  0  0  0  0  0  0
   -6.9734    6.7339   28.0219 F   0  0  0  0  0  0  0  0  0  0  0  0
   -7.6019    7.4688   26.1154 F   0  0  0  0  0  0  0  0  0  0  0  0
  -11.6058    3.7977   25.6448 C   0  0  0  0  0  0  0  0  0  0  0  0
  -12.6678    3.6764   26.4650 C   0  0  0  0  0  0  0  0  0  0  0  0
  -12.4367    3.7763   27.9352 C   0  0  0  0  0  0  0  0  0  0  0  0
  -13.5647    3.7320   28.8372 C   0  0  0  0  0  0  0  0  0  0  0  0
  -14.8234    3.8174   28.2865 C   0  0  0  0  0  0  0  0  0  0  0  0
  -15.0495    3.8021   26.9473 C   0  0  0  0  0  0  0  0  0  0  0  0
  -13.9872    3.8275   26.0728 C   0  0  0  0  0  0  0  0  0  0  0  0
  3  7  1  0
  2  8  1  0
  7  9  1  0
  7 10  1  0
  6 11  1  0
 11 12  1  0
 12 13  2  0
 13 14  1  0
 14 15  2  0
 15 16  1  0
 16 17  2  0
 17 12  1  0
  1  2  2  0
  2  5  1  0
  5  6  2  0
  6  4  1  0
  4  3  2  0
  3  1  1  0
M  END
$$$$
