No_2140-complexes_sdf/6BKW-FPZ/2024-09-17-14-21-01/
     RDKit          3D

 21 22  0  0  0  0  0  0  0  0999 V2000
   -7.2496    3.8871   27.4508 C   0  0  0  0  0  0  0  0  0  0  0  0
   -7.6161    2.7143   27.1523 C   0  0  0  0  0  0  0  0  0  0  0  0
   -7.1618    1.8631   27.5232 C   0  0  0  0  0  0  0  0  0  0  0  0
   -8.0384    5.0866   27.3232 C   0  0  0  0  0  0  0  0  0  0  0  0
   -9.1224    5.1097   26.4856 C   0  0  0  0  0  0  0  0  0  0  0  0
   -8.9382    2.7289   26.5134 C   0  0  0  0  0  0  0  0  0  0  0  0
   -9.6249    3.8520   26.1646 C   0  0  0  0  0  0  0  0  0  0  0  0
   -5.7138    1.8400   28.0234 C   0  0  0  0  0  0  0  0  0  0  0  0
   -4.7416    1.5075   27.7116 C   0  0  0  0  0  0  0  0  0  0  0  0
   -4.4766    0.4764   26.7069 C   0  0  0  0  0  0  0  0  0  0  0  0
   -3.1275   -0.0983   26.4855 C   0  0  0  0  0  0  0  0  0  0  0  0
   -2.7641   -0.7346   27.2221 C   0  0  0  0  0  0  0  0  0  0  0  0
   -1.4330   -1.3831   27.1150 C   0  0  0  0  0  0  0  0  0  0  0  0
  -10.8209    3.8421   25.2990 C   0  0  0  0  0  0  0  0  0  0  0  0
  -10.7375    3.9742   23.8813 C   0  0  0  0  0  0  0  0  0  0  0  0
   -9.4603    4.0471   23.2294 C   0  0  0  0  0  0  0  0  0  0  0  0
   -9.5395    4.0737   21.8090 C   0  0  0  0  0  0  0  0  0  0  0  0
  -11.7845    4.0056   23.0574 C   0  0  0  0  0  0  0  0  0  0  0  0
  -13.1669    3.9630   23.7096 C   0  0  0  0  0  0  0  0  0  0  0  0
  -11.6692    4.1463   21.7223 C   0  0  0  0  0  0  0  0  0  0  0  0
  -10.5485    4.1680   21.0780 C   0  0  0  0  0  0  0  0  0  0  0  0
  2  3  1  0
  3  8  2  3
  8  9  1  0
  9 10  2  3
 10 11  1  0
 11 12  2  3
 12 13  1  0
  7 14  1  0
 18 19  1  0
 14 15  1  0
 15 16  2  0
 16 17  1  0
 17 21  2  0
 21 20  1  0
 20 18  2  0
 18 15  1  0
  1  2  2  0
  2  6  1  0
  6  7  2  0
  7  5  1  0
  5  4  2  0
  4  1  1  0
M  END
$$$$
