No_226-complexes_sdf/6BKW-FPZ/2024-09-17-14-21-01/
     RDKit          3D

 20 20  0  0  0  0  0  0  0  0999 V2000
   -7.9040    3.9820   27.1177 C   0  0  0  0  0  0  0  0  0  0  0  0
   -9.0711    4.3164   27.0630 C   0  0  0  0  0  0  0  0  0  0  0  0
   -9.5182    5.5541   27.5777 C   0  0  0  0  0  0  0  0  0  0  0  0
   -7.4468    2.6843   26.6499 C   0  0  0  0  0  0  0  0  0  0  0  0
   -8.3856    1.7878   26.2216 C   0  0  0  0  0  0  0  0  0  0  0  0
   -9.6812    2.2328   26.0889 C   0  0  0  0  0  0  0  0  0  0  0  0
  -10.0147    3.4312   26.5259 C   0  0  0  0  0  0  0  0  0  0  0  0
   -7.9132    0.4733   25.8127 C   0  0  0  0  0  0  0  0  0  0  0  0
   -7.9749    0.1125   24.6898 O   0  0  0  0  0  0  0  0  0  0  0  0
   -7.3939   -0.3555   26.7432 O   0  0  0  0  0  0  0  0  0  0  0  0
  -10.7043    5.6980   28.1145 F   0  0  0  0  0  0  0  0  0  0  0  0
   -8.7320    6.0297   28.6916 F   0  0  0  0  0  0  0  0  0  0  0  0
   -9.2263    6.6090   26.6964 F   0  0  0  0  0  0  0  0  0  0  0  0
   -6.9155   -1.2340   26.8149 C   0  0  0  0  0  0  0  0  0  0  0  0
   -7.4045   -2.2873   26.9784 C   0  0  0  0  0  0  0  0  0  0  0  0
   -5.4015   -1.1912   26.6150 C   0  0  0  0  0  0  0  0  0  0  0  0
   -4.5783   -0.0875   26.9695 C   0  0  0  0  0  0  0  0  0  0  0  0
   -4.7474    0.4719   28.2025 C   0  0  0  0  0  0  0  0  0  0  0  0
   -4.0139    1.6674   28.6218 C   0  0  0  0  0  0  0  0  0  0  0  0
   -6.9039   -3.4826   26.8226 C   0  0  0  0  0  0  0  0  0  0  0  0
  2  3  1  0
  5  8  1  0
  8  9  2  0
  8 10  1  0
  3 11  1  0
  3 12  1  0
  3 13  1  0
 10 14  1  0
 14 15  2  3
 14 16  1  0
 16 17  1  0
 17 18  2  3
 18 19  1  0
 15 20  1  0
  1  2  2  0
  2  7  1  0
  7  6  2  0
  6  5  1  0
  5  4  2  0
  4  1  1  0
M  END
$$$$
