No_2890-complexes_sdf/6BKW-FPZ/2024-09-17-14-21-01/
     RDKit          3D

 21 22  0  0  0  0  0  0  0  0999 V2000
   -7.9040    3.9820   27.1177 C   0  0  0  0  0  0  0  0  0  0  0  0
   -8.2057    2.8231   26.8733 C   0  0  0  0  0  0  0  0  0  0  0  0
   -8.7695    5.0740   26.7916 C   0  0  0  0  0  0  0  0  0  0  0  0
   -8.4337    6.4678   27.0913 C   0  0  0  0  0  0  0  0  0  0  0  0
   -9.3742    2.4311   26.2346 C   0  0  0  0  0  0  0  0  0  0  0  0
  -10.2395    3.4267   25.8887 C   0  0  0  0  0  0  0  0  0  0  0  0
   -9.9717    4.8453   26.1440 C   0  0  0  0  0  0  0  0  0  0  0  0
   -8.7608    7.4345   26.4250 N   0  0  0  0  0  0  0  0  0  0  0  0
   -7.2112    6.5754   27.8449 N   0  0  0  0  0  0  0  0  0  0  0  0
   -7.1618    1.8844   27.3493 N   0  0  0  0  0  0  0  0  0  0  0  0
   -5.9611    2.2427   27.6390 C   0  0  0  0  0  0  0  0  0  0  0  0
   -5.0822    1.1102   28.1546 C   0  0  0  0  0  0  0  0  0  0  0  0
   -7.3649    0.4712   27.2709 C   0  0  0  0  0  0  0  0  0  0  0  0
   -5.9157    0.0576   27.8966 C   0  0  0  0  0  0  0  0  0  0  0  0
   -5.6202   -1.3179   28.1286 C   0  0  1  0  0  0  0  0  0  0  0  0
   -4.8497   -1.9838   28.7543 Cl  0  0  0  0  0  0  0  0  0  0  0  0
   -6.7523   -2.1987   27.3202 C   0  0  0  0  0  0  0  0  0  0  0  0
   -6.9453   -2.2123   26.1680 C   0  0  0  0  0  0  0  0  0  0  0  0
   -7.8885   -3.0609   25.5117 C   0  0  0  0  0  0  0  0  0  0  0  0
   -8.6067   -3.8633   26.2977 C   0  0  0  0  0  0  0  0  0  0  0  0
   -8.4497   -3.8295   27.6852 C   0  0  0  0  0  0  0  0  0  0  0  0
  3  4  1  0
  4  8  2  0
  4  9  1  0
  2 10  1  0
 10 11  1  0
 11 12  2  0
 10 13  1  0
 12 14  1  0
 13 14  1  0
 14 15  1  0
 15 16  1  1
 15 17  1  0
 17 18  2  3
 18 19  1  0
 19 20  2  3
 20 21  1  0
  1  2  2  0
  2  5  1  0
  5  6  2  0
  6  7  1  0
  7  3  2  0
  3  1  1  0
M  END
$$$$
