No_2084-complexes_sdf/6BKW-FPZ/2024-09-17-14-21-01/
     RDKit          3D

 31 34  0  0  0  0  0  0  0  0999 V2000
   -7.7129    4.2099   27.0854 C   0  0  0  0  0  0  0  0  0  0  0  0
   -8.9133    4.4736   27.0998 C   0  0  0  0  0  0  0  0  0  0  0  0
   -9.7135    3.9633   26.0300 C   0  0  0  0  0  0  0  0  0  0  0  0
   -7.1708    2.9509   26.6517 C   0  0  0  0  0  0  0  0  0  0  0  0
   -8.1338    2.1226   26.0347 C   0  0  0  0  0  0  0  0  0  0  0  0
   -9.3389    2.6863   25.6841 C   0  0  0  0  0  0  0  0  0  0  0  0
  -10.2366    1.9249   24.7890 C   0  0  0  0  0  0  0  0  0  0  0  0
  -11.2385    2.1323   24.3141 C   0  0  0  0  0  0  0  0  0  0  0  0
   -9.3697    0.8183   24.1298 C   0  0  0  0  0  0  0  0  0  0  0  0
   -9.9889    0.0951   23.0938 C   0  0  0  0  0  0  0  0  0  0  0  0
  -11.9772    1.4405   23.3099 C   0  0  0  0  0  0  0  0  0  0  0  0
  -11.2935    0.3874   22.7076 C   0  0  0  0  0  0  0  0  0  0  0  0
   -6.9041    4.8276   28.0641 F   0  0  0  0  0  0  0  0  0  0  0  0
   -9.3947    5.8980   27.5390 C   0  0  0  0  0  0  0  0  0  0  0  0
  -13.2072    1.6771   22.8793 O   0  0  0  0  0  0  0  0  0  0  0  0
  -14.1278    1.9135   23.7911 C   0  0  0  0  0  0  0  0  0  0  0  0
  -14.5160    3.1417   23.9197 C   0  0  0  0  0  0  0  0  0  0  0  0
  -15.2609    3.6064   25.0826 C   0  0  0  0  0  0  0  0  0  0  0  0
  -15.7284    2.6647   25.9615 C   0  0  0  0  0  0  0  0  0  0  0  0
  -15.3017    1.3613   25.7666 C   0  0  0  0  0  0  0  0  0  0  0  0
  -14.4467    1.0110   24.8001 C   0  0  0  0  0  0  0  0  0  0  0  0
  -16.6082    3.0528   27.1047 C   0  0  0  0  0  0  0  0  0  0  0  0
  -17.5986    3.5278   27.0104 O   0  0  0  0  0  0  0  0  0  0  0  0
  -15.9853    2.7914   28.3027 O   0  0  0  0  0  0  0  0  0  0  0  0
  -15.9354    3.6094   29.2440 C   0  0  0  0  0  0  0  0  0  0  0  0
  -15.1688    3.5297   30.2192 C   0  0  0  0  0  0  0  0  0  0  0  0
  -14.0580    2.6070   30.3591 C   0  0  0  0  0  0  0  0  0  0  0  0
  -13.1099    2.6677   31.4119 C   0  0  0  0  0  0  0  0  0  0  0  0
  -13.3273    3.5828   32.4283 C   0  0  0  0  0  0  0  0  0  0  0  0
  -14.3552    4.5592   32.4300 C   0  0  0  0  0  0  0  0  0  0  0  0
  -15.1856    4.5227   31.3299 C   0  0  0  0  0  0  0  0  0  0  0  0
  6  7  1  0
  1 13  1  0
  2 14  1  0
 11 15  1  0
 15 16  1  0
 19 22  1  0
 22 23  2  0
 22 24  1  0
 24 25  1  0
 25 26  1  0
 26 27  2  0
 27 28  1  0
 28 29  2  0
 29 30  1  0
 30 31  2  0
 31 26  1  0
  7  8  2  0
  8 11  1  0
 11 12  2  0
 12 10  1  0
 10  9  2  0
  9  7  1  0
  1  2  2  0
  2  3  1  0
  3  6  2  0
  6  5  1  0
  5  4  2  0
  4  1  1  0
 16 17  2  0
 17 18  1  0
 18 19  2  0
 19 20  1  0
 20 21  2  0
 21 16  1  0
M  END
$$$$
