No_2982-complexes_sdf/6BKW-FPZ/2024-09-17-14-21-01/
     RDKit          3D

 27 31  0  0  0  0  0  0  0  0999 V2000
   -7.7129    4.2099   27.0854 C   0  0  2  0  0  0  0  0  0  0  0  0
   -8.2112    3.0637   26.9225 C   0  0  0  0  0  0  0  0  0  0  0  0
   -7.5138    1.9223   27.4249 C   0  0  0  0  0  0  0  0  0  0  0  0
   -7.4530    4.7989   28.0777 C   0  0  0  0  0  0  0  0  0  0  0  0
   -7.9523    0.6041   27.4004 C   0  0  0  0  0  0  0  0  0  0  0  0
   -9.2694    0.4663   26.8564 C   0  0  0  0  0  0  0  0  0  0  0  0
  -10.0192    1.4902   26.3804 C   0  0  0  0  0  0  0  0  0  0  0  0
   -9.5329    2.6745   26.3164 C   0  0  0  0  0  0  0  0  0  0  0  0
   -8.0751    6.0091   28.5494 C   0  0  0  0  0  0  0  0  0  0  0  0
   -9.0121    5.1599   26.5613 C   0  0  2  0  0  0  0  0  0  0  0  0
   -8.7650    6.3525   27.3093 C   0  0  0  0  0  0  0  0  0  0  0  0
  -10.1064    4.4622   26.3061 C   0  0  0  0  0  0  0  0  0  0  0  0
   -7.0274   -0.3934   27.8276 C   0  0  1  0  0  0  0  0  0  0  0  0
   -7.5399   -1.5759   28.4434 C   0  0  0  0  0  0  0  0  0  0  0  0
   -8.9102   -1.7225   28.6541 C   0  0  0  0  0  0  0  0  0  0  0  0
   -9.4712   -2.8147   29.2295 C   0  0  0  0  0  0  0  0  0  0  0  0
   -8.5955   -3.6578   29.8574 C   0  0  0  0  0  0  0  0  0  0  0  0
   -7.2615   -3.5157   29.8447 C   0  0  0  0  0  0  0  0  0  0  0  0
   -6.7154   -2.4632   29.1977 C   0  0  0  0  0  0  0  0  0  0  0  0
   -6.0193   -0.8289   26.7889 C   0  0  0  0  0  0  0  0  0  0  0  0
  -11.3947    1.3219   25.9459 C   0  0  0  0  0  0  0  0  0  0  0  0
  -11.8689    1.6968   25.1319 C   0  0  0  0  0  0  0  0  0  0  0  0
  -11.1136    2.5539   24.1140 C   0  0  0  0  0  0  0  0  0  0  0  0
  -11.7987    3.2306   23.0297 C   0  0  0  0  0  0  0  0  0  0  0  0
  -12.9278    3.2736   23.0041 C   0  0  0  0  0  0  0  0  0  0  0  0
  -13.8313    2.5497   23.8758 C   0  0  0  0  0  0  0  0  0  0  0  0
  -13.3211    1.8992   24.8758 C   0  0  0  0  0  0  0  0  0  0  0  0
  1  4  1  1
  4  9  2  0
  1 10  1  0
  9 11  1  0
 10 11  1  1
  8 12  1  0
 10 12  1  0
  5 13  1  0
 13 20  1  6
  7 21  1  0
  1  2  1  0
 13 14  1  0
 21 22  1  0
 14 15  2  0
 15 16  1  0
 16 17  2  0
 17 18  1  0
 18 19  2  0
 19 14  1  0
 22 23  2  0
 23 24  1  0
 24 25  2  0
 25 26  1  0
 26 27  2  0
 27 22  1  0
  2  3  2  0
  3  5  1  0
  5  6  2  0
  6  7  1  0
  7  8  2  0
  8  2  1  0
M  END
$$$$
