No_2359-complexes_sdf/6BKW-FPZ/2024-09-17-14-21-01/
     RDKit          3D

 17 19  0  0  0  0  0  0  0  0999 V2000
   -7.7129    4.2099   27.0854 C   0  0  0  0  0  0  0  0  0  0  0  0
   -7.7814    5.1722   27.8972 C   0  0  0  0  0  0  0  0  0  0  0  0
   -8.8776    3.8408   26.3416 C   0  0  0  0  0  0  0  0  0  0  0  0
   -9.9844    4.6492   26.4743 C   0  0  0  0  0  0  0  0  0  0  0  0
   -8.8033    6.1375   27.8728 C   0  0  0  0  0  0  0  0  0  0  0  0
   -9.9554    5.8280   27.1737 C   0  0  0  0  0  0  0  0  0  0  0  0
   -8.8704    2.7021   25.6054 N   0  0  0  0  0  0  0  0  0  0  0  0
   -8.3267    1.5520   26.1094 C   0  0  0  0  0  0  0  0  0  0  0  0
   -7.8779    1.4130   27.3256 C   0  0  0  0  0  0  0  0  0  0  0  0
   -8.4040    0.4554   25.1274 C   0  0  0  0  0  0  0  0  0  0  0  0
   -7.2995    0.1097   27.6399 C   0  0  0  0  0  0  0  0  0  0  0  0
   -7.8361   -0.7491   25.5045 C   0  0  0  0  0  0  0  0  0  0  0  0
   -7.3068   -0.9193   26.7827 C   0  0  0  0  0  0  0  0  0  0  0  0
   -9.5684    2.7647   24.3342 C   0  0  0  0  0  0  0  0  0  0  0  0
  -10.3119    3.8800   24.0664 C   0  0  0  0  0  0  0  0  0  0  0  0
  -10.7479    4.6278   25.1906 C   0  0  0  0  0  0  0  0  0  0  0  0
   -9.6102    1.7898   23.6018 O   0  0  0  0  0  0  0  0  0  0  0  0
  3  7  1  0
  7  8  1  0
  7 14  1  0
 14 15  1  0
  4 16  1  0
 14 17  2  0
 16 15  1  0
  8  9  2  0
  9 11  1  0
 11 13  2  0
 13 12  1  0
 12 10  2  0
 10  8  1  0
  1  2  2  0
  2  5  1  0
  5  6  2  0
  6  4  1  0
  4  3  2  0
  3  1  1  0
M  END
$$$$
