No_2394-complexes_sdf/6BKW-FPZ/2024-09-17-14-21-01/
     RDKit          3D

 15 16  0  0  0  0  0  0  0  0999 V2000
   -7.7129    4.2099   27.0854 C   0  0  0  0  0  0  0  0  0  0  0  0
   -8.9133    4.4736   27.0998 C   0  0  0  0  0  0  0  0  0  0  0  0
   -9.4643    5.5426   27.7628 C   0  0  0  0  0  0  0  0  0  0  0  0
   -9.5376    4.3102   25.7199 C   0  0  0  0  0  0  0  0  0  0  0  0
   -6.8961    4.6728   28.2497 C   0  0  0  0  0  0  0  0  0  0  0  0
  -10.3885    3.1311   25.4813 C   0  0  0  0  0  0  0  0  0  0  0  0
  -10.7344    2.8463   24.2515 C   0  0  0  0  0  0  0  0  0  0  0  0
  -11.4057    1.6440   23.8952 C   0  0  0  0  0  0  0  0  0  0  0  0
  -11.6763    0.7614   24.8894 C   0  0  0  0  0  0  0  0  0  0  0  0
  -11.3052    1.0474   26.2109 C   0  0  0  0  0  0  0  0  0  0  0  0
  -10.5745    2.2115   26.5539 C   0  0  0  0  0  0  0  0  0  0  0  0
   -7.4051    5.8032   28.9347 C   0  0  0  0  0  0  0  0  0  0  0  0
   -8.7041    6.2088   28.7245 C   0  0  0  0  0  0  0  0  0  0  0  0
   -9.8353    5.3181   25.0165 O   0  0  0  0  0  0  0  0  0  0  0  0
   -5.6246    4.2581   28.3479 O   0  0  0  0  0  0  0  0  0  0  0  0
  2  4  1  0
  4  6  1  0
  4 14  2  0
  5 15  1  0
  6  7  2  0
  7  8  1  0
  8  9  2  0
  9 10  1  0
 10 11  2  0
 11  6  1  0
  1  2  2  0
  2  3  1  0
  3 13  2  0
 13 12  1  0
 12  5  2  0
  5  1  1  0
M  END
$$$$
