No_2676-complexes_sdf/6BKW-FPZ/2024-09-17-14-21-01/
     RDKit          3D

 11 12  0  0  0  0  0  0  0  0999 V2000
   -7.7129    4.2099   27.0854 C   0  0  0  0  0  0  0  0  0  0  0  0
   -8.2112    3.0637   26.9225 C   0  0  0  0  0  0  0  0  0  0  0  0
   -8.4224    5.2106   27.8516 C   0  0  0  0  0  0  0  0  0  0  0  0
   -9.5628    2.7160   27.4089 C   0  0  0  0  0  0  0  0  0  0  0  0
  -10.2639    3.7034   28.1156 C   0  0  0  0  0  0  0  0  0  0  0  0
   -9.7059    4.9514   28.3169 C   0  0  0  0  0  0  0  0  0  0  0  0
  -11.6210    3.4159   28.6340 C   0  0  0  0  0  0  0  0  0  0  0  0
  -12.0063    2.0964   28.7914 C   0  0  0  0  0  0  0  0  0  0  0  0
  -11.2933    1.1083   28.1300 C   0  0  0  0  0  0  0  0  0  0  0  0
  -10.0265    1.3698   27.4740 C   0  0  0  0  0  0  0  0  0  0  0  0
   -7.6596    6.9513   27.9199 Br  0  0  0  0  0  0  0  0  0  0  0  0
  3 11  1  0
  1  2  2  0
  2  4  1  0
  5  6  1  0
  6  3  2  0
  3  1  1  0
  4  5  2  0
  5  7  1  0
  7  8  2  0
  8  9  1  0
  9 10  2  0
 10  4  1  0
M  END
$$$$
