No_2422-complexes_sdf/6BKW-FPZ/2024-09-17-14-21-01/
     RDKit          3D

 22 24  0  0  0  0  0  0  0  0999 V2000
   -7.7129    4.2099   27.0854 C   0  0  0  0  0  0  0  0  0  0  0  0
   -8.2112    3.0637   26.9225 C   0  0  0  0  0  0  0  0  0  0  0  0
   -8.5108    5.3904   26.9436 C   0  0  0  0  0  0  0  0  0  0  0  0
   -9.7256    5.1955   26.3518 C   0  0  0  0  0  0  0  0  0  0  0  0
   -9.4995    2.8258   26.4878 C   0  0  0  0  0  0  0  0  0  0  0  0
  -10.2542    3.9691   26.2055 C   0  0  0  0  0  0  0  0  0  0  0  0
   -7.9135    6.7086   27.1885 C   0  0  0  0  0  0  0  0  0  0  0  0
   -7.3624    1.8198   27.2561 C   0  0  0  0  0  0  0  0  0  0  0  0
   -6.2192    2.0034   27.7790 O   0  0  0  0  0  0  0  0  0  0  0  0
   -7.8327    0.5999   27.1776 N   0  0  0  0  0  0  0  0  0  0  0  0
   -9.0647    0.1976   26.6791 C   0  0  2  0  0  0  0  0  0  0  0  0
   -9.9663    1.3605   26.3299 C   0  0  2  0  0  0  0  0  0  0  0  0
   -8.5760    7.8321   26.8023 N   0  0  0  0  0  0  0  0  0  0  0  0
   -6.8274    6.7867   27.8144 O   0  0  0  0  0  0  0  0  0  0  0  0
   -9.4795   -1.0744   26.6333 C   0  0  0  0  0  0  0  0  0  0  0  0
   -9.0978   -1.8441   27.2630 C   0  0  0  0  0  0  0  0  0  0  0  0
   -8.0668   -1.5112   28.3565 C   0  0  0  0  0  0  0  0  0  0  0  0
   -7.2589   -0.3566   28.0564 C   0  0  0  0  0  0  0  0  0  0  0  0
  -10.9030    1.1433   25.3109 C   0  0  0  0  0  0  0  0  0  0  0  0
  -11.9139    0.8512   25.9151 F   0  0  0  0  0  0  0  0  0  0  0  0
  -10.5375    0.2278   24.4217 F   0  0  0  0  0  0  0  0  0  0  0  0
  -11.2038    2.2505   24.5521 F   0  0  0  0  0  0  0  0  0  0  0  0
  3  7  1  0
  2  8  1  0
  8  9  2  0
  8 10  1  0
 10 11  1  0
  5 12  1  0
  7 13  1  0
  7 14  2  0
 11 15  1  1
 16 17  1  0
 10 18  1  0
 12 19  1  6
 19 20  1  0
 19 21  1  0
 19 22  1  0
 12 11  1  0
 15 16  1  0
 17 18  1  0
  1  2  2  0
  2  5  1  0
  5  6  2  0
  6  4  1  0
  4  3  2  0
  3  1  1  0
M  END
$$$$
