No_2093-complexes_sdf/6BKW-FPZ/2024-09-17-14-21-01/
     RDKit          3D

 13 14  0  0  0  0  0  0  0  0999 V2000
   -7.2496    3.8871   27.4508 C   0  0  0  0  0  0  0  0  0  0  0  0
   -7.9379    4.9063   27.8518 C   0  0  0  0  0  0  0  0  0  0  0  0
   -7.5112    6.1898   27.6280 C   0  0  0  0  0  0  0  0  0  0  0  0
   -7.8078    2.6331   27.2522 C   0  0  0  0  0  0  0  0  0  0  0  0
   -9.1846    2.4724   27.5426 C   0  0  0  0  0  0  0  0  0  0  0  0
   -9.9168    3.5155   28.0405 C   0  0  0  0  0  0  0  0  0  0  0  0
   -9.3366    4.7963   28.1727 C   0  0  0  0  0  0  0  0  0  0  0  0
  -11.2720    3.0626   28.3580 C   0  0  0  0  0  0  0  0  0  0  0  0
  -11.7206    1.8545   28.5498 C   0  0  0  0  0  0  0  0  0  0  0  0
  -10.8295    0.8373   27.9810 C   0  0  0  0  0  0  0  0  0  0  0  0
   -9.6253    1.1279   27.5805 C   0  0  0  0  0  0  0  0  0  0  0  0
   -6.9985    1.5042   26.8454 C   0  0  0  0  0  0  0  0  0  0  0  0
   -5.8798    1.2997   27.4474 O   0  0  0  0  0  0  0  0  0  0  0  0
  4 12  1  0
 12 13  2  0
  3  2  1  0
  6  8  1  0
  8  9  2  0
  9 10  1  0
 10 11  2  0
 11  5  1  0
  1  2  2  0
  2  7  1  0
  7  6  2  0
  6  5  1  0
  5  4  2  0
  4  1  1  0
M  END
$$$$
