No_2977-complexes_sdf/6BKW-FPZ/2024-09-17-14-21-01/
     RDKit          3D

 15 16  0  0  0  0  0  0  0  0999 V2000
   -7.9040    3.9820   27.1177 C   0  0  0  0  0  0  0  0  0  0  0  0
   -9.0711    4.3164   27.0630 C   0  0  0  0  0  0  0  0  0  0  0  0
   -9.5294    5.4517   27.7215 C   0  0  0  0  0  0  0  0  0  0  0  0
   -6.9328    4.7309   27.8881 C   0  0  0  0  0  0  0  0  0  0  0  0
   -7.3377    5.8421   28.5537 C   0  0  0  0  0  0  0  0  0  0  0  0
   -8.6411    6.2609   28.3972 C   0  0  0  0  0  0  0  0  0  0  0  0
  -10.0467    3.4917   26.2630 C   0  0  0  0  0  0  0  0  0  0  0  0
  -10.5865    3.7278   25.3547 C   0  0  0  0  0  0  0  0  0  0  0  0
  -11.4289    2.9431   24.4579 C   0  0  0  0  0  0  0  0  0  0  0  0
  -11.4990    1.6326   24.7978 C   0  0  0  0  0  0  0  0  0  0  0  0
  -10.0789    1.9913   26.4894 C   0  0  0  0  0  0  0  0  0  0  0  0
  -10.7846    1.1448   25.8479 C   0  0  0  0  0  0  0  0  0  0  0  0
  -10.8395   -0.2997   26.1887 C   0  0  0  0  0  0  0  0  0  0  0  0
  -11.5625   -0.8160   26.7389 C   0  0  0  0  0  0  0  0  0  0  0  0
  -11.5375   -2.2312   27.2155 C   0  0  0  0  0  0  0  0  0  0  0  0
  2  7  1  0
 12 13  1  0
 13 14  2  3
 14 15  1  0
  7  8  2  0
  8  9  1  0
  9 10  2  0
 10 12  1  0
 12 11  2  0
 11  7  1  0
  1  2  2  0
  2  3  1  0
  3  6  2  0
  6  5  1  0
  5  4  2  0
  4  1  1  0
M  END
$$$$
