No_2125-complexes_sdf/6BKW-FPZ/2024-09-17-14-21-01/
     RDKit          3D

 21 23  0  0  0  0  0  0  0  0999 V2000
   -7.7129    4.2099   27.0854 C   0  0  0  0  0  0  0  0  0  0  0  0
   -7.7814    5.1722   27.8972 C   0  0  0  0  0  0  0  0  0  0  0  0
   -8.8776    3.8408   26.3416 C   0  0  0  0  0  0  0  0  0  0  0  0
   -8.9136    2.6330   25.5655 C   0  0  0  0  0  0  0  0  0  0  0  0
   -8.8380    6.0976   27.6639 C   0  0  0  0  0  0  0  0  0  0  0  0
   -9.7292    4.8836   26.1616 C   0  0  0  0  0  0  0  0  0  0  0  0
   -9.8251    5.9571   26.8382 C   0  0  0  0  0  0  0  0  0  0  0  0
   -8.3147    1.4827   26.2146 C   0  0  0  0  0  0  0  0  0  0  0  0
   -8.9496    0.5920   26.5072 C   0  0  0  0  0  0  0  0  0  0  0  0
   -8.3975   -0.5852   27.2948 C   0  0  0  0  0  0  0  0  0  0  0  0
   -9.2057   -1.6396   27.7957 C   0  0  0  0  0  0  0  0  0  0  0  0
  -10.5831   -1.4560   27.7286 C   0  0  0  0  0  0  0  0  0  0  0  0
  -11.1531   -0.3477   27.1592 C   0  0  0  0  0  0  0  0  0  0  0  0
  -10.4115    0.6881   26.6725 C   0  0  0  0  0  0  0  0  0  0  0  0
   -6.9959   -0.8727   27.5773 C   0  0  0  0  0  0  0  0  0  0  0  0
   -6.1351    0.1950   27.3578 C   0  0  0  0  0  0  0  0  0  0  0  0
   -4.7464    0.1013   27.7263 C   0  0  0  0  0  0  0  0  0  0  0  0
   -3.9744    1.3563   27.7182 C   0  0  0  0  0  0  0  0  0  0  0  0
   -4.1574   -1.0815   28.0692 C   0  0  0  0  0  0  0  0  0  0  0  0
   -5.0525   -2.1763   28.2412 C   0  0  0  0  0  0  0  0  0  0  0  0
   -6.4308   -2.0242   27.9991 C   0  0  0  0  0  0  0  0  0  0  0  0
  3  4  1  0
  4  8  1  0
 10 15  1  0
 17 18  1  0
  8  9  1  0
 15 16  2  0
 16 17  1  0
 17 19  2  0
 19 20  1  0
 20 21  2  0
 21 15  1  0
  9 10  1  0
 10 11  2  0
 11 12  1  0
 12 13  2  0
 13 14  1  0
 14  9  2  0
  1  2  2  0
  2  5  1  0
  5  7  2  0
  7  6  1  0
  6  3  2  0
  3  1  1  0
M  END
$$$$
