No_2959-complexes_sdf/6BKW-FPZ/2024-09-17-14-21-01/
     RDKit          3D

 28 32  0  0  0  0  0  0  0  0999 V2000
   -7.7129    4.2099   27.0854 C   0  0  0  0  0  0  0  0  0  0  0  0
   -7.7814    5.1722   27.8972 C   0  0  0  0  0  0  0  0  0  0  0  0
   -8.8998    3.8713   26.3707 C   0  0  0  0  0  0  0  0  0  0  0  0
   -9.9938    4.6774   26.5446 C   0  0  0  0  0  0  0  0  0  0  0  0
   -8.7789    6.1536   27.9256 C   0  0  0  0  0  0  0  0  0  0  0  0
   -9.9428    5.8398   27.2296 C   0  0  0  0  0  0  0  0  0  0  0  0
   -8.9171    2.4497   25.4307 Cl  0  0  0  0  0  0  0  0  0  0  0  0
  -11.0885    4.3857   25.7649 O   0  0  0  0  0  0  0  0  0  0  0  0
  -11.1059    4.3103   24.4858 C   0  0  0  0  0  0  0  0  0  0  0  0
  -10.1511    4.5708   23.7101 C   0  0  0  0  0  0  0  0  0  0  0  0
  -12.3616    4.0429   23.8993 C   0  0  0  0  0  0  0  0  0  0  0  0
  -10.3015    4.6014   22.2992 C   0  0  0  0  0  0  0  0  0  0  0  0
  -12.6098    4.1190   22.5681 C   0  0  0  0  0  0  0  0  0  0  0  0
  -11.4842    4.3868   21.7213 C   0  0  0  0  0  0  0  0  0  0  0  0
  -13.8950    3.8561   21.9376 C   0  0  0  0  0  0  0  0  0  0  0  0
  -14.3189    2.6910   22.0447 N   0  0  0  0  0  0  0  0  0  0  0  0
  -13.9319    1.7827   22.7029 C   0  0  0  0  0  0  0  0  0  0  0  0
  -13.7681    0.7400   22.8070 C   0  0  0  0  0  0  0  0  0  0  0  0
  -13.1812   -0.1431   23.7857 C   0  0  0  0  0  0  0  0  0  0  0  0
  -12.7940    0.5143   24.9120 C   0  0  0  0  0  0  0  0  0  0  0  0
  -12.9967    1.8060   25.1318 C   0  0  0  0  0  0  0  0  0  0  0  0
  -13.4705    2.5322   24.1220 C   0  0  0  0  0  0  0  0  0  0  0  0
  -15.3949    2.3228   21.0805 C   0  0  0  0  0  0  0  0  0  0  0  0
  -15.9419    3.2167   20.2819 C   0  0  0  0  0  0  0  0  0  0  0  0
  -15.8308    1.0037   21.0460 C   0  0  0  0  0  0  0  0  0  0  0  0
  -16.8713    0.7302   20.3027 C   0  0  0  0  0  0  0  0  0  0  0  0
  -16.9815    2.9625   19.4858 C   0  0  0  0  0  0  0  0  0  0  0  0
  -17.4369    1.6787   19.4756 C   0  0  0  0  0  0  0  0  0  0  0  0
  3  7  1  0
  4  8  1  0
  8  9  1  0
 13 15  1  0
 15 16  1  0
 16 17  1  0
 11 22  1  0
 16 23  1  0
 23 24  2  0
 24 27  1  0
 27 28  2  0
 28 26  1  0
 26 25  2  0
 25 23  1  0
  9 10  2  0
 10 12  1  0
 12 14  2  0
 14 13  1  0
 13 11  2  0
 11  9  1  0
 17 18  2  0
 18 19  1  0
 19 20  2  0
 20 21  1  0
 21 22  2  0
 22 17  1  0
  1  2  2  0
  2  5  1  0
  5  6  2  0
  6  4  1  0
  4  3  2  0
  3  1  1  0
M  END
$$$$
