No_2821-complexes_sdf/6BKW-FPZ/2024-09-17-14-21-01/
     RDKit          3D

  8  8  0  0  0  0  0  0  0  0999 V2000
   -7.2496    3.8871   27.4508 C   0  0  0  0  0  0  0  0  0  0  0  0
   -7.6161    2.7143   27.1523 C   0  0  0  0  0  0  0  0  0  0  0  0
   -6.9719    1.5838   27.5324 C   0  0  0  0  0  0  0  0  0  0  0  0
   -7.4590    0.2827   27.2615 C   0  0  0  0  0  0  0  0  0  0  0  0
   -8.7521    2.5117   26.3068 C   0  0  0  0  0  0  0  0  0  0  0  0
   -9.2100    1.2391   25.9794 C   0  0  0  0  0  0  0  0  0  0  0  0
   -8.5134    0.1313   26.5112 C   0  0  0  0  0  0  0  0  0  0  0  0
   -6.5082    4.3057   28.5556 C   0  0  0  0  0  0  0  0  0  0  0  0
  1  8  1  0
  1  2  1  0
  2  3  2  0
  3  4  1  0
  4  7  2  0
  7  6  1  0
  6  5  2  0
  5  2  1  0
M  END
$$$$
