No_2563-complexes_sdf/6BKW-FPZ/2024-09-17-14-21-01/
     RDKit          3D

 21 24  0  0  0  0  0  0  0  0999 V2000
   -7.2496    3.8871   27.4508 C   0  0  0  0  0  0  0  0  0  0  0  0
   -8.5096    4.0291   27.2770 C   0  0  0  0  0  0  0  0  0  0  0  0
   -9.2677    5.1714   27.5773 C   0  0  0  0  0  0  0  0  0  0  0  0
   -6.5711    2.6400   27.2842 C   0  0  0  0  0  0  0  0  0  0  0  0
   -7.2939    1.5094   27.0532 C   0  0  0  0  0  0  0  0  0  0  0  0
   -8.6122    1.6580   26.7575 C   0  0  0  0  0  0  0  0  0  0  0  0
   -9.2984    2.8494   26.9904 C   0  0  0  0  0  0  0  0  0  0  0  0
   -8.5439    6.4004   27.5644 C   0  0  0  0  0  0  0  0  0  0  0  0
  -10.6456    5.1416   27.8945 C   0  0  0  0  0  0  0  0  0  0  0  0
   -6.5903    0.2717   26.8533 C   0  0  0  0  0  0  0  0  0  0  0  0
   -6.8751   -0.5588   25.8942 C   0  0  0  0  0  0  0  0  0  0  0  0
   -7.9009   -0.2324   24.9819 C   0  0  0  0  0  0  0  0  0  0  0  0
   -9.1246    0.7300   25.7147 C   0  0  0  0  0  0  0  0  0  0  0  0
  -10.3902    0.7285   25.1814 C   0  0  0  0  0  0  0  0  0  0  0  0
  -11.3927    0.3294   25.8652 C   0  0  0  0  0  0  0  0  0  0  0  0
  -10.6186    1.2316   23.8527 C   0  0  0  0  0  0  0  0  0  0  0  0
  -11.8424    1.3548   23.3170 C   0  0  0  0  0  0  0  0  0  0  0  0
  -12.7404    0.4189   25.4065 C   0  0  0  0  0  0  0  0  0  0  0  0
  -12.9231    0.9244   24.0947 C   0  0  0  0  0  0  0  0  0  0  0  0
   -7.2117    6.4425   27.2597 C   0  0  0  0  0  0  0  0  0  0  0  0
   -6.5174    5.1827   27.4210 C   0  0  0  0  0  0  0  0  0  0  0  0
  3  9  1  0
 13 14  1  0
  6 13  1  0
 13 12  2  0
 12 11  1  0
 11 10  2  0
 10  5  1  0
 14 15  2  0
 15 18  1  0
 18 19  2  0
 19 17  1  0
 17 16  2  0
 16 14  1  0
  2  7  1  0
  7  6  2  0
  6  5  1  0
  5  4  2  0
  4  1  1  0
  1  2  1  0
  2  3  2  0
  3  8  1  0
  8 20  2  0
 20 21  1  0
 21  1  2  0
M  END
$$$$
