No_2918-complexes_sdf/6BKW-FPZ/2024-09-17-14-21-01/
     RDKit          3D

 19 21  0  0  0  0  0  0  0  0999 V2000
   -7.9040    3.9820   27.1177 C   0  0  0  0  0  0  0  0  0  0  0  0
   -7.8663    4.8694   27.9238 C   0  0  0  0  0  0  0  0  0  0  0  0
   -9.0501    3.8017   26.2617 C   0  0  0  0  0  0  0  0  0  0  0  0
  -10.0189    4.7608   26.3707 C   0  0  0  0  0  0  0  0  0  0  0  0
   -8.6770    5.9780   27.9222 C   0  0  0  0  0  0  0  0  0  0  0  0
   -9.8040    5.8752   27.0958 C   0  0  0  0  0  0  0  0  0  0  0  0
   -9.1317    2.6414   25.4147 C   0  0  0  0  0  0  0  0  0  0  0  0
   -8.6458    1.4431   25.8429 C   0  0  0  0  0  0  0  0  0  0  0  0
   -9.9889    2.6976   24.2334 C   0  0  0  0  0  0  0  0  0  0  0  0
   -8.7366    0.3555   25.0080 C   0  0  0  0  0  0  0  0  0  0  0  0
  -10.0165    1.5999   23.4349 C   0  0  0  0  0  0  0  0  0  0  0  0
   -9.4075    0.4088   23.8291 C   0  0  0  0  0  0  0  0  0  0  0  0
  -10.6952    1.6587   22.2277 N   0  0  0  0  0  0  0  0  0  0  0  0
  -10.6838    0.7875   21.3074 C   0  0  0  0  0  0  0  0  0  0  0  0
  -10.0143   -0.4825   21.6078 C   0  0  0  0  0  0  0  0  0  0  0  0
   -9.4105   -0.6428   22.8380 C   0  0  0  0  0  0  0  0  0  0  0  0
  -10.0521   -1.5472   20.5952 C   0  0  0  0  0  0  0  0  0  0  0  0
   -8.9840   -1.9397   20.1449 O   0  0  0  0  0  0  0  0  0  0  0  0
  -11.1755   -1.9630   20.1555 O   0  0  0  0  0  0  0  0  0  0  0  0
  3  7  1  0
 15 17  1  0
 17 18  2  0
 17 19  1  0
 12 16  1  0
 16 15  2  0
 15 14  1  0
 14 13  2  0
 13 11  1  0
  1  2  2  0
  2  5  1  0
  5  6  2  0
  6  4  1  0
  4  3  2  0
  3  1  1  0
  7  8  2  0
  8 10  1  0
 10 12  2  0
 12 11  1  0
 11  9  2  0
  9  7  1  0
M  END
$$$$
