No_241-complexes_sdf/6BKW-FPZ/2024-09-17-14-21-01/
     RDKit          3D

 16 17  0  0  0  0  0  0  0  0999 V2000
   -7.9040    3.9820   27.1177 C   0  0  0  0  0  0  0  0  0  0  0  0
   -7.8663    4.8694   27.9238 C   0  0  0  0  0  0  0  0  0  0  0  0
   -9.0491    3.8523   26.2542 C   0  0  0  0  0  0  0  0  0  0  0  0
   -8.7661    5.9491   27.9690 C   0  0  0  0  0  0  0  0  0  0  0  0
   -9.9295    4.8502   26.2323 C   0  0  0  0  0  0  0  0  0  0  0  0
   -9.8077    5.9288   27.0933 C   0  0  0  0  0  0  0  0  0  0  0  0
   -9.0475    2.8474   25.3710 F   0  0  0  0  0  0  0  0  0  0  0  0
   -6.7885    2.6530   27.1591 Cl  0  0  0  0  0  0  0  0  0  0  0  0
  -10.9115    4.8429   25.3143 O   0  0  0  0  0  0  0  0  0  0  0  0
  -11.9410    4.3477   25.4301 C   0  0  0  0  0  0  0  0  0  0  0  0
  -12.7000    4.1561   24.2153 C   0  0  0  0  0  0  0  0  0  0  0  0
  -12.0363    4.2116   22.9882 C   0  0  0  0  0  0  0  0  0  0  0  0
  -12.6735    4.0602   21.7440 C   0  0  0  0  0  0  0  0  0  0  0  0
  -14.0763    3.8898   21.7475 C   0  0  0  0  0  0  0  0  0  0  0  0
  -14.7812    3.8786   22.9254 C   0  0  0  0  0  0  0  0  0  0  0  0
  -14.1133    4.0000   24.1774 C   0  0  0  0  0  0  0  0  0  0  0  0
  3  7  1  0
  1  8  1  0
  5  9  1  0
  9 10  1  0
 10 11  1  0
 11 12  2  0
 12 13  1  0
 13 14  2  0
 14 15  1  0
 15 16  2  0
 16 11  1  0
  1  2  2  0
  2  4  1  0
  4  6  2  0
  6  5  1  0
  5  3  2  0
  3  1  1  0
M  END
$$$$
