No_2535-complexes_sdf/6BKW-FPZ/2024-09-17-14-21-01/
     RDKit          3D

 30 33  0  0  0  0  0  0  0  0999 V2000
   -7.9040    3.9820   27.1177 C   0  0  0  0  0  0  0  0  0  0  0  0
   -9.0711    4.3164   27.0630 C   0  0  0  0  0  0  0  0  0  0  0  0
   -9.5294    5.4517   27.7215 C   0  0  0  0  0  0  0  0  0  0  0  0
   -7.4336    2.7132   26.5681 C   0  0  0  0  0  0  0  0  0  0  0  0
   -8.3353    1.8569   26.0442 C   0  0  0  0  0  0  0  0  0  0  0  0
   -9.6477    2.2853   25.9146 C   0  0  0  0  0  0  0  0  0  0  0  0
  -10.0346    3.4497   26.4483 C   0  0  2  0  0  0  0  0  0  0  0  0
   -7.8750    0.5509   25.5918 C   0  0  0  0  0  0  0  0  0  0  0  0
   -7.0299   -0.1710   26.4003 C   0  0  0  0  0  0  0  0  0  0  0  0
   -7.0163    0.0779   27.5995 O   0  0  0  0  0  0  0  0  0  0  0  0
   -6.9315    4.6961   27.8948 N   0  0  0  0  0  0  0  0  0  0  0  0
   -6.3041   -0.8170   28.4789 C   0  0  0  0  0  0  0  0  0  0  0  0
   -6.9914   -1.8036   29.0574 C   0  0  0  0  0  0  0  0  0  0  0  0
   -6.3741   -2.6642   29.9596 C   0  0  0  0  0  0  0  0  0  0  0  0
   -5.0701   -2.3641   30.4231 C   0  0  0  0  0  0  0  0  0  0  0  0
   -4.9685   -0.4827   28.9464 C   0  0  0  0  0  0  0  0  0  0  0  0
   -4.3825   -1.2256   29.8862 C   0  0  0  0  0  0  0  0  0  0  0  0
   -4.2854    0.7414   28.4206 C   0  0  0  0  0  0  0  0  0  0  0  0
   -4.7841    1.7003   28.1109 O   0  0  0  0  0  0  0  0  0  0  0  0
   -2.9823    0.5609   28.2313 O   0  0  0  0  0  0  0  0  0  0  0  0
   -7.2334    5.8886   28.4365 C   0  0  0  0  0  0  0  0  0  0  0  0
   -8.5724    6.2627   28.3092 N   0  0  0  0  0  0  0  0  0  0  0  0
  -11.4233    3.8727   26.1484 C   0  0  0  0  0  0  0  0  0  0  0  0
  -12.2711    3.0261   26.5145 C   0  0  0  0  0  0  0  0  0  0  0  0
  -13.6360    3.4288   26.3924 C   0  0  0  0  0  0  0  0  0  0  0  0
  -14.6418    2.8433   27.0709 C   0  0  0  0  0  0  0  0  0  0  0  0
  -14.3523    1.6347   27.7152 C   0  0  0  0  0  0  0  0  0  0  0  0
  -13.0541    1.1998   27.8957 C   0  0  0  0  0  0  0  0  0  0  0  0
  -12.0482    1.9494   27.4131 C   0  0  0  0  0  0  0  0  0  0  0  0
  -10.5453    1.4908   25.4466 O   0  0  0  0  0  0  0  0  0  0  0  0
  1  4  1  0
  4  5  1  0
  5  6  1  0
  2  7  1  0
  6  7  1  0
  5  8  1  0
  8  9  1  0
  9 10  1  0
 10 12  1  0
 16 18  1  0
 18 19  2  0
 18 20  1  0
  7 23  1  6
 23 24  1  0
  6 30  2  0
 12 13  2  0
 13 14  1  0
 14 15  2  0
 15 17  1  0
 17 16  2  0
 16 12  1  0
  1  2  1  0
  2  3  2  0
  3 22  1  0
 22 21  2  0
 21 11  1  0
 11  1  2  0
 24 25  2  0
 25 26  1  0
 26 27  2  0
 27 28  1  0
 28 29  2  0
 29 24  1  0
M  END
$$$$
