No_2323-complexes_sdf/6BKW-FPZ/2024-09-17-14-21-01/
     RDKit          3D

 38 40  0  0  0  0  0  0  0  0999 V2000
   -7.7129    4.2099   27.0854 C   0  0  0  0  0  0  0  0  0  0  0  0
   -8.2112    3.0637   26.9225 C   0  0  0  0  0  0  0  0  0  0  0  0
   -8.5108    5.3904   26.9436 C   0  0  0  0  0  0  0  0  0  0  0  0
   -7.9752    6.6981   27.2112 C   0  0  0  0  0  0  0  0  0  0  0  0
   -9.5213    2.8208   26.4688 C   0  0  0  0  0  0  0  0  0  0  0  0
  -10.2979    3.9327   26.2378 C   0  0  0  0  0  0  0  0  0  0  0  0
   -9.7894    5.2123   26.4395 C   0  0  0  0  0  0  0  0  0  0  0  0
   -7.1925    1.6286   27.2384 Cl  0  0  0  0  0  0  0  0  0  0  0  0
   -6.9338    6.8511   27.8813 N   0  0  0  0  0  0  0  0  0  0  0  0
   -8.5442    7.8892   26.5802 C   0  0  0  0  0  0  0  0  0  0  0  0
   -9.7517    1.3185   26.2702 C   0  0  0  0  0  0  0  0  0  0  0  0
  -10.1192    0.6956   27.3662 C   0  0  0  0  0  0  0  0  0  0  0  0
  -10.5150   -0.6904   27.4009 C   0  0  0  0  0  0  0  0  0  0  0  0
  -10.5647   -1.2934   26.1894 C   0  0  0  0  0  0  0  0  0  0  0  0
  -10.2292   -0.6131   25.0472 C   0  0  0  0  0  0  0  0  0  0  0  0
   -9.8460    0.7435   25.0377 C   0  0  0  0  0  0  0  0  0  0  0  0
   -9.4624    1.4186   23.8160 C   0  0  0  0  0  0  0  0  0  0  0  0
  -10.4316    1.5991   22.8219 C   0  0  0  0  0  0  0  0  0  0  0  0
  -10.1048    2.3495   21.7288 C   0  0  0  0  0  0  0  0  0  0  0  0
  -11.0246    2.7892   20.8770 C   0  0  0  0  0  0  0  0  0  0  0  0
  -12.3328    2.3303   20.8956 C   0  0  0  0  0  0  0  0  0  0  0  0
  -11.8058    1.2935   22.9129 C   0  0  0  0  0  0  0  0  0  0  0  0
  -12.7079    1.6438   22.0091 C   0  0  0  0  0  0  0  0  0  0  0  0
  -14.1331    1.2442   22.1473 C   0  0  0  0  0  0  0  0  0  0  0  0
  -14.7539    1.5808   23.1572 F   0  0  0  0  0  0  0  0  0  0  0  0
  -14.8874    1.6172   21.1433 F   0  0  0  0  0  0  0  0  0  0  0  0
  -14.1004   -0.1278   22.1007 F   0  0  0  0  0  0  0  0  0  0  0  0
  -11.0056   -2.6968   26.1059 C   0  0  0  0  0  0  0  0  0  0  0  0
  -11.2241   -3.4956   26.7839 O   0  0  0  0  0  0  0  0  0  0  0  0
  -11.4669   -2.9998   24.7445 O   0  0  0  0  0  0  0  0  0  0  0  0
  -11.6853    3.8293   25.7331 C   0  0  0  0  0  0  0  0  0  0  0  0
  -12.2195    2.6396   25.7423 F   0  0  0  0  0  0  0  0  0  0  0  0
  -11.7518    4.3694   24.4823 F   0  0  0  0  0  0  0  0  0  0  0  0
  -12.4698    4.6417   26.5034 F   0  0  0  0  0  0  0  0  0  0  0  0
  -10.5841    3.6191   19.6605 C   0  0  0  0  0  0  0  0  0  0  0  0
  -10.7476    4.8913   20.0202 F   0  0  0  0  0  0  0  0  0  0  0  0
  -11.2390    3.3666   18.5978 F   0  0  0  0  0  0  0  0  0  0  0  0
   -9.2869    3.4317   19.4527 F   0  0  0  0  0  0  0  0  0  0  0  0
  3  4  1  0
  2  8  1  0
  4  9  2  0
  4 10  1  0
  5 11  1  0
 16 17  1  0
 17 18  1  0
 23 24  1  0
 24 25  1  0
 24 26  1  0
 24 27  1  0
 14 28  1  0
 28 29  2  0
 28 30  1  0
  6 31  1  0
 31 32  1  0
 31 33  1  0
 31 34  1  0
 20 35  1  0
 35 36  1  0
 35 37  1  0
 35 38  1  0
 11 12  2  0
 12 13  1  0
 13 14  2  0
 14 15  1  0
 15 16  2  0
 16 11  1  0
 18 19  2  0
 19 20  1  0
 20 21  2  0
 21 23  1  0
 23 22  2  0
 22 18  1  0
  1  2  2  0
  2  5  1  0
  5  6  2  0
  6  7  1  0
  7  3  2  0
  3  1  1  0
M  END
$$$$
