No_2559-complexes_sdf/6BKW-FPZ/2024-09-17-14-21-01/
     RDKit          3D

 28 32  0  0  0  0  0  0  0  0999 V2000
   -7.2496    3.8871   27.4508 C   0  0  0  0  0  0  0  0  0  0  0  0
   -8.5096    4.0291   27.2770 C   0  0  0  0  0  0  0  0  0  0  0  0
   -9.2669    5.1645   27.5845 C   0  0  0  0  0  0  0  0  0  0  0  0
   -8.4566    6.3212   27.8001 C   0  0  0  0  0  0  0  0  0  0  0  0
   -6.4744    5.0029   27.8552 C   0  0  0  0  0  0  0  0  0  0  0  0
   -7.1338    6.2312   27.9553 C   0  0  0  0  0  0  0  0  0  0  0  0
   -9.2083    2.6510   26.9974 C   0  0  0  0  0  0  0  0  0  0  0  0
   -8.6206    1.5979   26.7593 C   0  0  0  0  0  0  0  0  0  0  0  0
   -9.2640    0.3508   26.5222 C   0  0  0  0  0  0  0  0  0  0  0  0
  -10.6743    0.3973   26.5352 C   0  0  0  0  0  0  0  0  0  0  0  0
  -10.6558    2.3997   26.9920 C   0  0  0  0  0  0  0  0  0  0  0  0
  -11.3082    1.3805   26.8852 C   0  0  0  0  0  0  0  0  0  0  0  0
  -12.8157    1.2989   27.0204 C   0  0  0  0  0  0  0  0  0  0  0  0
  -13.5254    2.4100   27.0772 C   0  0  0  0  0  0  0  0  0  0  0  0
  -12.7449    3.6616   27.3343 C   0  0  0  0  0  0  0  0  0  0  0  0
  -11.4936    3.7567   27.3259 C   0  0  0  0  0  0  0  0  0  0  0  0
   -8.4227   -0.8610   26.2182 C   0  0  0  0  0  0  0  0  0  0  0  0
   -8.0690   -1.5227   26.9289 C   0  0  0  0  0  0  0  0  0  0  0  0
   -7.1571   -2.6515   26.6737 C   0  0  0  0  0  0  0  0  0  0  0  0
   -8.4826   -1.1897   24.8159 C   0  0  0  0  0  0  0  0  0  0  0  0
   -9.0677   -0.3284   23.7934 C   0  0  0  0  0  0  0  0  0  0  0  0
   -7.0689   -2.9431   25.3135 C   0  0  0  0  0  0  0  0  0  0  0  0
   -7.6494   -2.1784   24.3435 C   0  0  0  0  0  0  0  0  0  0  0  0
   -8.9375    0.8732   23.6836 C   0  0  0  0  0  0  0  0  0  0  0  0
   -9.5237    1.7233   22.6302 C   0  0  0  0  0  0  0  0  0  0  0  0
  -10.2166    1.0136   21.6403 C   0  0  0  0  0  0  0  0  0  0  0  0
   -9.7833   -0.9621   22.7332 C   0  0  0  0  0  0  0  0  0  0  0  0
  -10.3000   -0.3065   21.7031 C   0  0  0  0  0  0  0  0  0  0  0  0
  2  7  1  0
  9 17  1  0
 20 21  1  0
  1  2  2  0
  2  3  1  0
  3  4  2  0
  4  6  1  0
  6  5  2  0
  5  1  1  0
 12 13  2  0
 13 14  1  0
 14 15  2  0
 15 16  1  0
 16 11  2  0
 17 18  2  0
 18 19  1  0
 19 22  2  0
 22 23  1  0
 23 20  2  0
 20 17  1  0
 21 24  2  0
 24 25  1  0
 25 26  2  0
 26 28  1  0
 28 27  2  0
 27 21  1  0
  7  8  2  0
  8  9  1  0
  9 10  2  0
 10 12  1  0
 12 11  1  0
 11  7  1  0
M  END
$$$$
