No_2868-complexes_sdf/6BKW-FPZ/2024-09-17-14-21-01/
     RDKit          3D

 18 19  0  0  0  0  0  0  0  0999 V2000
   -7.9040    3.9820   27.1177 C   0  0  0  0  0  0  0  0  0  0  0  0
   -8.2057    2.8231   26.8733 C   0  0  0  0  0  0  0  0  0  0  0  0
   -8.7695    5.0740   26.7916 C   0  0  0  0  0  0  0  0  0  0  0  0
   -8.4337    6.4678   27.0913 C   0  0  0  0  0  0  0  0  0  0  0  0
   -7.3775    1.6806   27.3986 C   0  0  0  0  0  0  0  0  0  0  0  0
   -7.6795    0.3394   27.2177 C   0  0  0  0  0  0  0  0  0  0  0  0
   -8.9653    0.1016   26.6342 C   0  0  0  0  0  0  0  0  0  0  0  0
   -9.7377    1.1060   26.1275 C   0  0  0  0  0  0  0  0  0  0  0  0
   -9.4479    2.3479   26.2344 C   0  0  0  0  0  0  0  0  0  0  0  0
   -9.3093    7.5021   26.6862 C   0  0  0  0  0  0  0  0  0  0  0  0
   -6.8186    4.5000   27.9742 C   0  0  0  0  0  0  0  0  0  0  0  0
   -7.2316    6.6776   27.8059 C   0  0  0  0  0  0  0  0  0  0  0  0
   -6.6031    5.7176   28.3072 N   0  0  0  0  0  0  0  0  0  0  0  0
   -6.8722   -0.6949   27.7715 C   0  0  0  0  0  0  0  0  0  0  0  0
   -7.3432   -1.5127   28.4505 F   0  0  0  0  0  0  0  0  0  0  0  0
   -6.1649   -1.2858   26.7150 F   0  0  0  0  0  0  0  0  0  0  0  0
   -5.7310   -0.1315   28.4616 F   0  0  0  0  0  0  0  0  0  0  0  0
  -11.1552    0.6514   25.2776 Cl  0  0  0  0  0  0  0  0  0  0  0  0
  1  2  1  0
  6 14  1  0
 14 15  1  0
 14 16  1  0
 14 17  1  0
  8 18  1  0
 10  4  1  0
  2  5  2  0
  5  6  1  0
  6  7  2  0
  7  8  1  0
  8  9  2  0
  9  2  1  0
  1  3  2  0
  3  4  1  0
  4 12  2  0
 12 13  1  0
 13 11  2  0
 11  1  1  0
M  END
$$$$
