No_2219-complexes_sdf/6BKW-FPZ/2024-09-17-14-21-01/
     RDKit          3D

 18 20  0  0  0  0  0  0  0  0999 V2000
   -7.9040    3.9820   27.1177 C   0  0  0  0  0  0  0  0  0  0  0  0
   -7.8663    4.8694   27.9238 C   0  0  0  0  0  0  0  0  0  0  0  0
   -7.4698    2.6989   27.4277 C   0  0  0  0  0  0  0  0  0  0  0  0
   -7.9683    1.5964   26.8266 C   0  0  1  0  0  0  0  0  0  0  0  0
   -8.9447    1.7923   25.8533 C   0  0  0  0  0  0  0  0  0  0  0  0
   -9.4405    2.9988   25.5757 C   0  0  0  0  0  0  0  0  0  0  0  0
   -8.9424    4.1117   26.2388 C   0  0  0  0  0  0  0  0  0  0  0  0
   -8.2732    6.2141   27.6484 N   0  0  0  0  0  0  0  0  0  0  0  0
   -9.1540    6.5068   26.6734 C   0  0  0  0  0  0  0  0  0  0  0  0
   -9.5312    5.3927   25.9147 C   0  0  0  0  0  0  0  0  0  0  0  0
   -7.3887    0.2740   27.0971 C   0  0  1  0  0  0  0  0  0  0  0  0
   -6.0711    0.1202   27.4872 C   0  0  0  0  0  0  0  0  0  0  0  0
   -5.5432   -1.1090   27.8369 C   0  0  0  0  0  0  0  0  0  0  0  0
   -4.2062   -1.1997   28.3418 C   0  0  0  0  0  0  0  0  0  0  0  0
   -3.4164   -0.0107   28.4553 C   0  0  0  0  0  0  0  0  0  0  0  0
   -4.0151    1.2229   28.1478 C   0  0  0  0  0  0  0  0  0  0  0  0
   -5.2772    1.3019   27.7186 C   0  0  0  0  0  0  0  0  0  0  0  0
   -8.3681   -0.5230   27.9181 C   0  0  0  0  0  0  0  0  0  0  0  0
  1  3  1  0
  4  3  1  6
  4  5  1  0
  5  6  1  0
  6  7  1  0
  4 11  1  0
 11 18  1  1
 11 12  1  0
 12 13  2  0
 13 14  1  0
 14 15  2  0
 15 16  1  0
 16 17  2  0
 17 12  1  0
  1  2  2  0
  2  8  1  0
  8  9  2  0
  9 10  1  0
 10  7  2  0
  7  1  1  0
M  END
$$$$
