No_2502-complexes_sdf/6BKW-FPZ/2024-09-17-14-21-01/
     RDKit          3D

 40 45  0  0  0  0  0  0  0  0999 V2000
   -7.7129    4.2099   27.0854 C   0  0  0  0  0  0  0  0  0  0  0  0
   -7.7814    5.1722   27.8972 C   0  0  0  0  0  0  0  0  0  0  0  0
   -8.8776    3.8408   26.3416 C   0  0  0  0  0  0  0  0  0  0  0  0
   -9.9844    4.6492   26.4743 C   0  0  0  0  0  0  0  0  0  0  0  0
   -8.8033    6.1375   27.8728 C   0  0  0  0  0  0  0  0  0  0  0  0
   -9.9554    5.8280   27.1736 C   0  0  0  0  0  0  0  0  0  0  0  0
   -8.8740    2.6184   25.5584 C   0  0  0  0  0  0  0  0  0  0  0  0
   -8.2513    1.5373   26.0855 N   0  0  0  0  0  0  0  0  0  0  0  0
   -8.1045    0.3937   25.4062 C   0  0  0  0  0  0  0  0  0  0  0  0
   -8.5816    0.3348   24.2730 C   0  0  0  0  0  0  0  0  0  0  0  0
   -9.3966    2.5213   24.3424 C   0  0  0  0  0  0  0  0  0  0  0  0
   -9.2413    1.3815   23.6342 C   0  0  0  0  0  0  0  0  0  0  0  0
   -9.6971    1.1130   22.2866 C   0  0  0  0  0  0  0  0  0  0  0  0
  -10.8992    0.9405   22.1182 C   0  0  0  0  0  0  0  0  0  0  0  0
  -11.3881    0.7737   20.7637 C   0  0  0  0  0  0  0  0  0  0  0  0
  -12.6693    0.8694   20.3923 C   0  0  0  0  0  0  0  0  0  0  0  0
  -13.3941    1.0626   21.1200 C   0  0  0  0  0  0  0  0  0  0  0  0
  -12.0778    1.4046   22.7924 C   0  0  0  0  0  0  0  0  0  0  0  0
  -13.2838    1.4299   22.4307 C   0  0  0  0  0  0  0  0  0  0  0  0
   -7.3964   -0.5451   26.0546 N   0  0  0  0  0  0  0  0  0  0  0  0
   -7.0202   -0.4016   27.3936 C   0  0  0  0  0  0  0  0  0  0  0  0
   -7.0519   -1.7673   25.4618 C   0  0  0  0  0  0  0  0  0  0  0  0
   -5.6333   -0.8841   27.7598 C   0  0  2  0  0  0  0  0  0  0  0  0
   -5.5540   -2.0305   27.7663 C   0  0  1  0  0  0  0  0  0  0  0  0
   -5.8898   -2.5471   26.2756 C   0  0  1  0  0  0  0  0  0  0  0  0
   -4.1740   -2.5312   28.1305 C   0  0  0  0  0  0  0  0  0  0  0  0
   -3.4306   -1.8038   28.6851 C   0  0  0  0  0  0  0  0  0  0  0  0
   -3.8273   -0.3608   29.1351 C   0  0  0  0  0  0  0  0  0  0  0  0
   -4.9863    0.1353   28.6577 C   0  0  0  0  0  0  0  0  0  0  0  0
   -6.6325   -2.8118   28.5679 C   0  0  0  0  0  0  0  0  0  0  0  0
   -6.3119   -3.9900   29.0548 C   0  0  0  0  0  0  0  0  0  0  0  0
   -6.8305   -4.5159   29.7393 C   0  0  0  0  0  0  0  0  0  0  0  0
   -8.1665   -4.0713   30.3459 C   0  0  0  0  0  0  0  0  0  0  0  0
   -8.5955   -2.8171   29.8923 C   0  0  0  0  0  0  0  0  0  0  0  0
   -7.7792   -2.1556   29.0552 C   0  0  0  0  0  0  0  0  0  0  0  0
   -5.9366   -4.0411   26.0030 C   0  0  0  0  0  0  0  0  0  0  0  0
   -4.5199   -2.0877   25.4839 C   0  0  0  0  0  0  0  0  0  0  0  0
   -5.1726   -4.7501   25.3727 C   0  0  0  0  0  0  0  0  0  0  0  0
   -7.2287   -4.5923   26.4309 C   0  0  0  0  0  0  0  0  0  0  0  0
   -7.6707   -5.3762   25.7932 C   0  0  0  0  0  0  0  0  0  0  0  0
  3  7  1  0
 12 13  1  0
 13 14  1  0
  9 20  1  0
 20 21  1  0
 20 22  1  0
 23 21  1  1
 23 24  1  0
 22 25  1  0
 24 25  1  0
 24 26  1  0
 27 28  1  0
 23 29  1  0
 24 30  1  1
 25 36  1  0
 25 37  1  6
 36 38  2  0
 36 39  1  0
 39 40  2  0
 29 28  1  0
 27 26  1  0
 30 31  2  0
 31 32  1  0
 32 33  2  0
 33 34  1  0
 34 35  2  0
 35 30  1  0
 14 15  2  0
 15 16  1  0
 16 17  2  0
 17 19  1  0
 19 18  2  0
 18 14  1  0
  7  8  2  0
  8  9  1  0
  9 10  2  0
 10 12  1  0
 12 11  2  0
 11  7  1  0
  1  2  2  0
  2  5  1  0
  5  6  2  0
  6  4  1  0
  4  3  2  0
  3  1  1  0
M  END
$$$$
