No_2811-complexes_sdf/6BKW-FPZ/2024-09-17-14-21-01/
     RDKit          3D

 40 44  0  0  0  0  0  0  0  0999 V2000
   -7.9040    3.9820   27.1177 C   0  0  0  0  0  0  0  0  0  0  0  0
   -9.0711    4.3164   27.0630 C   0  0  0  0  0  0  0  0  0  0  0  0
   -9.5294    5.4517   27.7215 C   0  0  0  0  0  0  0  0  0  0  0  0
   -6.9328    4.7309   27.8881 C   0  0  0  0  0  0  0  0  0  0  0  0
   -7.3377    5.8421   28.5537 C   0  0  0  0  0  0  0  0  0  0  0  0
   -8.6411    6.2609   28.3972 C   0  0  0  0  0  0  0  0  0  0  0  0
  -10.0493    3.4953   26.2711 C   0  0  0  0  0  0  0  0  0  0  0  0
  -10.5585    3.8087   25.3241 C   0  0  0  0  0  0  0  0  0  0  0  0
  -11.4299    3.0969   24.3973 C   0  0  0  0  0  0  0  0  0  0  0  0
  -11.6073    1.8085   24.6877 C   0  0  0  0  0  0  0  0  0  0  0  0
  -10.1124    2.0625   26.5376 C   0  0  0  0  0  0  0  0  0  0  0  0
  -10.9054    1.2417   25.7977 C   0  0  0  0  0  0  0  0  0  0  0  0
  -12.1466    3.7396   23.2769 C   0  0  0  0  0  0  0  0  0  0  0  0
  -11.3996    4.5065   22.1466 Cl  0  0  0  0  0  0  0  0  0  0  0  0
  -13.5741    3.7056   23.2236 C   0  0  0  0  0  0  0  0  0  0  0  0
  -14.2402    4.1146   24.2793 C   0  0  0  0  0  0  0  0  0  0  0  0
  -15.6500    4.1367   24.3471 C   0  0  0  0  0  0  0  0  0  0  0  0
  -16.2672    3.7122   23.1835 C   0  0  0  0  0  0  0  0  0  0  0  0
  -15.5342    3.2618   22.2435 C   0  0  0  0  0  0  0  0  0  0  0  0
  -14.1674    3.2778   22.1424 C   0  0  0  0  0  0  0  0  0  0  0  0
   -5.6887    4.1944   28.0416 O   0  0  0  0  0  0  0  0  0  0  0  0
  -11.0898   -0.1496   26.1301 C   0  0  0  0  0  0  0  0  0  0  0  0
  -10.4075   -0.8658   26.7902 N   0  0  0  0  0  0  0  0  0  0  0  0
   -9.1385   -0.6286   26.9394 C   0  0  0  0  0  0  0  0  0  0  0  0
   -8.6125   -1.4414   28.1098 C   0  0  0  0  0  0  0  0  0  0  0  0
   -9.7422   -2.0017   28.7706 C   0  0  0  0  0  0  0  0  0  0  0  0
  -10.8913   -1.5871   27.9251 C   0  0  0  0  0  0  0  0  0  0  0  0
  -12.0991   -0.7267   25.5471 O   0  0  0  0  0  0  0  0  0  0  0  0
   -7.2693   -1.6107   28.5356 C   0  0  0  0  0  0  0  0  0  0  0  0
   -6.2222   -0.8756   27.9332 C   0  0  0  0  0  0  0  0  0  0  0  0
   -6.2948   -0.0781   26.8578 C   0  0  0  0  0  0  0  0  0  0  0  0
   -4.9235   -0.9620   28.6420 C   0  0  0  0  0  0  0  0  0  0  0  0
   -4.5904   -1.4257   29.6506 C   0  0  0  0  0  0  0  0  0  0  0  0
   -5.7645   -2.1627   30.3412 C   0  0  0  0  0  0  0  0  0  0  0  0
   -7.0054   -2.1567   29.8502 C   0  0  0  0  0  0  0  0  0  0  0  0
   -5.5091   -2.8162   31.7017 C   0  0  0  0  0  0  0  0  0  0  0  0
   -6.4589   -3.3214   32.3438 C   0  0  0  0  0  0  0  0  0  0  0  0
   -6.2947   -3.8594   33.6415 C   0  0  0  0  0  0  0  0  0  0  0  0
   -5.0055   -3.8628   34.1929 C   0  0  0  0  0  0  0  0  0  0  0  0
   -3.9807   -3.2722   33.5227 C   0  0  0  0  0  0  0  0  0  0  0  0
  2  7  1  0
  9 13  1  0
 13 14  1  0
 13 15  1  0
  4 21  1  0
 12 22  1  0
 22 23  1  0
 23 24  1  0
 24 25  2  0
 25 26  1  0
 23 27  1  0
 26 27  1  0
 22 28  2  0
 25 29  1  0
 34 36  1  0
 36 37  2  3
 37 38  1  0
 38 39  2  3
 39 40  1  0
 31 30  1  0
  7  8  2  0
  8  9  1  0
  9 10  2  0
 10 12  1  0
 12 11  2  0
 11  7  1  0
  1  2  2  0
  2  3  1  0
  3  6  2  0
  6  5  1  0
  5  4  2  0
  4  1  1  0
 15 16  2  0
 16 17  1  0
 17 18  2  0
 18 19  1  0
 19 20  2  0
 20 15  1  0
 29 30  2  0
 30 32  1  0
 32 33  2  0
 33 34  1  0
 34 35  2  0
 35 29  1  0
M  END
$$$$
