No_2792-complexes_sdf/6BKW-FPZ/2024-09-17-14-21-01/
     RDKit          3D

 11 11  0  0  0  0  0  0  0  0999 V2000
   -7.7129    4.2099   27.0854 C   0  0  0  0  0  0  0  0  0  0  0  0
   -8.9133    4.4736   27.0998 C   0  0  0  0  0  0  0  0  0  0  0  0
   -9.7135    3.9633   26.0300 C   0  0  0  0  0  0  0  0  0  0  0  0
   -7.2585    2.8371   26.9278 C   0  0  0  0  0  0  0  0  0  0  0  0
   -9.4798    2.6045   25.7571 C   0  0  0  0  0  0  0  0  0  0  0  0
   -8.2172    2.0709   26.1389 C   0  0  0  0  0  0  0  0  0  0  0  0
   -9.2594    5.9715   27.3565 C   0  0  0  0  0  0  0  0  0  0  0  0
  -10.3612    1.8416   24.9450 C   0  0  0  0  0  0  0  0  0  0  0  0
  -10.2424    1.9396   23.6052 C   0  0  0  0  0  0  0  0  0  0  0  0
  -10.2006    2.9963   22.8810 C   0  0  0  0  0  0  0  0  0  0  0  0
  -10.1359    3.0509   21.4249 C   0  0  0  0  0  0  0  0  0  0  0  0
  2  7  1  0
  5  8  1  0
  8  9  1  0
  9 10  2  3
 10 11  1  0
  1  2  2  0
  2  3  1  0
  3  5  2  0
  5  6  1  0
  6  4  2  0
  4  1  1  0
M  END
$$$$
