No_2518-complexes_sdf/6BKW-FPZ/2024-09-17-14-21-01/
     RDKit          3D

  7  7  0  0  0  0  0  0  0  0999 V2000
   -7.9040    3.9820   27.1177 C   0  0  0  0  0  0  0  0  0  0  0  0
   -9.0711    4.3164   27.0630 C   0  0  0  0  0  0  0  0  0  0  0  0
   -9.5294    5.4517   27.7215 C   0  0  0  0  0  0  0  0  0  0  0  0
  -10.0314    3.1095   27.2528 C   0  0  0  0  0  0  0  0  0  0  0  0
   -9.5931    2.0019   26.8804 C   0  0  0  0  0  0  0  0  0  0  0  0
   -7.2982    2.6870   26.8974 C   0  0  0  0  0  0  0  0  0  0  0  0
   -8.1708    1.6557   26.8865 C   0  0  0  0  0  0  0  0  0  0  0  0
  2  3  1  0
  1  2  2  0
  2  4  1  0
  4  5  2  0
  5  7  1  0
  7  6  2  0
  6  1  1  0
M  END
$$$$
