No_2996-complexes_sdf/6BKW-FPZ/2024-09-17-14-21-01/
     RDKit          3D

 23 26  0  0  0  0  0  0  0  0999 V2000
   -7.7129    4.2099   27.0854 C   0  0  0  0  0  0  0  0  0  0  0  0
   -8.2112    3.0637   26.9225 C   0  0  0  0  0  0  0  0  0  0  0  0
   -8.4224    5.2106   27.8516 C   0  0  0  0  0  0  0  0  0  0  0  0
   -9.5628    2.7160   27.4089 C   0  0  0  0  0  0  0  0  0  0  0  0
  -10.2428    3.7496   28.1155 C   0  0  0  0  0  0  0  0  0  0  0  0
   -7.8060    6.5538   27.9901 C   0  0  0  0  0  0  0  0  0  0  0  0
   -9.7056    4.9853   28.3055 C   0  0  0  0  0  0  0  0  0  0  0  0
  -10.0702    1.3726   27.2447 C   0  0  0  0  0  0  0  0  0  0  0  0
   -9.2554    0.3625   27.0441 C   0  0  0  0  0  0  0  0  0  0  0  0
   -9.8024   -0.9793   26.9230 C   0  0  0  0  0  0  0  0  0  0  0  0
  -11.1709   -1.1313   27.1593 C   0  0  0  0  0  0  0  0  0  0  0  0
  -11.4053    0.9864   27.6049 C   0  0  0  0  0  0  0  0  0  0  0  0
  -11.9268   -0.1512   27.5500 C   0  0  0  0  0  0  0  0  0  0  0  0
   -6.5879    6.4506   27.3451 C   0  0  0  0  0  0  0  0  0  0  0  0
   -6.2809    7.7090   27.0523 N   0  0  0  0  0  0  0  0  0  0  0  0
  -11.7716   -2.7903   27.0354 Cl  0  0  0  0  0  0  0  0  0  0  0  0
  -13.2235   -0.4108   27.8139 F   0  0  0  0  0  0  0  0  0  0  0  0
   -5.8449    5.6522   27.3574 O   0  0  0  0  0  0  0  0  0  0  0  0
   -8.8538   -2.0807   26.5706 C   0  0  0  0  0  0  0  0  0  0  0  0
   -7.8435   -1.7684   26.0121 C   0  0  0  0  0  0  0  0  0  0  0  0
   -7.2226   -0.4480   26.0792 C   0  0  0  0  0  0  0  0  0  0  0  0
   -7.9784    0.6064   26.5058 C   0  0  0  0  0  0  0  0  0  0  0  0
   -7.5025    1.9173   26.4823 N   0  0  0  0  0  0  0  0  0  0  0  0
  1  2  2  0
  1  3  1  0
  2  4  1  0
  4  5  2  0
  3  6  1  0
  3  7  2  0
  5  7  1  0
  4  8  1  0
  8  9  2  0
  9 10  1  0
 10 11  2  0
  8 12  1  0
 11 13  1  0
 12 13  2  0
  6 14  1  0
 14 15  2  0
 11 16  1  0
 13 17  1  0
 14 18  1  0
 10 19  1  0
 19 20  2  0
 20 21  1  0
  9 22  1  0
 21 22  2  0
  2 23  1  0
 22 23  1  0
M  END
$$$$
