No_2726-complexes_sdf/6BKW-FPZ/2024-09-17-14-21-01/
     RDKit          3D

 28 31  0  0  0  0  0  0  0  0999 V2000
   -7.9040    3.9820   27.1177 C   0  0  0  0  0  0  0  0  0  0  0  0
   -8.2057    2.8231   26.8733 C   0  0  0  0  0  0  0  0  0  0  0  0
   -7.4766    1.7477   27.4593 C   0  0  0  0  0  0  0  0  0  0  0  0
   -8.7468    5.1251   26.6967 C   0  0  0  0  0  0  0  0  0  0  0  0
   -9.7234    4.8589   25.8202 C   0  0  0  0  0  0  0  0  0  0  0  0
   -9.9711    3.5858   25.4266 C   0  0  0  0  0  0  0  0  0  0  0  0
   -9.2266    2.4957   25.9600 C   0  0  0  0  0  0  0  0  0  0  0  0
   -6.1127    1.9031   27.8472 C   0  0  0  0  0  0  0  0  0  0  0  0
   -5.3493    0.8225   28.3589 C   0  0  0  0  0  0  0  0  0  0  0  0
   -5.8541   -0.4405   28.4024 C   0  0  0  0  0  0  0  0  0  0  0  0
   -7.6923    0.3396   27.3519 C   0  0  0  0  0  0  0  0  0  0  0  0
   -7.1004   -0.6359   27.9184 C   0  0  0  0  0  0  0  0  0  0  0  0
   -8.4120    6.5077   27.1105 C   0  0  0  0  0  0  0  0  0  0  0  0
   -7.3111    6.7806   27.0092 F   0  0  0  0  0  0  0  0  0  0  0  0
   -9.2430    7.3908   26.3878 F   0  0  0  0  0  0  0  0  0  0  0  0
   -8.9527    6.5852   28.3889 F   0  0  0  0  0  0  0  0  0  0  0  0
   -5.0286   -1.5207   29.0099 C   0  0  0  0  0  0  0  0  0  0  0  0
   -5.3009   -2.4044   29.6108 C   0  0  0  0  0  0  0  0  0  0  0  0
   -4.4109   -3.4100   30.2088 C   0  0  0  0  0  0  0  0  0  0  0  0
   -3.0540   -3.2286   30.0167 C   0  0  0  0  0  0  0  0  0  0  0  0
   -3.5108   -1.2027   28.8790 C   0  0  0  0  0  0  0  0  0  0  0  0
   -2.6032   -2.0914   29.3638 C   0  0  0  0  0  0  0  0  0  0  0  0
  -11.0396    3.3527   24.4510 C   0  0  0  0  0  0  0  0  0  0  0  0
  -12.3134    3.1521   24.8603 C   0  0  0  0  0  0  0  0  0  0  0  0
  -13.3242    3.0907   24.0135 C   0  0  0  0  0  0  0  0  0  0  0  0
  -10.7323    3.4273   23.1090 C   0  0  0  0  0  0  0  0  0  0  0  0
  -11.6517    3.3873   22.1207 C   0  0  0  0  0  0  0  0  0  0  0  0
  -13.0181    3.2280   22.5910 C   0  0  0  0  0  0  0  0  0  0  0  0
  2  3  1  0
  4 13  1  0
 13 14  1  0
 13 15  1  0
 13 16  1  0
 10 17  1  0
  6 23  1  0
 23 24  2  0
 24 25  1  0
 25 28  2  0
 28 27  1  0
 27 26  2  0
 26 23  1  0
 17 18  2  0
 18 19  1  0
 19 20  2  0
 20 22  1  0
 22 21  2  0
 21 17  1  0
  3  8  2  0
  8  9  1  0
  9 10  2  0
 10 12  1  0
 12 11  2  0
 11  3  1  0
  1  2  2  0
  2  7  1  0
  7  6  2  0
  6  5  1  0
  5  4  2  0
  4  1  1  0
M  END
$$$$
