No_2038-complexes_sdf/6BKW-FPZ/2024-09-17-14-21-01/
     RDKit          3D

 31 34  0  0  0  0  0  0  0  0999 V2000
   -7.2496    3.8871   27.4508 C   0  0  0  0  0  0  0  0  0  0  0  0
   -8.5096    4.0291   27.2770 C   0  0  0  0  0  0  0  0  0  0  0  0
   -9.3451    2.8786   26.9046 C   0  0  0  0  0  0  0  0  0  0  0  0
   -6.6065    2.5680   27.5073 C   0  0  0  0  0  0  0  0  0  0  0  0
   -7.4233    1.4858   27.2402 C   0  0  0  0  0  0  0  0  0  0  0  0
   -8.7362    1.6525   26.9989 C   0  0  0  0  0  0  0  0  0  0  0  0
   -9.1023    5.3710   27.2131 C   0  0  0  0  0  0  0  0  0  0  0  0
  -10.3323    5.6359   27.5259 N   0  0  0  0  0  0  0  0  0  0  0  0
   -8.2551    6.5104   26.8938 C   0  0  0  0  0  0  0  0  0  0  0  0
   -8.6438    7.8268   26.9310 C   0  0  0  0  0  0  0  0  0  0  0  0
   -6.7983    0.1738   27.2917 C   0  0  0  0  0  0  0  0  0  0  0  0
   -7.3895   -0.8623   27.3586 N   0  0  0  0  0  0  0  0  0  0  0  0
   -5.4529    0.1086   27.5998 N   0  0  0  0  0  0  0  0  0  0  0  0
   -4.9977   -1.1623   27.6993 C   0  0  0  0  0  0  0  0  0  0  0  0
   -6.9801   -1.9182   27.4807 C   0  0  0  0  0  0  0  0  0  0  0  0
   -5.6865   -2.2508   27.7083 C   0  0  0  0  0  0  0  0  0  0  0  0
   -3.4093   -1.1652   27.9782 C   0  0  1  0  0  0  0  0  0  0  0  0
   -2.9645   -0.3140   28.8849 C   0  0  0  0  0  0  0  0  0  0  0  0
   -2.9059   -0.6764   30.2141 C   0  0  2  0  0  0  0  0  0  0  0  0
   -3.2048    0.3627   31.2922 C   0  0  0  0  0  0  0  0  0  0  0  0
   -2.4195   -1.9034   30.6402 C   0  0  0  0  0  0  0  0  0  0  0  0
   -1.9869   -2.7049   29.9880 C   0  0  0  0  0  0  0  0  0  0  0  0
   -3.0036   -2.5609   28.4214 C   0  0  2  0  0  0  0  0  0  0  0  0
   -2.7394   -0.9025   26.5833 C   0  0  0  0  0  0  0  0  0  0  0  0
   -3.0021   -3.7050   27.6541 C   0  0  0  0  0  0  0  0  0  0  0  0
   -2.7853    0.2667   32.5174 O   0  0  0  0  0  0  0  0  0  0  0  0
   -2.0507   -4.4559   27.5404 C   0  0  0  0  0  0  0  0  0  0  0  0
   -1.9809   -5.1206   26.3430 C   0  0  0  0  0  0  0  0  0  0  0  0
   -3.0863   -5.2398   25.4879 C   0  0  0  0  0  0  0  0  0  0  0  0
   -4.1823   -4.4300   25.6999 C   0  0  0  0  0  0  0  0  0  0  0  0
   -4.0695   -3.5537   26.7391 C   0  0  0  0  0  0  0  0  0  0  0  0
  2  7  1  0
  7  8  2  0
  7  9  1  0
  9 10  1  0
  5 11  1  0
 14 17  1  0
 17 18  1  0
 18 19  1  0
 19 20  1  1
 19 21  1  0
 21 22  1  0
 17 23  1  0
 22 23  1  0
 17 24  1  6
 23 25  1  6
 20 26  2  0
 11 12  2  0
 12 15  1  0
 15 16  2  0
 16 14  1  0
 14 13  2  0
 13 11  1  0
 25 27  2  0
 27 28  1  0
 28 29  2  0
 29 30  1  0
 30 31  2  0
 31 25  1  0
  1  2  2  0
  2  3  1  0
  3  6  2  0
  6  5  1  0
  5  4  2  0
  4  1  1  0
M  END
$$$$
