No_2457-complexes_sdf/6BKW-FPZ/2024-09-17-14-21-01/
     RDKit          3D

 15 16  0  0  0  0  0  0  0  0999 V2000
   -7.7129    4.2099   27.0854 C   0  0  0  0  0  0  0  0  0  0  0  0
   -8.9133    4.4736   27.0998 C   0  0  0  0  0  0  0  0  0  0  0  0
   -9.7135    3.9633   26.0300 C   0  0  0  0  0  0  0  0  0  0  0  0
   -7.1708    2.9509   26.6517 C   0  0  0  0  0  0  0  0  0  0  0  0
   -8.1422    2.1350   26.0104 C   0  0  0  0  0  0  0  0  0  0  0  0
   -9.3363    2.7131   25.6563 C   0  0  0  0  0  0  0  0  0  0  0  0
   -9.2657    5.9651   27.4012 C   0  0  0  0  0  0  0  0  0  0  0  0
   -7.7451    0.7860   25.6444 C   0  0  0  0  0  0  0  0  0  0  0  0
   -7.0350    0.0145   26.5733 C   0  0  0  0  0  0  0  0  0  0  0  0
   -6.6428   -1.3104   26.3089 C   0  0  0  0  0  0  0  0  0  0  0  0
   -6.9591   -1.7515   25.0173 C   0  0  0  0  0  0  0  0  0  0  0  0
   -7.9001   -0.0618   24.5141 C   0  0  0  0  0  0  0  0  0  0  0  0
   -8.9324    6.9555   26.7944 F   0  0  0  0  0  0  0  0  0  0  0  0
   -8.8833    6.1444   28.8282 F   0  0  0  0  0  0  0  0  0  0  0  0
  -10.6916    5.9399   27.6585 F   0  0  0  0  0  0  0  0  0  0  0  0
  2  7  1  0
  5  8  1  0
  8  9  2  0
  9 10  1  0
 10 11  2  0
  8 12  1  0
 11 12  1  0
  7 13  1  0
  7 14  1  0
  7 15  1  0
  1  2  2  0
  2  3  1  0
  3  6  2  0
  6  5  1  0
  5  4  2  0
  4  1  1  0
M  END
$$$$
