No_2521-complexes_sdf/6BKW-FPZ/2024-09-17-14-21-01/
     RDKit          3D

 31 33  0  0  0  0  0  0  0  0999 V2000
   -7.2496    3.8871   27.4508 C   0  0  0  0  0  0  0  0  0  0  0  0
   -7.9379    4.9063   27.8518 C   0  0  0  0  0  0  0  0  0  0  0  0
   -8.7729    5.5444   27.0168 C   0  0  0  0  0  0  0  0  0  0  0  0
   -7.7708    3.0049   26.4155 C   0  0  0  0  0  0  0  0  0  0  0  0
   -9.3916    4.8208   25.9624 C   0  0  0  0  0  0  0  0  0  0  0  0
   -8.8052    3.5944   25.6431 C   0  0  0  0  0  0  0  0  0  0  0  0
   -9.4316    2.8790   24.5454 C   0  0  0  0  0  0  0  0  0  0  0  0
   -9.1800    1.5616   24.3533 C   0  0  0  0  0  0  0  0  0  0  0  0
   -9.7531    0.9150   23.3012 C   0  0  0  0  0  0  0  0  0  0  0  0
  -10.5609    1.6381   22.3373 C   0  0  0  0  0  0  0  0  0  0  0  0
  -10.7859    2.9743   22.5839 C   0  0  0  0  0  0  0  0  0  0  0  0
  -10.2100    3.6286   23.6747 C   0  0  0  0  0  0  0  0  0  0  0  0
   -7.3583    5.7006   28.8647 O   0  0  0  0  0  0  0  0  0  0  0  0
  -11.5823    3.8875   21.6984 C   0  0  0  0  0  0  0  0  0  0  0  0
  -10.9520    4.4121   20.8828 F   0  0  0  0  0  0  0  0  0  0  0  0
  -12.2155    4.8219   22.4982 F   0  0  0  0  0  0  0  0  0  0  0  0
  -12.5869    3.1506   21.1217 F   0  0  0  0  0  0  0  0  0  0  0  0
   -9.4832   -0.5128   23.0582 C   0  0  0  0  0  0  0  0  0  0  0  0
   -8.5727   -1.0412   23.1545 O   0  0  0  0  0  0  0  0  0  0  0  0
  -10.5437   -1.0968   22.2345 O   0  0  0  0  0  0  0  0  0  0  0  0
  -10.5213   -2.3619   22.2467 C   0  0  0  0  0  0  0  0  0  0  0  0
  -11.1064   -3.0243   23.1532 C   0  0  0  0  0  0  0  0  0  0  0  0
  -11.9268   -2.3831   24.0120 C   0  0  0  0  0  0  0  0  0  0  0  0
  -12.5918   -3.0550   25.1560 C   0  0  0  0  0  0  0  0  0  0  0  0
  -13.2636   -2.2647   26.0942 C   0  0  0  0  0  0  0  0  0  0  0  0
  -13.4494   -0.8583   25.9244 C   0  0  0  0  0  0  0  0  0  0  0  0
  -12.8712   -0.2463   24.8085 C   0  0  0  0  0  0  0  0  0  0  0  0
  -12.1097   -0.9613   23.9584 C   0  0  0  0  0  0  0  0  0  0  0  0
  -13.0518    1.2610   24.7818 C   0  0  0  0  0  0  0  0  0  0  0  0
  -14.1193    1.9261   25.4388 C   0  0  0  0  0  0  0  0  0  0  0  0
  -14.5626    1.3103   26.4653 C   0  0  0  0  0  0  0  0  0  0  0  0
  6  7  1  0
  2 13  1  0
 11 14  1  0
 14 15  1  0
 14 16  1  0
 14 17  1  0
  9 18  1  0
 18 19  2  0
 18 20  1  0
 20 21  1  0
 21 22  2  3
 22 23  1  0
 27 29  1  0
 29 30  2  3
 30 31  1  0
 23 24  2  0
 24 25  1  0
 25 26  2  0
 26 27  1  0
 27 28  2  0
 28 23  1  0
  1  2  2  0
  2  3  1  0
  3  5  2  0
  5  6  1  0
  6  4  2  0
  4  1  1  0
  7  8  2  0
  8  9  1  0
  9 10  2  0
 10 11  1  0
 11 12  2  0
 12  7  1  0
M  END
$$$$
