No_2910-complexes_sdf/6BKW-FPZ/2024-09-17-14-21-01/
     RDKit          3D

 34 37  0  0  0  0  0  0  0  0999 V2000
   -7.9040    3.9820   27.1177 C   0  0  0  0  0  0  0  0  0  0  0  0
   -7.8663    4.8694   27.9238 C   0  0  0  0  0  0  0  0  0  0  0  0
   -9.0491    3.8523   26.2542 C   0  0  0  0  0  0  0  0  0  0  0  0
   -9.9827    3.2456   26.6451 C   0  0  0  0  0  0  0  0  0  0  0  0
   -9.1410    5.3568   28.4612 C   0  0  0  0  0  0  0  0  0  0  0  0
  -10.5003    4.9280   28.1786 C   0  0  0  0  0  0  0  0  0  0  0  0
  -10.8724    4.1156   27.2691 C   0  0  2  0  0  0  0  0  0  0  0  0
  -12.3338    3.6588   27.3970 C   0  0  0  0  0  0  0  0  0  0  0  0
  -12.5537    2.5200   27.7307 C   0  0  0  0  0  0  0  0  0  0  0  0
  -11.9112    1.5504   27.8090 C   0  0  0  0  0  0  0  0  0  0  0  0
  -10.5260    1.2428   27.2462 C   0  0  0  0  0  0  0  0  0  0  0  0
   -9.9496    1.8665   26.5465 C   0  0  2  0  0  0  0  0  0  0  0  0
   -8.9432    1.1594   25.7323 C   0  0  0  0  0  0  0  0  0  0  0  0
   -9.1917    1.0198   24.4141 C   0  0  0  0  0  0  0  0  0  0  0  0
   -7.6983    0.6348   26.2183 C   0  0  0  0  0  0  0  0  0  0  0  0
   -7.1129   -0.4953   25.7545 C   0  0  0  0  0  0  0  0  0  0  0  0
  -10.3585    1.5413   23.8438 C   0  0  0  0  0  0  0  0  0  0  0  0
   -7.3775   -0.6899   24.3356 C   0  0  0  0  0  0  0  0  0  0  0  0
   -8.4313    0.0222   23.6232 C   0  0  0  0  0  0  0  0  0  0  0  0
  -11.3508    1.8124   24.0848 C   0  0  0  0  0  0  0  0  0  0  0  0
  -12.3964    2.4337   23.3729 C   0  0  0  0  0  0  0  0  0  0  0  0
  -12.0882    2.7955   22.1242 C   0  0  0  0  0  0  0  0  0  0  0  0
  -10.8339    2.5407   21.5721 C   0  0  0  0  0  0  0  0  0  0  0  0
   -9.8892    1.9367   22.3530 C   0  0  0  0  0  0  0  0  0  0  0  0
   -6.8368    5.3628   28.5743 O   0  0  0  0  0  0  0  0  0  0  0  0
  -13.7721    2.7764   23.8841 C   0  0  0  0  0  0  0  0  0  0  0  0
  -13.9889    2.5068   25.0983 F   0  0  0  0  0  0  0  0  0  0  0  0
  -13.9698    4.0863   23.7097 F   0  0  0  0  0  0  0  0  0  0  0  0
  -14.6683    2.1423   23.1009 F   0  0  0  0  0  0  0  0  0  0  0  0
   -6.5794   -1.6456   23.5755 C   0  0  0  0  0  0  0  0  0  0  0  0
   -5.4720   -2.0176   24.1214 C   0  0  0  0  0  0  0  0  0  0  0  0
   -7.0003   -1.9511   22.2541 C   0  0  0  0  0  0  0  0  0  0  0  0
   -7.7327   -1.1894   21.6736 F   0  0  0  0  0  0  0  0  0  0  0  0
   -5.0129   -3.1467   23.9472 O   0  0  0  0  0  0  0  0  0  0  0  0
  1  2  1  0
  1  3  1  0
  3  4  2  0
  2  5  1  0
  5  6  1  0
  4  7  1  0
  7  6  1  1
  7  8  1  0
  8  9  1  0
  9 10  2  0
 10 11  1  0
  4 12  1  0
 11 12  1  0
 12 13  1  1
 14 17  1  0
  2 25  2  0
 21 26  1  0
 26 27  1  0
 26 28  1  0
 26 29  1  0
 18 30  1  0
 30 31  2  0
 30 32  1  0
 32 33  1  0
 31 34  2  0
 17 20  2  0
 20 21  1  0
 21 22  2  0
 22 23  1  0
 23 24  2  0
 24 17  1  0
 13 14  2  0
 14 19  1  0
 19 18  2  0
 18 16  1  0
 16 15  2  0
 15 13  1  0
M  END
$$$$
