No_2545-complexes_sdf/6BKW-FPZ/2024-09-17-14-21-01/
     RDKit          3D

 14 15  0  0  0  0  0  0  0  0999 V2000
   -7.7129    4.2099   27.0854 C   0  0  0  0  0  0  0  0  0  0  0  0
   -8.9133    4.4736   27.0998 C   0  0  0  0  0  0  0  0  0  0  0  0
   -9.7937    3.7368   26.2091 C   0  0  0  0  0  0  0  0  0  0  0  0
   -6.8266    5.0441   28.0594 C   0  0  0  0  0  0  0  0  0  0  0  0
   -9.2322    2.6276   25.6126 C   0  0  0  0  0  0  0  0  0  0  0  0
   -7.9794    2.1924   25.9863 C   0  0  0  0  0  0  0  0  0  0  0  0
   -7.2411    2.9387   26.9009 C   0  0  0  0  0  0  0  0  0  0  0  0
  -10.0894    1.7793   24.7540 C   0  0  0  0  0  0  0  0  0  0  0  0
  -11.2485    2.2556   24.3618 C   0  0  0  0  0  0  0  0  0  0  0  0
  -11.7616    3.5133   24.9420 C   0  0  0  0  0  0  0  0  0  0  0  0
  -11.0223    4.2379   25.7819 C   0  0  0  0  0  0  0  0  0  0  0  0
  -12.1405    1.5052   23.4592 C   0  0  0  0  0  0  0  0  0  0  0  0
  -12.8284    0.4819   23.8796 C   0  0  0  0  0  0  0  0  0  0  0  0
  -13.6304   -0.2749   22.9717 C   0  0  0  0  0  0  0  0  0  0  0  0
  1  4  1  0
  9 12  1  0
 12 13  2  3
 13 14  1  0
  5  8  2  0
  8  9  1  0
  9 10  2  0
 10 11  1  0
 11  3  2  0
  1  2  2  0
  2  3  1  0
  3  5  1  0
  5  6  1  0
  6  7  2  0
  7  1  1  0
M  END
$$$$
