No_2166-complexes_sdf/6BKW-FPZ/2024-09-17-14-21-01/
     RDKit          3D

 17 18  0  0  0  0  0  0  0  0999 V2000
   -7.9040    3.9820   27.1177 C   0  0  0  0  0  0  0  0  0  0  0  0
   -8.2057    2.8231   26.8733 C   0  0  0  0  0  0  0  0  0  0  0  0
   -8.7695    5.0740   26.7916 C   0  0  0  0  0  0  0  0  0  0  0  0
   -9.9618    4.7598   26.1630 C   0  0  0  0  0  0  0  0  0  0  0  0
   -9.4200    2.4524   26.2849 C   0  0  0  0  0  0  0  0  0  0  0  0
  -10.2590    3.4815   25.9250 C   0  0  0  0  0  0  0  0  0  0  0  0
   -8.3837    6.4702   27.0872 C   0  0  0  0  0  0  0  0  0  0  0  0
   -8.8426    7.3370   26.4794 F   0  0  0  0  0  0  0  0  0  0  0  0
   -8.6028    6.6736   28.4517 F   0  0  0  0  0  0  0  0  0  0  0  0
   -6.9679    6.5739   27.0969 F   0  0  0  0  0  0  0  0  0  0  0  0
   -7.3577    1.8001   27.2927 F   0  0  0  0  0  0  0  0  0  0  0  0
  -11.5365    3.2263   25.2029 C   0  0  0  0  0  0  0  0  0  0  0  0
  -11.6493    3.7083   23.9629 C   0  0  0  0  0  0  0  0  0  0  0  0
  -12.8188    3.5211   23.1707 C   0  0  0  0  0  0  0  0  0  0  0  0
  -13.8712    2.8828   23.7281 C   0  0  0  0  0  0  0  0  0  0  0  0
  -12.6097    2.6038   25.7887 C   0  0  0  0  0  0  0  0  0  0  0  0
  -13.7843    2.4630   25.0622 C   0  0  0  0  0  0  0  0  0  0  0  0
  3  7  1  0
  7  8  1  0
  7  9  1  0
  7 10  1  0
  2 11  1  0
  6 12  1  0
 12 13  2  0
 13 14  1  0
 14 15  2  0
 15 17  1  0
 17 16  2  0
 16 12  1  0
  1  2  2  0
  2  5  1  0
  5  6  2  0
  6  4  1  0
  4  3  2  0
  3  1  1  0
M  END
$$$$
