No_271-complexes_sdf/6BKW-FPZ/2024-09-17-14-21-01/
     RDKit          3D

 22 25  0  0  0  0  0  0  0  0999 V2000
   -7.2496    3.8871   27.4508 C   0  0  0  0  0  0  0  0  0  0  0  0
   -7.6161    2.7143   27.1523 C   0  0  0  0  0  0  0  0  0  0  0  0
   -8.8302    2.4659   26.5056 C   0  0  0  0  0  0  0  0  0  0  0  0
   -8.1584    5.0090   27.3234 C   0  0  0  0  0  0  0  0  0  0  0  0
   -7.8138    6.3406   27.7108 C   0  0  0  0  0  0  0  0  0  0  0  0
   -9.1992    1.1205   26.1712 C   0  0  1  0  0  0  0  0  0  0  0  0
   -9.4077    4.7795   26.7981 C   0  0  0  0  0  0  0  0  0  0  0  0
   -9.7416    3.4949   26.4182 C   0  0  0  0  0  0  0  0  0  0  0  0
   -9.2021    0.7662   24.9931 C   0  0  0  0  0  0  0  0  0  0  0  0
   -8.9502    1.7679   23.9183 C   0  0  0  0  0  0  0  0  0  0  0  0
   -9.0865    1.4901   22.5356 C   0  0  0  0  0  0  0  0  0  0  0  0
   -9.5524    0.5730   22.2337 C   0  0  0  0  0  0  0  0  0  0  0  0
   -9.8491   -0.6347   22.9911 C   0  0  0  0  0  0  0  0  0  0  0  0
   -9.7096   -0.4298   24.3675 C   0  0  0  0  0  0  0  0  0  0  0  0
   -8.1539    0.2577   26.9911 C   0  0  0  0  0  0  0  0  0  0  0  0
   -8.7648   -0.9181   27.6185 C   0  0  0  0  0  0  0  0  0  0  0  0
   -7.9498   -1.7261   28.4237 C   0  0  0  0  0  0  0  0  0  0  0  0
   -6.5777   -1.4765   28.5098 C   0  0  0  0  0  0  0  0  0  0  0  0
   -6.0262   -0.3763   27.8474 C   0  0  0  0  0  0  0  0  0  0  0  0
   -6.8466    0.4247   27.1586 C   0  0  0  0  0  0  0  0  0  0  0  0
   -6.6456    1.5918   27.4263 C   0  0  0  0  0  0  0  0  0  0  0  0
   -7.8724    7.3963   27.0719 N   0  0  0  0  0  0  0  0  0  0  0  0
  4  5  1  0
  3  6  1  0
  6 15  1  0
  2 21  1  0
 20 21  1  0
  5 22  1  0
  6  9  1  6
  1  2  2  0
  2  3  1  0
  3  8  2  0
  8  7  1  0
  7  4  2  0
  4  1  1  0
 15 16  2  0
 16 17  1  0
 17 18  2  0
 18 19  1  0
 19 20  2  0
 20 15  1  0
  9 10  2  0
 10 11  1  0
 11 12  2  0
 12 13  1  0
 13 14  2  0
 14  9  1  0
M  END
$$$$
