No_2448-complexes_sdf/6BKW-FPZ/2024-09-17-14-21-01/
     RDKit          3D

 16 17  0  0  0  0  0  0  0  0999 V2000
   -7.2496    3.8871   27.4508 C   0  0  0  0  0  0  0  0  0  0  0  0
   -8.5096    4.0291   27.2770 C   0  0  0  0  0  0  0  0  0  0  0  0
   -9.3451    2.8786   26.9046 C   0  0  0  0  0  0  0  0  0  0  0  0
   -6.6065    2.5680   27.5073 C   0  0  0  0  0  0  0  0  0  0  0  0
   -7.3970    1.4834   27.2271 C   0  0  0  0  0  0  0  0  0  0  0  0
   -8.7029    1.6398   26.9934 C   0  0  0  0  0  0  0  0  0  0  0  0
   -9.1106    5.3702   27.2076 C   0  0  0  0  0  0  0  0  0  0  0  0
  -10.4242    5.6786   27.4667 C   0  0  0  0  0  0  0  0  0  0  0  0
   -8.2289    6.4834   26.9174 C   0  0  0  0  0  0  0  0  0  0  0  0
   -8.5693    7.8346   26.9228 C   0  0  0  0  0  0  0  0  0  0  0  0
   -6.7504    0.1899   27.2511 C   0  0  0  0  0  0  0  0  0  0  0  0
   -5.4935    0.0683   27.8114 C   0  0  0  0  0  0  0  0  0  0  0  0
   -4.7783    1.3071   28.1713 C   0  0  0  0  0  0  0  0  0  0  0  0
   -5.2743    2.4725   28.0467 C   0  0  0  0  0  0  0  0  0  0  0  0
  -11.3029    4.6163   27.7826 C   0  0  0  0  0  0  0  0  0  0  0  0
  -11.1660    3.4099   27.7594 C   0  0  0  0  0  0  0  0  0  0  0  0
  2  7  1  0
  7  8  2  3
  7  9  1  0
  9 10  2  0
  8 15  1  0
 15 16  2  0
  1  2  2  0
  2  3  1  0
  3  6  2  0
  6  5  1  0
  4  1  1  0
  4  5  2  0
  5 11  1  0
 11 12  2  0
 12 13  1  0
 13 14  2  0
 14  4  1  0
M  END
$$$$
