No_2904-complexes_sdf/6BKW-FPZ/2024-09-17-14-21-01/
     RDKit          3D

 34 37  0  0  0  0  0  0  0  0999 V2000
   -7.2496    3.8871   27.4508 C   0  0  0  0  0  0  0  0  0  0  0  0
   -7.9379    4.9063   27.8518 C   0  0  0  0  0  0  0  0  0  0  0  0
   -9.3376    4.8647   27.7795 C   0  0  0  0  0  0  0  0  0  0  0  0
   -7.8544    2.6294   27.0414 C   0  0  0  0  0  0  0  0  0  0  0  0
   -9.2665    2.6175   27.0340 C   0  0  0  0  0  0  0  0  0  0  0  0
   -9.9836    3.7042   27.4150 C   0  0  0  0  0  0  0  0  0  0  0  0
   -7.0765    1.4847   26.7707 C   0  0  0  0  0  0  0  0  0  0  0  0
   -7.5539    0.6177   25.9664 O   0  0  0  0  0  0  0  0  0  0  0  0
   -5.9406    1.3144   27.4005 O   0  0  0  0  0  0  0  0  0  0  0  0
  -11.4606    3.6663   27.3986 C   0  0  0  0  0  0  0  0  0  0  0  0
  -12.0770    2.5666   28.0064 C   0  0  0  0  0  0  0  0  0  0  0  0
  -13.3678    2.4826   28.2652 C   0  0  0  0  0  0  0  0  0  0  0  0
  -14.1563    3.6260   27.8962 C   0  0  0  0  0  0  0  0  0  0  0  0
  -13.6044    4.7303   27.3452 C   0  0  0  0  0  0  0  0  0  0  0  0
  -12.1970    4.8050   27.1804 C   0  0  0  0  0  0  0  0  0  0  0  0
   -7.2903    6.0704   28.2199 N   0  0  0  0  0  0  0  0  0  0  0  0
   -5.5485    0.1181   28.0076 C   0  0  0  0  0  0  0  0  0  0  0  0
   -5.9568   -0.8647   28.0578 C   0  0  0  0  0  0  0  0  0  0  0  0
   -4.3474    0.4576   28.9634 C   0  0  0  0  0  0  0  0  0  0  0  0
   -3.8229   -0.4714   29.8030 C   0  0  0  0  0  0  0  0  0  0  0  0
   -5.5199   -1.9429   28.9336 C   0  0  0  0  0  0  0  0  0  0  0  0
   -4.3834   -1.6923   29.7901 C   0  0  0  0  0  0  0  0  0  0  0  0
  -14.0345    1.2737   28.8290 C   0  0  2  0  0  0  0  0  0  0  0  0
  -14.4552    1.3908   30.0216 C   0  0  0  0  0  0  0  0  0  0  0  0
  -14.8336    0.2447   30.7772 C   0  0  0  0  0  0  0  0  0  0  0  0
  -15.2524    0.3170   32.1421 C   0  0  0  0  0  0  0  0  0  0  0  0
  -15.2632    1.5827   32.7778 C   0  0  0  0  0  0  0  0  0  0  0  0
  -14.8450    2.7224   32.0785 C   0  0  0  0  0  0  0  0  0  0  0  0
  -14.4218    2.6314   30.8376 C   0  0  0  0  0  0  0  0  0  0  0  0
  -14.0458    0.1568   28.0512 C   0  0  0  0  0  0  0  0  0  0  0  0
  -14.7051   -0.1687   27.1866 C   0  0  0  0  0  0  0  0  0  0  0  0
  -14.9052   -0.8174   26.4264 C   0  0  0  0  0  0  0  0  0  0  0  0
  -14.0637   -2.0310   26.4779 C   0  0  0  0  0  0  0  0  0  0  0  0
  -13.1267   -2.0412   27.4859 C   0  0  0  0  0  0  0  0  0  0  0  0
  4  7  1  0
  7  8  2  0
  7  9  1  0
  6 10  1  0
  2 16  1  0
  9 17  1  0
 23 12  1  1
 23 24  1  0
 23 30  1  0
 30 31  2  3
 31 32  1  0
 32 33  2  3
 33 34  1  0
 24 25  2  0
 25 26  1  0
 26 27  2  0
 27 28  1  0
 28 29  2  0
 29 24  1  0
  1  2  2  0
  2  3  1  0
  3  6  2  0
  6  5  1  0
  5  4  2  0
  4  1  1  0
 17 18  2  0
 18 21  1  0
 21 22  2  0
 22 20  1  0
 20 19  2  0
 19 17  1  0
 10 11  2  0
 11 12  1  0
 12 13  2  0
 13 14  1  0
 14 15  2  0
 15 10  1  0
M  END
$$$$
