No_2542-complexes_sdf/6BKW-FPZ/2024-09-17-14-21-01/
     RDKit          3D

 35 39  0  0  0  0  0  0  0  0999 V2000
   -7.7129    4.2099   27.0854 C   0  0  0  0  0  0  0  0  0  0  0  0
   -8.9133    4.4736   27.0998 C   0  0  0  0  0  0  0  0  0  0  0  0
   -9.7135    3.9633   26.0300 C   0  0  0  0  0  0  0  0  0  0  0  0
   -7.2726    3.1259   27.1802 C   0  0  0  0  0  0  0  0  0  0  0  0
   -8.0645    2.0767   26.4520 C   0  0  0  0  0  0  0  0  0  0  0  0
   -9.2637    2.5587   25.9425 C   0  0  0  0  0  0  0  0  0  0  0  0
   -5.7603    2.5242   27.7868 Cl  0  0  0  0  0  0  0  0  0  0  0  0
  -10.0819    1.5631   25.2003 C   0  0  0  0  0  0  0  0  0  0  0  0
   -9.6445    0.7930   24.4309 N   0  0  0  0  0  0  0  0  0  0  0  0
   -9.3505    1.0125   23.2858 C   0  0  0  0  0  0  0  0  0  0  0  0
   -8.6272    0.0440   22.4042 C   0  0  0  0  0  0  0  0  0  0  0  0
   -9.3087   -0.5956   24.8643 C   0  0  0  0  0  0  0  0  0  0  0  0
   -8.6918   -1.5373   24.1219 C   0  0  0  0  0  0  0  0  0  0  0  0
   -8.3496   -1.1543   22.7991 C   0  0  0  0  0  0  0  0  0  0  0  0
  -11.3547    1.7221   25.2477 O   0  0  0  0  0  0  0  0  0  0  0  0
   -9.3241    6.0067   27.2988 C   0  0  0  0  0  0  0  0  0  0  0  0
   -7.7110   -2.1051   21.8512 C   0  0  0  0  0  0  0  0  0  0  0  0
   -8.2759   -2.4739   20.6579 C   0  0  0  0  0  0  0  0  0  0  0  0
   -7.5651   -3.3056   19.7436 C   0  0  0  0  0  0  0  0  0  0  0  0
   -6.2726   -3.7106   20.0511 C   0  0  0  0  0  0  0  0  0  0  0  0
   -6.3139   -2.5273   22.0988 C   0  0  0  0  0  0  0  0  0  0  0  0
   -5.6656   -3.3083   21.2145 C   0  0  0  0  0  0  0  0  0  0  0  0
   -5.6426   -2.0657   23.3233 C   0  0  0  0  0  0  0  0  0  0  0  0
   -5.4932   -0.9242   23.6804 O   0  0  0  0  0  0  0  0  0  0  0  0
   -4.7722   -2.9760   23.8746 O   0  0  0  0  0  0  0  0  0  0  0  0
   -8.2797   -3.6833   18.4947 C   0  0  0  0  0  0  0  0  0  0  0  0
   -8.9908   -2.9639   17.9020 N   0  0  0  0  0  0  0  0  0  0  0  0
   -9.6633   -2.0161   18.3715 C   0  0  0  0  0  0  0  0  0  0  0  0
   -9.5383   -1.6381   19.7484 C   0  0  0  0  0  0  0  0  0  0  0  0
   -9.5253   -3.3353   16.5096 C   0  0  0  0  0  0  0  0  0  0  0  0
  -10.6125   -4.0181   16.3480 C   0  0  0  0  0  0  0  0  0  0  0  0
  -11.0461   -4.2807   15.2212 C   0  0  0  0  0  0  0  0  0  0  0  0
   -8.6342   -2.9402   15.4994 C   0  0  0  0  0  0  0  0  0  0  0  0
   -9.0572   -3.2384   14.2132 C   0  0  0  0  0  0  0  0  0  0  0  0
  -10.2446   -3.9126   14.0364 C   0  0  0  0  0  0  0  0  0  0  0  0
  4  7  1  0
  6  8  1  0
  8  9  1  0
  9 10  1  0
  9 12  1  0
 11 14  1  0
 13 14  1  0
  8 15  2  0
  2 16  1  0
 14 17  1  0
 21 23  1  0
 23 24  1  0
 23 25  2  0
 19 26  1  0
 26 27  1  0
 27 28  1  0
 18 29  1  0
 27 30  1  0
 29 28  1  0
 10 11  1  0
 13 12  1  0
 17 18  2  0
 18 19  1  0
 19 20  2  0
 20 22  1  0
 22 21  2  0
 21 17  1  0
  1  2  2  0
  2  3  1  0
  3  6  2  0
  6  5  1  0
  5  4  2  0
  4  1  1  0
 30 31  2  0
 31 32  1  0
 32 35  2  0
 35 34  1  0
 34 33  2  0
 33 30  1  0
M  END
$$$$
