No_2284-complexes_sdf/6BKW-FPZ/2024-09-17-14-21-01/
     RDKit          3D

 35 39  0  0  0  0  0  0  0  0999 V2000
   -7.7129    4.2099   27.0854 C   0  0  0  0  0  0  0  0  0  0  0  0
   -7.7814    5.1722   27.8972 C   0  0  0  0  0  0  0  0  0  0  0  0
   -8.8998    3.8713   26.3707 C   0  0  0  0  0  0  0  0  0  0  0  0
   -8.9563    2.6796   25.5490 C   0  0  0  0  0  0  0  0  0  0  0  0
   -8.8131    6.1334   27.9344 C   0  0  0  0  0  0  0  0  0  0  0  0
   -9.9804    5.8121   27.1929 C   0  0  0  0  0  0  0  0  0  0  0  0
   -9.9861    4.6836   26.4532 C   0  0  0  0  0  0  0  0  0  0  0  0
   -9.8352    2.5435   24.5126 C   0  0  0  0  0  0  0  0  0  0  0  0
  -10.5252    3.2225   24.2194 C   0  0  0  0  0  0  0  0  0  0  0  0
  -11.5250    3.1657   23.1734 C   0  0  0  0  0  0  0  0  0  0  0  0
  -11.5150    1.9946   22.5136 C   0  0  0  0  0  0  0  0  0  0  0  0
  -10.8263    4.6009   25.0947 C   0  0  0  0  0  0  0  0  0  0  0  0
  -10.4599    0.9946   22.8089 C   0  0  0  0  0  0  0  0  0  0  0  0
   -9.6338    1.2626   23.8081 C   0  0  0  0  0  0  0  0  0  0  0  0
   -6.7179    5.5451   28.7136 O   0  0  0  0  0  0  0  0  0  0  0  0
  -12.5685    4.1543   22.8237 C   0  0  0  0  0  0  0  0  0  0  0  0
  -12.8618    4.9929   23.4760 C   0  0  0  0  0  0  0  0  0  0  0  0
  -12.7536    4.1652   21.3843 C   0  0  0  0  0  0  0  0  0  0  0  0
  -14.2073    5.6603   23.2300 C   0  0  0  0  0  0  0  0  0  0  0  0
  -14.6654    5.6522   21.8883 C   0  0  0  0  0  0  0  0  0  0  0  0
  -13.9790    4.8370   21.0162 C   0  0  0  0  0  0  0  0  0  0  0  0
   -8.6208    0.3650   24.2636 C   0  0  0  0  0  0  0  0  0  0  0  0
   -7.8546   -0.0780   23.4994 O   0  0  0  0  0  0  0  0  0  0  0  0
   -8.5778   -0.0876   25.5070 O   0  0  0  0  0  0  0  0  0  0  0  0
   -7.6644   -0.9240   25.9885 C   0  0  0  0  0  0  0  0  0  0  0  0
   -6.9609   -0.5159   27.0032 C   0  0  0  0  0  0  0  0  0  0  0  0
   -7.1277    0.3012   27.8788 C   0  0  0  0  0  0  0  0  0  0  0  0
   -5.4817   -1.0427   27.0211 C   0  0  0  0  0  0  0  0  0  0  0  0
   -4.5283   -0.6063   27.9628 C   0  0  0  0  0  0  0  0  0  0  0  0
   -3.2748   -1.1770   28.0458 C   0  0  0  0  0  0  0  0  0  0  0  0
   -6.2015    0.8488   28.8556 C   0  0  0  0  0  0  0  0  0  0  0  0
   -4.9241    0.3689   28.9188 C   0  0  0  0  0  0  0  0  0  0  0  0
   -2.8527   -1.8649   28.9513 C   0  0  0  0  0  0  0  0  0  0  0  0
   -1.5143   -2.3999   29.0359 C   0  0  0  0  0  0  0  0  0  0  0  0
   -0.6673   -2.1751   27.9415 C   0  0  0  0  0  0  0  0  0  0  0  0
  2 15  1  0
 10 16  1  0
 14 22  1  0
 22 23  2  0
 22 24  1  0
 24 25  1  0
 25 26  1  0
 30 33  1  0
 33 34  2  3
 34 35  1  0
 30 29  1  0
  1  2  2  0
  2  5  1  0
  5  6  2  0
  6  7  1  0
  3  1  1  0
 16 17  2  0
 17 19  1  0
 19 20  2  0
 20 21  1  0
 21 18  2  0
 18 16  1  0
  9 10  2  0
 10 11  1  0
 11 13  2  0
 13 14  1  0
 14  8  2  0
  3  4  2  0
  4  8  1  0
  8  9  1  0
  9 12  1  0
 12  7  2  0
  7  3  1  0
 26 27  2  0
 27 31  1  0
 31 32  2  0
 32 29  1  0
 29 28  2  0
 28 26  1  0
M  END
$$$$
