No_2115-complexes_sdf/6BKW-FPZ/2024-09-17-14-21-01/
     RDKit          3D

 13 14  0  0  0  0  0  0  0  0999 V2000
   -7.9040    3.9820   27.1177 C   0  0  0  0  0  0  0  0  0  0  0  0
   -7.8663    4.8694   27.9238 C   0  0  0  0  0  0  0  0  0  0  0  0
   -9.0491    3.8523   26.2542 C   0  0  0  0  0  0  0  0  0  0  0  0
   -9.4067    2.6808   25.6532 C   0  0  0  0  0  0  0  0  0  0  0  0
   -8.5275    6.1191   27.7061 C   0  0  0  0  0  0  0  0  0  0  0  0
  -10.3221    2.7328   24.5970 C   0  0  0  0  0  0  0  0  0  0  0  0
  -10.5842    1.6434   23.8227 C   0  0  0  0  0  0  0  0  0  0  0  0
   -9.6099    6.1436   26.8676 C   0  0  0  0  0  0  0  0  0  0  0  0
   -9.8339    5.0013   26.1059 C   0  0  0  0  0  0  0  0  0  0  0  0
   -8.7566    1.4839   25.8472 C   0  0  0  0  0  0  0  0  0  0  0  0
   -8.9773    0.3377   25.1487 C   0  0  0  0  0  0  0  0  0  0  0  0
   -9.9105    0.4343   24.1303 C   0  0  0  0  0  0  0  0  0  0  0  0
   -6.9972    2.5181   27.4724 Cl  0  0  0  0  0  0  0  0  0  0  0  0
  3  4  1  0
  1 13  1  0
  4  6  2  0
  6  7  1  0
  7 12  2  0
 12 11  1  0
 11 10  2  0
 10  4  1  0
  1  2  2  0
  2  5  1  0
  5  8  2  0
  8  9  1  0
  9  3  2  0
  3  1  1  0
M  END
$$$$
