No_2577-complexes_sdf/6BKW-FPZ/2024-09-17-14-21-01/
     RDKit          3D

 17 19  0  0  0  0  0  0  0  0999 V2000
   -7.7129    4.2099   27.0854 C   0  0  0  0  0  0  0  0  0  0  0  0
   -8.9133    4.4736   27.0998 C   0  0  0  0  0  0  0  0  0  0  0  0
   -9.7135    3.9633   26.0300 C   0  0  0  0  0  0  0  0  0  0  0  0
   -6.8655    4.8824   28.1822 C   0  0  0  0  0  0  0  0  0  0  0  0
   -9.2221    2.8459   25.3619 C   0  0  0  0  0  0  0  0  0  0  0  0
   -8.0164    2.2957   25.7889 C   0  0  0  0  0  0  0  0  0  0  0  0
   -7.3052    2.9474   26.8072 C   0  0  0  0  0  0  0  0  0  0  0  0
  -10.0330    2.1843   24.3790 C   0  0  0  0  0  0  0  0  0  0  0  0
   -9.7030    1.0090   23.9743 C   0  0  0  0  0  0  0  0  0  0  0  0
  -10.3930    0.3968   22.8930 C   0  0  0  0  0  0  0  0  0  0  0  0
  -11.4367    1.0884   22.2517 C   0  0  0  0  0  0  0  0  0  0  0  0
  -11.0241    2.8836   23.6319 C   0  0  0  0  0  0  0  0  0  0  0  0
  -11.7111    2.3615   22.6418 C   0  0  0  0  0  0  0  0  0  0  0  0
   -9.1986    5.8406   27.5675 N   0  0  0  0  0  0  0  0  0  0  0  0
   -8.5120    6.9660   27.4703 C   0  0  0  0  0  0  0  0  0  0  0  0
   -7.1989    6.7669   26.9083 C   0  0  0  0  0  0  0  0  0  0  0  0
   -6.5138    5.9144   27.2601 N   0  0  0  0  0  0  0  0  0  0  0  0
  1  4  1  0
  5  8  1  0
  2 14  1  0
 14 15  1  0
 15 16  1  0
  4 17  1  0
 16 17  1  0
  8  9  2  0
  9 10  1  0
 10 11  2  0
 11 13  1  0
 13 12  2  0
 12  8  1  0
  1  2  1  0
  2  3  2  0
  3  5  1  0
  5  6  2  0
  6  7  1  0
  7  1  2  0
M  END
$$$$
