No_2402-complexes_sdf/6BKW-FPZ/2024-09-17-14-21-01/
     RDKit          3D

 22 25  0  0  0  0  0  0  0  0999 V2000
   -7.9040    3.9820   27.1177 C   0  0  0  0  0  0  0  0  0  0  0  0
   -7.8663    4.8694   27.9238 C   0  0  0  0  0  0  0  0  0  0  0  0
   -7.4698    2.6989   27.4277 C   0  0  0  0  0  0  0  0  0  0  0  0
   -7.9683    1.5964   26.8266 C   0  0  0  0  0  0  0  0  0  0  0  0
   -8.9447    1.7923   25.8533 C   0  0  0  0  0  0  0  0  0  0  0  0
   -9.4405    2.9988   25.5757 C   0  0  0  0  0  0  0  0  0  0  0  0
   -8.9424    4.1117   26.2388 C   0  0  0  0  0  0  0  0  0  0  0  0
   -8.2460    6.2906   27.6575 C   0  0  0  0  0  0  0  0  0  0  0  0
   -9.1845    6.5830   26.6401 C   0  0  0  0  0  0  0  0  0  0  0  0
   -9.5389    5.3912   25.8820 C   0  0  0  0  0  0  0  0  0  0  0  0
   -7.4004    0.2532   27.0943 C   0  0  0  0  0  0  0  0  0  0  0  0
   -6.0812    0.0876   27.5111 C   0  0  0  0  0  0  0  0  0  0  0  0
   -5.1694    1.2224   27.6804 C   0  0  0  0  0  0  0  0  0  0  0  0
   -5.9280    2.5641   27.7928 C   0  0  0  0  0  0  0  0  0  0  0  0
   -3.6916    1.1939   28.3435 Cl  0  0  0  0  0  0  0  0  0  0  0  0
  -10.4943    3.1321   24.5224 C   0  0  0  0  0  0  0  0  0  0  0  0
  -11.7095    3.4676   24.9062 C   0  0  0  0  0  0  0  0  0  0  0  0
  -10.1551    2.8338   23.2139 C   0  0  0  0  0  0  0  0  0  0  0  0
  -12.7308    3.6921   23.9889 C   0  0  0  0  0  0  0  0  0  0  0  0
  -11.0830    3.0669   22.2160 C   0  0  0  0  0  0  0  0  0  0  0  0
  -12.3818    3.5035   22.6059 C   0  0  0  0  0  0  0  0  0  0  0  0
   -9.5411    0.7577   25.3106 O   0  0  0  0  0  0  0  0  0  0  0  0
  1  3  1  0
  4  5  1  0
  5  6  1  0
  6  7  1  0
 13 15  1  0
  6 16  1  0
  5 22  2  0
  1  2  2  0
  2  8  1  0
  8  9  2  0
  9 10  1  0
 10  7  2  0
  7  1  1  0
  3  4  2  0
  4 11  1  0
 11 12  2  0
 12 13  1  0
 13 14  2  0
 14  3  1  0
 16 17  2  0
 17 19  1  0
 19 21  2  0
 21 20  1  0
 20 18  2  0
 18 16  1  0
M  END
$$$$
