No_2661-complexes_sdf/6BKW-FPZ/2024-09-17-14-21-01/
     RDKit          3D

 21 23  0  0  0  0  0  0  0  0999 V2000
   -7.2496    3.8871   27.4508 C   0  0  0  0  0  0  0  0  0  0  0  0
   -7.9379    4.9063   27.8518 C   0  0  0  0  0  0  0  0  0  0  0  0
   -9.3376    4.8647   27.7795 C   0  0  0  0  0  0  0  0  0  0  0  0
   -7.8544    2.6294   27.0414 C   0  0  0  0  0  0  0  0  0  0  0  0
   -9.2852    2.6570   27.0666 C   0  0  0  0  0  0  0  0  0  0  0  0
  -10.0126    3.7528   27.4890 C   0  0  0  0  0  0  0  0  0  0  0  0
  -11.4946    3.6924   27.5201 C   0  0  0  0  0  0  0  0  0  0  0  0
  -12.0181    2.6419   28.0792 C   0  0  0  0  0  0  0  0  0  0  0  0
  -11.1682    1.5747   28.6284 C   0  0  0  0  0  0  0  0  0  0  0  0
   -9.9209    1.3590   27.7556 C   0  0  0  0  0  0  0  0  0  0  0  0
   -7.2924    6.1052   28.0136 O   0  0  0  0  0  0  0  0  0  0  0  0
  -13.4423    2.5351   28.4656 C   0  0  0  0  0  0  0  0  0  0  0  0
  -14.0067    1.7082   29.0475 F   0  0  0  0  0  0  0  0  0  0  0  0
  -13.6981    3.7723   29.1536 F   0  0  0  0  0  0  0  0  0  0  0  0
  -14.1571    2.8473   27.2428 F   0  0  0  0  0  0  0  0  0  0  0  0
   -9.3976    0.1076   27.4591 C   0  0  0  0  0  0  0  0  0  0  0  0
   -8.2825   -0.2083   27.8371 C   0  0  0  0  0  0  0  0  0  0  0  0
   -7.6961   -1.5455   27.6620 C   0  0  0  0  0  0  0  0  0  0  0  0
   -8.6076   -2.4937   27.2601 C   0  0  0  0  0  0  0  0  0  0  0  0
  -10.2200   -0.9299   27.1147 C   0  0  0  0  0  0  0  0  0  0  0  0
   -9.8726   -2.0212   27.0357 C   0  0  0  0  0  0  0  0  0  0  0  0
  2 11  1  0
  8 12  1  0
 12 13  1  0
 12 14  1  0
 12 15  1  0
 10 16  1  0
  1  2  2  0
  2  3  1  0
  3  6  2  0
  5  4  2  0
  4  1  1  0
  5  6  1  0
  6  7  1  0
  7  8  2  0
  8  9  1  0
  9 10  2  0
 10  5  1  0
 16 17  2  0
 17 18  1  0
 18 19  2  0
 19 21  1  0
 21 20  2  0
 20 16  1  0
M  END
$$$$
