No_2316-complexes_sdf/6BKW-FPZ/2024-09-17-14-21-01/
     RDKit          3D

 26 28  0  0  0  0  0  0  0  0999 V2000
   -7.9040    3.9820   27.1177 C   0  0  0  0  0  0  0  0  0  0  0  0
   -7.8663    4.8694   27.9238 C   0  0  0  0  0  0  0  0  0  0  0  0
   -9.0501    3.8017   26.2617 C   0  0  0  0  0  0  0  0  0  0  0  0
  -10.0189    4.7608   26.3707 C   0  0  0  0  0  0  0  0  0  0  0  0
   -8.6973    5.9722   27.8968 C   0  0  0  0  0  0  0  0  0  0  0  0
   -9.8216    5.8946   27.1241 C   0  0  0  0  0  0  0  0  0  0  0  0
   -9.1437    2.6293   25.4175 C   0  0  0  0  0  0  0  0  0  0  0  0
   -8.6170    1.4258   25.8177 C   0  0  0  0  0  0  0  0  0  0  0  0
   -8.6844    0.3194   24.9788 C   0  0  0  0  0  0  0  0  0  0  0  0
   -9.3359    0.4939   23.7289 C   0  0  0  0  0  0  0  0  0  0  0  0
   -9.8521    1.7195   23.3158 C   0  0  0  0  0  0  0  0  0  0  0  0
   -9.7240    2.7821   24.1593 C   0  0  0  0  0  0  0  0  0  0  0  0
  -10.5736    1.8636   21.7984 Cl  0  0  0  0  0  0  0  0  0  0  0  0
   -8.1202   -0.8555   25.5066 C   0  0  0  0  0  0  0  0  0  0  0  0
   -8.2973   -1.8698   25.2817 O   0  0  0  0  0  0  0  0  0  0  0  0
   -7.4031   -0.6749   26.7415 O   0  0  0  0  0  0  0  0  0  0  0  0
   -6.6365   -1.6526   27.2266 C   0  0  0  0  0  0  0  0  0  0  0  0
   -6.0068   -1.2581   28.4987 C   0  0  0  0  0  0  0  0  0  0  0  0
   -4.6352   -1.3233   28.6373 C   0  0  0  0  0  0  0  0  0  0  0  0
   -3.9832   -0.7952   29.8526 C   0  0  0  0  0  0  0  0  0  0  0  0
   -4.7923   -0.4387   30.8960 C   0  0  0  0  0  0  0  0  0  0  0  0
   -6.1525   -0.6006   30.8472 C   0  0  0  0  0  0  0  0  0  0  0  0
   -6.7092   -1.0100   29.6656 C   0  0  0  0  0  0  0  0  0  0  0  0
   -3.8980   -0.1031   32.0633 C   0  0  0  0  0  0  0  0  0  0  0  0
   -4.0009   -0.9415   32.9081 F   0  0  0  0  0  0  0  0  0  0  0  0
   -3.2393    0.8692   32.0892 F   0  0  0  0  0  0  0  0  0  0  0  0
  3  7  1  0
 11 13  1  0
  9 14  1  0
 14 15  2  0
 14 16  1  0
 16 17  1  0
 17 18  1  0
 21 24  1  0
 24 25  1  0
 24 26  1  0
 18 19  2  0
 19 20  1  0
 20 21  2  0
 21 22  1  0
 22 23  2  0
 23 18  1  0
  1  2  2  0
  2  5  1  0
  5  6  2  0
  6  4  1  0
  4  3  2  0
  3  1  1  0
  7  8  2  0
  8  9  1  0
  9 10  2  0
 10 11  1  0
 11 12  2  0
 12  7  1  0
M  END
$$$$
