No_2581-complexes_sdf/6BKW-FPZ/2024-09-17-14-21-01/
     RDKit          3D

 34 37  0  0  0  0  0  0  0  0999 V2000
   -7.9040    3.9820   27.1177 C   0  0  0  0  0  0  0  0  0  0  0  0
   -8.2057    2.8231   26.8733 C   0  0  0  0  0  0  0  0  0  0  0  0
   -9.2962    2.4021   26.1155 C   0  0  0  0  0  0  0  0  0  0  0  0
   -8.7358    5.0662   26.5917 C   0  0  0  0  0  0  0  0  0  0  0  0
   -9.7618    4.7023   25.7546 C   0  0  0  0  0  0  0  0  0  0  0  0
  -10.0066    3.4105   25.4922 C   0  0  0  0  0  0  0  0  0  0  0  0
   -8.3943    6.4760   26.8801 C   0  0  0  0  0  0  0  0  0  0  0  0
   -8.0574    7.5061   27.0291 N   0  0  0  0  0  0  0  0  0  0  0  0
   -7.3437    1.6766   27.4898 C   0  0  0  0  0  0  0  0  0  0  0  0
   -6.5294    0.9452   26.7224 C   0  0  0  0  0  0  0  0  0  0  0  0
   -5.7245   -0.0334   27.4546 C   0  0  0  0  0  0  0  0  0  0  0  0
   -4.7165   -0.0844   27.5664 C   0  0  0  0  0  0  0  0  0  0  0  0
   -3.8784   -1.0142   28.3713 C   0  0  0  0  0  0  0  0  0  0  0  0
   -4.5569   -1.8904   29.1901 C   0  0  0  0  0  0  0  0  0  0  0  0
   -6.4674   -0.9448   28.4420 C   0  0  0  0  0  0  0  0  0  0  0  0
   -5.8991   -1.8002   29.1968 C   0  0  0  0  0  0  0  0  0  0  0  0
   -3.7861    0.7494   26.8487 O   0  0  0  0  0  0  0  0  0  0  0  0
   -2.7413    1.3089   27.3261 C   0  0  0  0  0  0  0  0  0  0  0  0
  -11.1103    3.0923   24.5690 C   0  0  2  0  0  0  0  0  0  0  0  0
  -12.2964    2.7908   25.0354 C   0  0  0  0  0  0  0  0  0  0  0  0
  -12.6555    2.4108   26.0196 C   0  0  0  0  0  0  0  0  0  0  0  0
  -14.0720    2.1203   26.4488 C   0  0  0  0  0  0  0  0  0  0  0  0
  -15.0132    2.3258   25.5059 C   0  0  0  0  0  0  0  0  0  0  0  0
  -14.6982    2.8177   24.2824 C   0  0  0  0  0  0  0  0  0  0  0  0
  -13.3933    3.1262   23.9627 C   0  0  0  0  0  0  0  0  0  0  0  0
  -10.6716    3.0121   23.1809 C   0  0  0  0  0  0  0  0  0  0  0  0
  -10.7092    4.1014   22.3976 C   0  0  0  0  0  0  0  0  0  0  0  0
  -10.2754    4.0331   21.0440 C   0  0  0  0  0  0  0  0  0  0  0  0
   -9.7861    2.8289   20.5605 C   0  0  0  0  0  0  0  0  0  0  0  0
  -10.2211    1.8064   22.6866 C   0  0  0  0  0  0  0  0  0  0  0  0
  -10.2230    0.6000   23.4699 C   0  0  0  0  0  0  0  0  0  0  0  0
   -9.7538    1.7038   21.3481 C   0  0  0  0  0  0  0  0  0  0  0  0
  -10.8772    0.0361   24.0879 C   0  0  0  0  0  0  0  0  0  0  0  0
  -10.7936   -1.1582   24.8545 C   0  0  0  0  0  0  0  0  0  0  0  0
  4  7  1  0
  7  8  3  0
  2  9  1  0
  9 10  2  3
 10 11  1  0
 12 17  1  0
 17 18  1  0
 19  6  1  1
 19 20  1  0
 19 26  1  0
 30 31  1  0
 31 33  2  3
 33 34  1  0
  1  2  2  0
  2  3  1  0
  3  6  2  0
  6  5  1  0
  5  4  2  0
  4  1  1  0
 26 27  2  0
 27 28  1  0
 28 29  2  0
 29 32  1  0
 32 30  2  0
 30 26  1  0
 20 21  2  0
 21 22  1  0
 22 23  2  0
 23 24  1  0
 24 25  2  0
 25 20  1  0
 11 12  2  0
 12 13  1  0
 13 14  2  0
 14 16  1  0
 16 15  2  0
 15 11  1  0
M  END
$$$$
