No_2879-complexes_sdf/6BKW-FPZ/2024-09-17-14-21-01/
     RDKit          3D

 16 17  0  0  0  0  0  0  0  0999 V2000
   -7.7129    4.2099   27.0854 C   0  0  0  0  0  0  0  0  0  0  0  0
   -7.7814    5.1722   27.8972 C   0  0  0  0  0  0  0  0  0  0  0  0
   -8.8776    3.8408   26.3416 C   0  0  0  0  0  0  0  0  0  0  0  0
   -9.9844    4.6492   26.4743 C   0  0  0  0  0  0  0  0  0  0  0  0
   -8.8033    6.1375   27.8728 C   0  0  0  0  0  0  0  0  0  0  0  0
   -9.9554    5.8280   27.1736 C   0  0  0  0  0  0  0  0  0  0  0  0
   -8.8740    2.6184   25.5584 C   0  0  1  0  0  0  0  0  0  0  0  0
   -8.2143    1.6210   26.0312 O   0  0  0  0  0  0  0  0  0  0  0  0
   -9.8355    2.4149   24.8516 F   0  0  0  0  0  0  0  0  0  0  0  0
   -8.1626    0.4186   25.3415 C   0  0  0  0  0  0  0  0  0  0  0  0
   -8.2835   -0.6930   26.1717 C   0  0  0  0  0  0  0  0  0  0  0  0
   -7.9915   -0.5526   27.5089 C   0  0  0  0  0  0  0  0  0  0  0  0
   -8.7975   -1.8190   25.6779 N   0  0  0  0  0  0  0  0  0  0  0  0
   -8.1622   -1.6858   28.3923 C   0  0  0  0  0  0  0  0  0  0  0  0
   -9.0030   -2.8751   26.5445 C   0  0  0  0  0  0  0  0  0  0  0  0
   -8.7003   -2.8018   27.8946 C   0  0  0  0  0  0  0  0  0  0  0  0
  3  7  1  0
  7  8  1  0
  7  9  1  1
  8 10  1  0
 10 11  1  0
 11 12  2  0
 12 14  1  0
 14 16  2  0
 16 15  1  0
 15 13  2  0
 13 11  1  0
  1  2  2  0
  2  5  1  0
  5  6  2  0
  6  4  1  0
  4  3  2  0
  3  1  1  0
M  END
$$$$
