No_2226-complexes_sdf/6BKW-FPZ/2024-09-17-14-21-01/
     RDKit          3D

 16 17  0  0  0  0  0  0  0  0999 V2000
   -7.7129    4.2099   27.0854 C   0  0  0  0  0  0  0  0  0  0  0  0
   -8.2112    3.0637   26.9225 C   0  0  0  0  0  0  0  0  0  0  0  0
   -8.5108    5.3904   26.9436 C   0  0  0  0  0  0  0  0  0  0  0  0
   -9.7256    5.1955   26.3518 C   0  0  0  0  0  0  0  0  0  0  0  0
   -7.4704    1.8386   27.3272 C   0  0  0  0  0  0  0  0  0  0  0  0
   -9.4956    2.7608   26.4620 C   0  0  0  0  0  0  0  0  0  0  0  0
  -10.2454    3.9392   26.1664 C   0  0  0  0  0  0  0  0  0  0  0  0
   -6.0991    2.0258   27.7335 C   0  0  0  0  0  0  0  0  0  0  0  0
   -7.9622    0.5577   27.2332 C   0  0  0  0  0  0  0  0  0  0  0  0
   -5.3165    0.8780   28.1001 C   0  0  0  0  0  0  0  0  0  0  0  0
   -7.1727   -0.5449   27.6633 C   0  0  0  0  0  0  0  0  0  0  0  0
   -5.8638   -0.3487   28.1099 C   0  0  0  0  0  0  0  0  0  0  0  0
   -7.9653    6.7392   27.1422 C   0  0  0  0  0  0  0  0  0  0  0  0
   -7.0015    6.8043   27.9623 F   0  0  0  0  0  0  0  0  0  0  0  0
   -8.9143    7.5562   27.7734 F   0  0  0  0  0  0  0  0  0  0  0  0
   -7.6066    7.3455   26.0307 F   0  0  0  0  0  0  0  0  0  0  0  0
  2  5  1  0
  3 13  1  0
 13 14  1  0
 13 15  1  0
 13 16  1  0
  1  2  2  0
  2  6  1  0
  6  7  2  0
  7  4  1  0
  4  3  2  0
  3  1  1  0
  5  8  2  0
  8 10  1  0
 10 12  2  0
 12 11  1  0
 11  9  2  0
  9  5  1  0
M  END
$$$$
