No_2064-complexes_sdf/6BKW-FPZ/2024-09-17-14-21-01/
     RDKit          3D

 40 46  0  0  0  0  0  0  0  0999 V2000
   -7.2496    3.8871   27.4508 C   0  0  0  0  0  0  0  0  0  0  0  0
   -8.5096    4.0291   27.2770 C   0  0  0  0  0  0  0  0  0  0  0  0
   -9.2677    5.1714   27.5773 C   0  0  0  0  0  0  0  0  0  0  0  0
   -9.2765    2.8248   26.8371 C   0  0  0  0  0  0  0  0  0  0  0  0
  -10.4623    3.0171   26.3236 C   0  0  0  0  0  0  0  0  0  0  0  0
  -10.6079    5.2706   27.2578 C   0  0  0  0  0  0  0  0  0  0  0  0
  -11.2590    4.1999   26.7166 C   0  0  0  0  0  0  0  0  0  0  0  0
   -6.5449    2.7049   27.4611 N   0  0  0  0  0  0  0  0  0  0  0  0
   -6.2686    1.8044   28.2188 C   0  0  0  0  0  0  0  0  0  0  0  0
   -5.3597    0.6803   27.7445 C   0  0  0  0  0  0  0  0  0  0  0  0
   -6.5432    4.8787   28.0190 O   0  0  0  0  0  0  0  0  0  0  0  0
   -5.0001    0.4291   26.6575 C   0  0  0  0  0  0  0  0  0  0  0  0
   -4.1374   -0.7063   26.2717 C   0  0  0  0  0  0  0  0  0  0  0  0
   -3.4774   -1.3695   27.2889 C   0  0  0  0  0  0  0  0  0  0  0  0
   -4.5515   -0.1823   28.7320 C   0  0  0  0  0  0  0  0  0  0  0  0
   -3.7468   -1.0859   28.5613 C   0  0  0  0  0  0  0  0  0  0  0  0
  -12.6784    4.3356   26.3257 C   0  0  2  0  0  0  0  0  0  0  0  0
  -13.3964    3.4625   26.6085 N   0  0  0  0  0  0  0  0  0  0  0  0
  -14.1777    3.2472   27.2679 C   0  0  0  0  0  0  0  0  0  0  0  0
  -14.2555    2.8855   28.3928 C   0  0  0  0  0  0  0  0  0  0  0  0
  -12.9628    2.5544   28.9645 C   0  0  0  0  0  0  0  0  0  0  0  0
  -12.3860    1.6744   29.4690 C   0  0  0  0  0  0  0  0  0  0  0  0
  -13.0093    0.3962   29.5368 C   0  0  0  0  0  0  0  0  0  0  0  0
  -14.3500    0.3788   29.7386 C   0  0  0  0  0  0  0  0  0  0  0  0
  -15.3976    1.0369   29.1585 C   0  0  0  0  0  0  0  0  0  0  0  0
  -15.2973    2.1802   28.5972 C   0  0  0  0  0  0  0  0  0  0  0  0
  -15.6012    3.7642   26.7175 C   0  0  0  0  0  0  0  0  0  0  0  0
  -15.6230    4.4773   25.6014 C   0  0  0  0  0  0  0  0  0  0  0  0
  -14.4120    4.8146   24.8210 C   0  0  0  0  0  0  0  0  0  0  0  0
  -13.1213    4.8507   25.2441 C   0  0  0  0  0  0  0  0  0  0  0  0
  -16.1982    2.5469   27.4162 C   0  0  0  0  0  0  0  0  0  0  0  0
  -12.9315    2.0067   25.9818 C   0  0  1  0  0  0  0  0  0  0  0  0
  -12.0979    2.0058   24.8944 C   0  0  0  0  0  0  0  0  0  0  0  0
  -11.0317    1.8922   25.7574 C   0  0  2  0  0  0  0  0  0  0  0  0
  -12.8936    0.8637   26.5647 C   0  0  0  0  0  0  0  0  0  0  0  0
  -11.1006    0.5201   26.4308 C   0  0  0  0  0  0  0  0  0  0  0  0
   -9.8073    1.4436   24.6591 C   0  0  2  0  0  0  0  0  0  0  0  0
   -9.7992    1.9790   23.4308 C   0  0  0  0  0  0  0  0  0  0  0  0
   -9.5265   -0.0507   24.5761 C   0  0  0  0  0  0  0  0  0  0  0  0
   -8.6666   -0.3416   23.4944 C   0  0  0  0  0  0  0  0  0  0  0  0
  1  2  1  0
  1  8  1  0
  8  9  2  3
  9 10  1  0
  1 11  2  0
  7 17  1  0
 17 18  1  0
 18 19  1  0
 19 20  2  0
 20 21  1  0
 21 22  3  0
 22 23  1  0
 23 24  2  0
 24 25  1  0
 20 26  1  0
 25 26  2  0
 19 27  1  0
 27 28  2  0
 28 29  1  0
 17 30  1  6
 29 30  2  0
 26 31  1  0
 27 31  1  0
 18 32  1  0
 32 33  1  0
  5 34  1  0
 33 34  1  0
 32 35  1  1
 34 36  1  1
 35 36  1  0
 34 37  1  0
 37 38  1  6
 37 39  1  0
 39 40  2  0
 10 12  2  0
 12 13  1  0
 13 14  2  0
 14 16  1  0
 16 15  2  0
 15 10  1  0
  2  3  2  0
  3  6  1  0
  6  7  2  0
  7  5  1  0
  5  4  2  0
  4  2  1  0
M  END
$$$$
