No_299-complexes_sdf/6BKW-FPZ/2024-09-17-14-21-01/
     RDKit          3D

 19 21  0  0  0  0  0  0  0  0999 V2000
   -7.2496    3.8871   27.4508 C   0  0  0  0  0  0  0  0  0  0  0  0
   -7.6161    2.7143   27.1523 C   0  0  0  0  0  0  0  0  0  0  0  0
   -8.8302    2.4659   26.5056 C   0  0  0  0  0  0  0  0  0  0  0  0
   -8.1584    5.0090   27.3234 C   0  0  0  0  0  0  0  0  0  0  0  0
   -9.3788    4.7965   26.7695 C   0  0  0  0  0  0  0  0  0  0  0  0
   -9.7028    3.5649   26.3276 C   0  0  0  0  0  0  0  0  0  0  0  0
   -6.5552    1.6737   27.4428 C   0  0  0  0  0  0  0  0  0  0  0  0
   -6.9471    0.3963   27.6411 N   0  0  0  0  0  0  0  0  0  0  0  0
   -6.1152   -0.5298   28.1027 C   0  0  0  0  0  0  0  0  0  0  0  0
   -5.2622    1.8926   27.7422 C   0  0  0  0  0  0  0  0  0  0  0  0
   -4.3427    1.0138   28.1920 C   0  0  0  0  0  0  0  0  0  0  0  0
   -4.8087   -0.2616   28.3976 C   0  0  0  0  0  0  0  0  0  0  0  0
   -7.7344    6.2739   27.7469 N   0  0  0  0  0  0  0  0  0  0  0  0
   -3.9409   -1.3366   28.9391 C   0  0  0  0  0  0  0  0  0  0  0  0
   -2.7749   -1.2260   29.0060 C   0  0  0  0  0  0  0  0  0  0  0  0
   -1.8185   -2.1933   29.5464 C   0  0  0  0  0  0  0  0  0  0  0  0
   -2.3585   -3.3168   30.0311 C   0  0  0  0  0  0  0  0  0  0  0  0
   -4.5065   -2.4850   29.4797 C   0  0  0  0  0  0  0  0  0  0  0  0
   -3.7270   -3.4756   30.0343 C   0  0  0  0  0  0  0  0  0  0  0  0
  2  7  1  0
  4 13  1  0
 12 14  1  0
 14 15  2  0
 15 16  1  0
 16 17  2  0
 17 19  1  0
 19 18  2  0
 18 14  1  0
  1  2  2  0
  2  3  1  0
  3  6  2  0
  6  5  1  0
  5  4  2  0
  4  1  1  0
  7  8  2  0
  8  9  1  0
  9 12  2  0
 12 11  1  0
 11 10  2  0
 10  7  1  0
M  END
$$$$
