No_2222-complexes_sdf/6BKW-FPZ/2024-09-17-14-21-01/
     RDKit          3D

 18 19  0  0  0  0  0  0  0  0999 V2000
   -7.2496    3.8871   27.4508 C   0  0  0  0  0  0  0  0  0  0  0  0
   -7.9379    4.9063   27.8518 C   0  0  0  0  0  0  0  0  0  0  0  0
   -7.4895    6.2027   27.7481 C   0  0  0  0  0  0  0  0  0  0  0  0
   -7.4701    2.5429   27.5231 C   0  0  0  0  0  0  0  0  0  0  0  0
   -8.6084    2.1269   27.3632 C   0  0  0  0  0  0  0  0  0  0  0  0
   -8.9645    0.7297   27.3054 C   0  0  0  0  0  0  0  0  0  0  0  0
   -9.7706    3.0197   27.3985 C   0  0  0  0  0  0  0  0  0  0  0  0
   -9.4039    4.6296   27.7418 C   0  0  0  0  0  0  0  0  0  0  0  0
   -8.0437   -0.2213   27.2834 C   0  0  0  0  0  0  0  0  0  0  0  0
   -8.3599   -1.5688   27.1553 C   0  0  0  0  0  0  0  0  0  0  0  0
   -9.7303   -1.9075   27.1790 C   0  0  0  0  0  0  0  0  0  0  0  0
  -10.0277   -3.2641   27.1184 C   0  0  0  0  0  0  0  0  0  0  0  0
  -10.3078    0.2551   27.3503 C   0  0  0  0  0  0  0  0  0  0  0  0
  -10.6334   -1.0156   27.3041 C   0  0  0  0  0  0  0  0  0  0  0  0
   -9.3531   -4.1864   26.9836 O   0  0  0  0  0  0  0  0  0  0  0  0
  -11.3640   -3.6008   27.2283 O   0  0  0  0  0  0  0  0  0  0  0  0
   -7.6921    7.3582   27.1281 N   0  0  0  0  0  0  0  0  0  0  0  0
   -8.7432    7.3136   26.2726 C   0  0  0  0  0  0  0  0  0  0  0  0
  2  3  1  0
  5  6  1  0
 11 12  1  0
 12 15  2  0
 12 16  1  0
  3 17  2  3
 17 18  1  0
  6  9  2  0
  9 10  1  0
 10 11  2  0
 11 14  1  0
 14 13  2  0
 13  6  1  0
  1  2  2  0
  2  8  1  0
  8  7  2  0
  7  5  1  0
  5  4  2  0
  4  1  1  0
M  END
$$$$
