No_246-complexes_sdf/6BKW-FPZ/2024-09-17-14-21-01/
     RDKit          3D

 22 24  0  0  0  0  0  0  0  0999 V2000
   -7.9040    3.9820   27.1177 C   0  0  0  0  0  0  0  0  0  0  0  0
   -7.8663    4.8694   27.9238 C   0  0  0  0  0  0  0  0  0  0  0  0
   -9.0501    3.8017   26.2617 C   0  0  0  0  0  0  0  0  0  0  0  0
  -10.0189    4.7608   26.3707 C   0  0  0  0  0  0  0  0  0  0  0  0
   -8.6973    5.9722   27.8968 C   0  0  0  0  0  0  0  0  0  0  0  0
   -9.8216    5.8946   27.1241 C   0  0  0  0  0  0  0  0  0  0  0  0
   -9.3622    2.6765   25.4475 C   0  0  0  0  0  0  0  0  0  0  0  0
   -8.7910    1.4486   25.7624 C   0  0  0  0  0  0  0  0  0  0  0  0
   -8.2182    1.2991   26.9506 C   0  0  0  0  0  0  0  0  0  0  0  0
   -7.6638   -0.0301   27.3149 C   0  0  0  0  0  0  0  0  0  0  0  0
   -7.9086   -1.0208   26.4467 C   0  0  0  0  0  0  0  0  0  0  0  0
   -9.0251    0.2924   25.0336 C   0  0  0  0  0  0  0  0  0  0  0  0
   -8.5864   -0.9037   25.3024 C   0  0  0  0  0  0  0  0  0  0  0  0
  -10.0571    2.8503   24.2319 C   0  0  0  0  0  0  0  0  0  0  0  0
  -10.7570    4.0137   23.9569 C   0  0  0  0  0  0  0  0  0  0  0  0
  -10.8279    4.8663   25.1839 N   0  0  0  0  0  0  0  0  0  0  0  0
  -11.6125    4.2863   22.9636 C   0  0  0  0  0  0  0  0  0  0  0  0
  -11.1471    4.0649   21.7262 C   0  0  0  0  0  0  0  0  0  0  0  0
   -9.8109    3.5917   21.5304 C   0  0  0  0  0  0  0  0  0  0  0  0
   -9.4151    2.5711   22.5335 C   0  0  0  0  0  0  0  0  0  0  0  0
   -8.3893    1.3456   22.4145 Cl  0  0  0  0  0  0  0  0  0  0  0  0
  -10.0149    1.6896   22.2407 C   0  0  0  0  0  0  0  0  0  0  0  0
  7  8  1  0
 15 17  1  0
 17 18  2  3
 18 19  1  0
 19 20  2  3
 20 21  1  0
 20 22  1  0
  4 16  2  0
 16 15  1  0
 15 14  2  0
 14  7  1  0
  7  3  2  0
  1  2  2  0
  2  5  1  0
  5  6  2  0
  6  4  1  0
  4  3  1  0
  3  1  1  0
  8  9  2  0
  9 10  1  0
 10 11  2  0
 11 13  1  0
 13 12  2  0
 12  8  1  0
M  END
$$$$
