No_2635-complexes_sdf/6BKW-FPZ/2024-09-17-14-21-01/
     RDKit          3D

 10 10  0  0  0  0  0  0  0  0999 V2000
   -7.9040    3.9820   27.1177 C   0  0  0  0  0  0  0  0  0  0  0  0
   -7.8663    4.8694   27.9238 C   0  0  0  0  0  0  0  0  0  0  0  0
   -7.4698    2.6989   27.4277 C   0  0  0  0  0  0  0  0  0  0  0  0
   -7.9683    1.5964   26.8266 C   0  0  0  0  0  0  0  0  0  0  0  0
   -7.5288    0.3101   27.1202 C   0  0  0  0  0  0  0  0  0  0  0  0
   -8.3245   -0.7895   26.7699 C   0  0  0  0  0  0  0  0  0  0  0  0
   -9.4233   -0.5403   25.9713 C   0  0  0  0  0  0  0  0  0  0  0  0
   -9.2295    1.6147   26.1556 C   0  0  0  0  0  0  0  0  0  0  0  0
   -9.8724    0.6471   25.7285 C   0  0  0  0  0  0  0  0  0  0  0  0
   -8.6588    6.0640   27.7475 C   0  0  0  0  0  0  0  0  0  0  0  0
  1  2  2  3
  1  3  1  0
  3  4  1  0
  2 10  1  0
  4  5  2  0
  5  6  1  0
  6  7  2  0
  7  9  1  0
  9  8  2  0
  8  4  1  0
M  END
$$$$
