No_2554-complexes_sdf/6BKW-FPZ/2024-09-17-14-21-01/
     RDKit          3D

 18 19  0  0  0  0  0  0  0  0999 V2000
   -7.9040    3.9820   27.1177 C   0  0  0  0  0  0  0  0  0  0  0  0
   -9.0711    4.3164   27.0630 C   0  0  0  0  0  0  0  0  0  0  0  0
   -9.5182    5.5541   27.5777 C   0  0  0  0  0  0  0  0  0  0  0  0
   -6.9424    4.7983   27.8424 C   0  0  0  0  0  0  0  0  0  0  0  0
   -7.3526    5.9739   28.3909 C   0  0  0  0  0  0  0  0  0  0  0  0
   -8.6479    6.3742   28.2170 C   0  0  0  0  0  0  0  0  0  0  0  0
  -10.0793    3.4689   26.3368 C   0  0  0  0  0  0  0  0  0  0  0  0
  -10.8066    3.4471   25.6317 C   0  0  0  0  0  0  0  0  0  0  0  0
  -11.4356    3.2048   24.6469 C   0  0  0  0  0  0  0  0  0  0  0  0
  -11.5754    2.8254   23.6487 C   0  0  0  0  0  0  0  0  0  0  0  0
  -12.7540    2.9839   22.7386 C   0  0  0  0  0  0  0  0  0  0  0  0
  -10.5317    2.0270   22.9228 C   0  0  0  0  0  0  0  0  0  0  0  0
   -9.5421    1.4959   23.4717 C   0  0  0  0  0  0  0  0  0  0  0  0
   -8.7074    0.4749   22.7367 C   0  0  0  0  0  0  0  0  0  0  0  0
   -7.6150   -0.1575   23.3621 C   0  0  0  0  0  0  0  0  0  0  0  0
   -7.3680    0.0661   24.7417 C   0  0  0  0  0  0  0  0  0  0  0  0
   -8.1992    0.9815   25.4667 C   0  0  0  0  0  0  0  0  0  0  0  0
   -9.1670    1.6008   24.8694 C   0  0  0  0  0  0  0  0  0  0  0  0
  2  7  1  0
  7  8  3  0
  8  9  1  0
  9 10  2  3
 10 11  1  0
 10 12  1  0
 12 13  1  0
 13 14  2  0
 14 15  1  0
 15 16  2  0
 16 17  1  0
 17 18  2  0
 18 13  1  0
  1  2  2  0
  2  3  1  0
  3  6  2  0
  6  5  1  0
  5  4  2  0
  4  1  1  0
M  END
$$$$
