No_228-complexes_sdf/6BKW-FPZ/2024-09-17-14-21-01/
     RDKit          3D

 26 31  0  0  0  0  0  0  0  0999 V2000
   -7.7129    4.2099   27.0854 C   0  0  0  0  0  0  0  0  0  0  0  0
   -8.2112    3.0637   26.9225 C   0  0  0  0  0  0  0  0  0  0  0  0
   -7.0021    4.5281   28.2396 C   0  0  0  0  0  0  0  0  0  0  0  0
   -9.4237    2.7810   26.2714 C   0  0  0  0  0  0  0  0  0  0  0  0
   -9.9782    1.4391   26.2525 C   0  0  0  0  0  0  0  0  0  0  0  0
   -9.2622    0.4320   26.8729 C   0  0  0  0  0  0  0  0  0  0  0  0
   -8.0745    0.6657   27.5462 C   0  0  0  0  0  0  0  0  0  0  0  0
   -7.4723    1.9739   27.6189 C   0  0  0  0  0  0  0  0  0  0  0  0
   -8.4676    5.3363   26.4870 C   0  0  0  0  0  0  0  0  0  0  0  0
   -8.1927    6.7210   26.8694 C   0  0  0  0  0  0  0  0  0  0  0  0
   -8.9233    7.7639   26.3187 C   0  0  0  0  0  0  0  0  0  0  0  0
  -10.0941    3.7868   25.5449 C   0  0  0  0  0  0  0  0  0  0  0  0
   -9.5947    5.0852   25.6833 C   0  0  0  0  0  0  0  0  0  0  0  0
   -6.9895    6.8341   27.7210 C   0  0  0  0  0  0  0  0  0  0  0  0
   -6.6004    5.8762   28.4358 N   0  0  0  0  0  0  0  0  0  0  0  0
   -7.2821   -0.4397   28.1481 C   0  0  0  0  0  0  0  0  0  0  0  0
   -7.8503   -1.6986   28.4295 C   0  0  0  0  0  0  0  0  0  0  0  0
   -7.1420   -2.6481   29.0150 C   0  0  0  0  0  0  0  0  0  0  0  0
   -5.7909   -2.4107   29.3468 C   0  0  0  0  0  0  0  0  0  0  0  0
   -5.1625   -1.2172   29.0199 C   0  0  0  0  0  0  0  0  0  0  0  0
   -5.9007   -0.2228   28.4506 C   0  0  0  0  0  0  0  0  0  0  0  0
  -11.2003    1.0974   25.6374 C   0  0  0  0  0  0  0  0  0  0  0  0
  -11.5207   -0.1275   25.7279 C   0  0  0  0  0  0  0  0  0  0  0  0
  -10.8505   -1.1512   26.3699 C   0  0  0  0  0  0  0  0  0  0  0  0
   -9.7350   -0.8441   26.9711 C   0  0  0  0  0  0  0  0  0  0  0  0
   -9.1290   -1.8929   27.8282 C   0  0  0  0  0  0  0  0  0  0  0  0
  4  5  1  0
  2  8  1  0
  7  8  1  0
 10 11  1  0
  1  3  2  0
  3 15  1  0
 15 14  2  0
 14 10  1  0
 10  9  2  0
  5  6  2  0
 25 24  2  0
 24 23  1  0
 23 22  2  0
 22  5  1  0
  1  2  1  0
  2  4  2  0
  4 12  1  0
 12 13  2  0
 13  9  1  0
  9  1  1  0
  6  7  1  0
  7 16  2  0
 17 26  2  0
 26 25  1  0
 25  6  1  0
 16 17  1  0
 17 18  1  0
 18 19  2  0
 19 20  1  0
 20 21  2  0
 21 16  1  0
M  END
$$$$
