No_2317-complexes_sdf/6BKW-FPZ/2024-09-17-14-21-01/
     RDKit          3D

 32 36  0  0  0  0  0  0  0  0999 V2000
   -7.9040    3.9820   27.1177 C   0  0  0  0  0  0  0  0  0  0  0  0
   -7.8663    4.8694   27.9238 C   0  0  0  0  0  0  0  0  0  0  0  0
   -7.4698    2.6989   27.4277 C   0  0  0  0  0  0  0  0  0  0  0  0
   -7.9683    1.5964   26.8266 C   0  0  0  0  0  0  0  0  0  0  0  0
   -8.9447    1.7923   25.8533 C   0  0  0  0  0  0  0  0  0  0  0  0
   -9.4405    2.9988   25.5757 C   0  0  0  0  0  0  0  0  0  0  0  0
   -8.9424    4.1117   26.2388 C   0  0  0  0  0  0  0  0  0  0  0  0
   -7.0281    4.9362   28.9632 F   0  0  0  0  0  0  0  0  0  0  0  0
   -8.4481    6.2343   27.7216 C   0  0  0  0  0  0  0  0  0  0  0  0
   -9.4704    6.4669   26.8000 C   0  0  0  0  0  0  0  0  0  0  0  0
   -9.6858    5.3088   26.0054 C   0  0  0  0  0  0  0  0  0  0  0  0
   -7.3465    0.2734   27.0331 C   0  0  0  0  0  0  0  0  0  0  0  0
   -6.0239    0.1567   27.4046 C   0  0  0  0  0  0  0  0  0  0  0  0
   -5.4500   -1.0619   27.7247 C   0  0  0  0  0  0  0  0  0  0  0  0
   -6.2431   -2.1730   27.6148 C   0  0  0  0  0  0  0  0  0  0  0  0
   -7.9860   -0.9437   27.0146 C   0  0  0  0  0  0  0  0  0  0  0  0
   -7.5104   -2.1083   27.2822 C   0  0  0  0  0  0  0  0  0  0  0  0
   -4.0047   -1.0564   28.1511 C   0  0  2  0  0  0  0  0  0  0  0  0
   -3.7403   -0.6412   29.4616 C   0  0  0  0  0  0  0  0  0  0  0  0
   -2.8328   -1.3517   30.2443 C   0  0  0  0  0  0  0  0  0  0  0  0
   -3.6389    0.8112   29.7731 C   0  0  0  0  0  0  0  0  0  0  0  0
   -3.1969   -1.6822   31.3644 C   0  0  0  0  0  0  0  0  0  0  0  0
   -3.5310   -0.4614   32.3093 C   0  0  0  0  0  0  0  0  0  0  0  0
   -3.9913    0.7091   31.5467 C   0  0  0  0  0  0  0  0  0  0  0  0
   -3.1140   -1.3510   27.0900 C   0  0  0  0  0  0  0  0  0  0  0  0
  -10.3949    3.0982   24.4615 C   0  0  0  0  0  0  0  0  0  0  0  0
  -10.1789    2.4658   23.2812 C   0  0  0  0  0  0  0  0  0  0  0  0
  -11.0020    2.6469   22.1708 C   0  0  0  0  0  0  0  0  0  0  0  0
  -11.9287    3.6394   22.1665 C   0  0  0  0  0  0  0  0  0  0  0  0
  -12.0881    4.4142   23.3025 C   0  0  0  0  0  0  0  0  0  0  0  0
  -11.3044    4.2551   24.4078 C   0  0  0  0  0  0  0  0  0  0  0  0
   -3.2850   -1.2240   25.9970 O   0  0  0  0  0  0  0  0  0  0  0  0
  2  8  1  0
  4 12  1  0
 14 18  1  0
 18 19  1  0
 18 25  1  6
  6 26  1  0
 25 32  2  0
  1  2  2  0
  2  9  1  0
  9 10  2  0
 10 11  1  0
 11  7  2  0
  1  3  1  0
  3  4  2  0
  4  5  1  0
  5  6  2  0
  6  7  1  0
  7  1  1  0
 19 20  2  0
 20 22  1  0
 22 23  2  0
 23 24  1  0
 24 21  2  0
 21 19  1  0
 12 13  2  0
 13 14  1  0
 14 15  2  0
 15 17  1  0
 17 16  2  0
 16 12  1  0
 26 27  2  0
 27 28  1  0
 28 29  2  0
 29 30  1  0
 30 31  2  0
 31 26  1  0
M  END
$$$$
