No_2980-complexes_sdf/6BKW-FPZ/2024-09-17-14-21-01/
     RDKit          3D

 20 21  0  0  0  0  0  0  0  0999 V2000
   -7.7129    4.2099   27.0854 C   0  0  0  0  0  0  0  0  0  0  0  0
   -7.7814    5.1722   27.8972 C   0  0  0  0  0  0  0  0  0  0  0  0
   -8.8776    3.8408   26.3416 C   0  0  0  0  0  0  0  0  0  0  0  0
   -8.9136    2.6330   25.5655 C   0  0  0  0  0  0  0  0  0  0  0  0
   -8.8361    6.1389   27.9032 C   0  0  0  0  0  0  0  0  0  0  0  0
   -9.9718    4.7048   26.3433 C   0  0  0  0  0  0  0  0  0  0  0  0
   -9.9205    5.8499   27.1013 C   0  0  0  0  0  0  0  0  0  0  0  0
   -9.6976    1.6828   26.0761 C   0  0  0  0  0  0  0  0  0  0  0  0
   -9.4175    0.4510   25.8122 C   0  0  0  0  0  0  0  0  0  0  0  0
  -10.1983   -0.6814   26.3630 C   0  0  0  0  0  0  0  0  0  0  0  0
  -11.2388   -0.3350   27.2553 C   0  0  0  0  0  0  0  0  0  0  0  0
  -11.4566    0.9721   27.6218 C   0  0  0  0  0  0  0  0  0  0  0  0
  -10.6899    1.9980   27.1187 C   0  0  0  0  0  0  0  0  0  0  0  0
  -12.4955    1.2183   28.7121 C   0  0  0  0  0  0  0  0  0  0  0  0
  -12.5438    2.4908   29.1136 N   0  0  0  0  0  0  0  0  0  0  0  0
  -13.6004    3.3356   28.9322 C   0  0  0  0  0  0  0  0  0  0  0  0
  -13.5180    4.6328   29.3866 C   0  0  0  0  0  0  0  0  0  0  0  0
  -14.3832    3.0089   27.9084 N   0  0  0  0  0  0  0  0  0  0  0  0
  -15.3704    3.8861   27.5411 C   0  0  0  0  0  0  0  0  0  0  0  0
  -16.2166    3.4898   26.4747 C   0  0  0  0  0  0  0  0  0  0  0  0
  3  4  1  0
  4  8  1  0
 12 14  1  0
 14 15  1  0
 15 16  1  0
 16 17  2  0
 16 18  1  0
 18 19  2  3
 19 20  1  0
  8  9  2  0
  9 10  1  0
 10 11  2  0
 11 12  1  0
 12 13  2  0
 13  8  1  0
  1  2  2  0
  2  5  1  0
  5  7  2  0
  7  6  1  0
  6  3  2  0
  3  1  1  0
M  END
$$$$
