No_2035-complexes_sdf/6BKW-FPZ/2024-09-17-14-21-01/
     RDKit          3D

 14 14  0  0  0  0  0  0  0  0999 V2000
   -7.2496    3.8871   27.4508 C   0  0  0  0  0  0  0  0  0  0  0  0
   -7.9379    4.9063   27.8518 C   0  0  0  0  0  0  0  0  0  0  0  0
   -9.3376    4.8647   27.7795 C   0  0  0  0  0  0  0  0  0  0  0  0
   -7.8544    2.6294   27.0414 C   0  0  0  0  0  0  0  0  0  0  0  0
   -9.2665    2.6175   27.0340 C   0  0  0  0  0  0  0  0  0  0  0  0
   -9.9111    1.3868   26.6335 C   0  0  2  0  0  0  0  0  0  0  0  0
   -9.9845    3.7153   27.4660 C   0  0  0  0  0  0  0  0  0  0  0  0
  -10.5442    0.7180   27.5742 C   0  0  0  0  0  0  0  0  0  0  0  0
  -11.0014   -0.5904   27.4556 C   0  0  0  0  0  0  0  0  0  0  0  0
  -11.6695   -1.2443   28.5399 C   0  0  0  0  0  0  0  0  0  0  0  0
   -9.7820    0.9413   25.3360 C   0  0  0  0  0  0  0  0  0  0  0  0
   -9.5414    1.6798   24.3657 C   0  0  0  0  0  0  0  0  0  0  0  0
   -9.4743    1.3845   22.9917 C   0  0  0  0  0  0  0  0  0  0  0  0
   -9.3585    2.2925   21.9471 C   0  0  0  0  0  0  0  0  0  0  0  0
  5  6  1  0
  6  8  1  0
  8  9  2  3
  9 10  1  0
  6 11  1  1
 11 12  1  0
 12 13  2  3
 13 14  1  0
  1  2  2  0
  2  3  1  0
  3  7  2  0
  7  5  1  0
  5  4  2  0
  4  1  1  0
M  END
$$$$
