No_2360-complexes_sdf/6BKW-FPZ/2024-09-17-14-21-01/
     RDKit          3D

 35 39  0  0  0  0  0  0  0  0999 V2000
   -7.9040    3.9820   27.1177 C   0  0  0  0  0  0  0  0  0  0  0  0
   -8.2057    2.8231   26.8733 C   0  0  0  0  0  0  0  0  0  0  0  0
   -7.4766    1.7477   27.4593 C   0  0  0  0  0  0  0  0  0  0  0  0
   -8.7468    5.1251   26.6967 C   0  0  0  0  0  0  0  0  0  0  0  0
   -9.7234    4.8589   25.8202 C   0  0  0  0  0  0  0  0  0  0  0  0
   -9.9711    3.5858   25.4266 C   0  0  0  0  0  0  0  0  0  0  0  0
   -9.2266    2.4957   25.9600 C   0  0  0  0  0  0  0  0  0  0  0  0
   -6.1127    1.9031   27.8472 C   0  0  0  0  0  0  0  0  0  0  0  0
   -5.3493    0.8225   28.3589 C   0  0  0  0  0  0  0  0  0  0  0  0
   -5.8541   -0.4405   28.4024 C   0  0  0  0  0  0  0  0  0  0  0  0
   -8.0177    0.4396   27.6191 C   0  0  0  0  0  0  0  0  0  0  0  0
   -7.2155   -0.5840   28.1032 C   0  0  0  0  0  0  0  0  0  0  0  0
   -8.4062    6.5105   27.1052 C   0  0  0  0  0  0  0  0  0  0  0  0
   -7.9687    6.8299   28.2438 N   0  0  0  0  0  0  0  0  0  0  0  0
   -8.7069    7.5304   26.2715 N   0  0  0  0  0  0  0  0  0  0  0  0
   -3.6807    1.1748   28.7422 Cl  0  0  0  0  0  0  0  0  0  0  0  0
   -7.8375   -1.9128   28.2989 C   0  0  0  0  0  0  0  0  0  0  0  0
   -9.1271   -2.0233   28.5002 C   0  0  0  0  0  0  0  0  0  0  0  0
   -9.8472   -3.2359   28.6499 C   0  0  0  0  0  0  0  0  0  0  0  0
   -9.0704   -4.3449   28.6782 C   0  0  0  0  0  0  0  0  0  0  0  0
   -7.1011   -3.1135   28.4045 C   0  0  0  0  0  0  0  0  0  0  0  0
   -7.7199   -4.2910   28.5683 C   0  0  0  0  0  0  0  0  0  0  0  0
  -11.0049    3.3270   24.4268 C   0  0  0  0  0  0  0  0  0  0  0  0
  -11.0785    3.8376   23.4510 C   0  0  0  0  0  0  0  0  0  0  0  0
  -12.0416    3.6553   22.3347 C   0  0  0  0  0  0  0  0  0  0  0  0
  -12.9054    2.6264   22.5243 C   0  0  0  0  0  0  0  0  0  0  0  0
  -12.0555    2.3277   24.6490 C   0  0  0  0  0  0  0  0  0  0  0  0
  -12.9079    2.0149   23.7116 C   0  0  0  0  0  0  0  0  0  0  0  0
   -6.8887   -5.3021   28.4939 O   0  0  0  0  0  0  0  0  0  0  0  0
   -5.7913   -5.3868   28.1442 C   0  0  0  0  0  0  0  0  0  0  0  0
   -4.7701   -5.3592   29.1079 C   0  0  0  0  0  0  0  0  0  0  0  0
   -3.4795   -5.0482   28.7738 C   0  0  0  0  0  0  0  0  0  0  0  0
   -3.0969   -5.0442   27.4528 C   0  0  0  0  0  0  0  0  0  0  0  0
   -4.0553   -5.0828   26.4510 C   0  0  0  0  0  0  0  0  0  0  0  0
   -5.3894   -5.1804   26.8443 C   0  0  0  0  0  0  0  0  0  0  0  0
  2  3  1  0
  4 13  1  0
 13 14  2  0
 13 15  1  0
  9 16  1  0
 12 17  1  0
  6 23  1  0
 22 29  1  0
 29 30  1  0
 17 18  2  0
 18 19  1  0
 19 20  2  0
 20 22  1  0
 22 21  2  0
 21 17  1  0
  1  2  2  0
  2  7  1  0
  7  6  2  0
  6  5  1  0
  5  4  2  0
  4  1  1  0
 23 24  2  0
 24 25  1  0
 25 26  2  0
 26 28  1  0
 28 27  2  0
 27 23  1  0
 30 31  2  0
 31 32  1  0
 32 33  2  0
 33 34  1  0
 34 35  2  0
 35 30  1  0
  3  8  2  0
  8  9  1  0
  9 10  2  0
 10 12  1  0
 12 11  2  0
 11  3  1  0
M  END
$$$$
