No_2428-complexes_sdf/6BKW-FPZ/2024-09-17-14-21-01/
     RDKit          3D

 16 16  0  0  0  0  0  0  0  0999 V2000
   -7.2496    3.8871   27.4508 C   0  0  0  0  0  0  0  0  0  0  0  0
   -8.5096    4.0291   27.2770 C   0  0  0  0  0  0  0  0  0  0  0  0
   -9.2669    5.1645   27.5845 C   0  0  0  0  0  0  0  0  0  0  0  0
   -8.4566    6.3212   27.8001 C   0  0  0  0  0  0  0  0  0  0  0  0
   -6.5590    2.5934   27.2169 C   0  0  0  0  0  0  0  0  0  0  0  0
   -7.3469    1.4814   27.0290 C   0  0  0  0  0  0  0  0  0  0  0  0
   -8.6628    1.6034   26.8522 C   0  0  0  0  0  0  0  0  0  0  0  0
   -9.3578    2.8220   27.1151 C   0  0  0  0  0  0  0  0  0  0  0  0
   -7.9205    6.8859   26.7662 C   0  0  0  0  0  0  0  0  0  0  0  0
   -6.6715    0.2268   26.8056 C   0  0  1  0  0  0  0  0  0  0  0  0
   -5.7573   -0.2053   27.4880 O   0  0  0  0  0  0  0  0  0  0  0  0
   -7.3872   -0.6744   26.1877 F   0  0  0  0  0  0  0  0  0  0  0  0
   -5.3540   -1.1816   27.9963 C   0  0  0  0  0  0  0  0  0  0  0  0
   -4.2385   -1.4514   28.3018 C   0  0  0  0  0  0  0  0  0  0  0  0
   -3.2036   -0.3127   28.2401 C   0  0  0  0  0  0  0  0  0  0  0  0
   -3.5763    0.7460   27.5706 C   0  0  0  0  0  0  0  0  0  0  0  0
  2  3  1  0
  3  4  2  3
  4  9  1  0
  6 10  1  0
 10 11  1  0
 10 12  1  1
 11 13  1  0
 13 14  2  3
 14 15  1  0
 15 16  1  0
  1  2  2  0
  2  8  1  0
  8  7  2  0
  7  6  1  0
  6  5  2  0
  5  1  1  0
M  END
$$$$
