No_22-complexes_sdf/6BKW-FPZ/2024-09-17-14-21-01/
     RDKit          3D

 29 32  0  0  0  0  0  0  0  0999 V2000
   -7.9040    3.9820   27.1177 C   0  0  0  0  0  0  0  0  0  0  0  0
   -7.8663    4.8694   27.9238 C   0  0  0  0  0  0  0  0  0  0  0  0
   -9.0501    3.8017   26.2617 C   0  0  0  0  0  0  0  0  0  0  0  0
  -10.0189    4.7608   26.3707 C   0  0  0  0  0  0  0  0  0  0  0  0
   -8.6973    5.9722   27.8968 C   0  0  0  0  0  0  0  0  0  0  0  0
   -9.8216    5.8946   27.1241 C   0  0  0  0  0  0  0  0  0  0  0  0
   -9.1437    2.6293   25.4175 C   0  0  0  0  0  0  0  0  0  0  0  0
   -8.6170    1.4258   25.8177 C   0  0  0  0  0  0  0  0  0  0  0  0
   -8.5364    0.3667   24.9514 C   0  0  0  0  0  0  0  0  0  0  0  0
   -9.1729    0.5165   23.6907 C   0  0  0  0  0  0  0  0  0  0  0  0
   -9.7565    1.7165   23.2856 C   0  0  0  0  0  0  0  0  0  0  0  0
   -9.6658    2.7891   24.1337 C   0  0  0  0  0  0  0  0  0  0  0  0
  -10.3155    1.8446   21.9516 C   0  0  0  0  0  0  0  0  0  0  0  0
  -10.3525    3.0328   21.4573 N   0  0  0  0  0  0  0  0  0  0  0  0
  -11.1208    3.4165   20.3971 C   0  0  0  0  0  0  0  0  0  0  0  0
  -10.5988    0.8446   21.3087 O   0  0  0  0  0  0  0  0  0  0  0  0
   -7.9455   -0.8743   25.3532 C   0  0  0  0  0  0  0  0  0  0  0  0
   -6.7032   -1.0250   25.2499 C   0  0  0  0  0  0  0  0  0  0  0  0
   -5.9425   -2.2183   25.7218 C   0  0  0  0  0  0  0  0  0  0  0  0
   -4.5831   -2.1630   25.8553 C   0  0  0  0  0  0  0  0  0  0  0  0
   -3.8334   -1.0292   25.5551 C   0  0  0  0  0  0  0  0  0  0  0  0
   -4.5214    0.1094   25.1707 C   0  0  0  0  0  0  0  0  0  0  0  0
   -5.7742    0.1042   25.0515 C   0  0  0  0  0  0  0  0  0  0  0  0
   -8.5529   -1.2309   26.6804 C   0  0  0  0  0  0  0  0  0  0  0  0
   -8.0465   -0.8381   27.8571 C   0  0  0  0  0  0  0  0  0  0  0  0
   -9.6615   -2.1878   26.6909 C   0  0  0  0  0  0  0  0  0  0  0  0
  -10.3804   -2.3530   27.6657 C   0  0  0  0  0  0  0  0  0  0  0  0
   -9.8203   -1.9374   28.9994 C   0  0  0  0  0  0  0  0  0  0  0  0
   -8.6939   -1.1710   29.0305 C   0  0  0  0  0  0  0  0  0  0  0  0
  3  7  1  0
 11 13  1  0
 13 14  1  0
 14 15  2  0
 13 16  2  0
  9 17  1  0
 17 24  1  0
 17 18  1  0
 18 19  2  0
 19 20  1  0
 20 21  2  0
 21 22  1  0
 22 23  2  0
 23 18  1  0
 24 25  2  0
 25 29  1  0
 29 28  2  0
 28 27  1  0
 27 26  2  0
 26 24  1  0
  1  2  2  0
  2  5  1  0
  5  6  2  0
  6  4  1  0
  4  3  2  0
  3  1  1  0
  7  8  2  0
  8  9  1  0
  9 10  2  0
 10 11  1  0
 11 12  2  0
 12  7  1  0
M  END
$$$$
