No_2846-complexes_sdf/6BKW-FPZ/2024-09-17-14-21-01/
     RDKit          3D

 36 39  0  0  0  0  0  0  0  0999 V2000
   -7.2496    3.8871   27.4508 C   0  0  0  0  0  0  0  0  0  0  0  0
   -7.6161    2.7143   27.1523 C   0  0  0  0  0  0  0  0  0  0  0  0
   -8.6212    2.2239   26.4074 C   0  0  0  0  0  0  0  0  0  0  0  0
   -8.2539    4.9237   27.1712 C   0  0  0  0  0  0  0  0  0  0  0  0
   -9.3729    4.5807   26.4433 C   0  0  0  0  0  0  0  0  0  0  0  0
   -9.5831    3.2969   26.1026 C   0  0  0  0  0  0  0  0  0  0  0  0
   -7.9454    6.2274   27.5101 N   0  0  0  0  0  0  0  0  0  0  0  0
   -8.8658    0.8930   26.0612 C   0  0  2  0  0  0  0  0  0  0  0  0
   -9.2906    0.5749   24.9579 C   0  0  0  0  0  0  0  0  0  0  0  0
   -9.6251    1.6294   23.9868 C   0  0  0  0  0  0  0  0  0  0  0  0
  -10.1561    1.3864   22.7116 C   0  0  0  0  0  0  0  0  0  0  0  0
  -10.0762   -0.0007   22.2899 C   0  0  0  0  0  0  0  0  0  0  0  0
   -9.6602   -0.9959   23.1403 C   0  0  0  0  0  0  0  0  0  0  0  0
   -9.2652   -0.7120   24.3495 C   0  0  0  0  0  0  0  0  0  0  0  0
   -8.2865    7.2903   26.7292 C   0  0  0  0  0  0  0  0  0  0  0  0
   -9.0986    0.3082   27.0796 F   0  0  0  0  0  0  0  0  0  0  0  0
  -10.5286    2.4262   21.7992 C   0  0  0  0  0  0  0  0  0  0  0  0
   -9.9045    3.5686   21.8091 C   0  0  0  0  0  0  0  0  0  0  0  0
  -10.4084    4.6904   20.9838 C   0  0  0  0  0  0  0  0  0  0  0  0
  -11.3666    4.4555   20.0587 C   0  0  0  0  0  0  0  0  0  0  0  0
  -11.5263    2.5061   20.7159 C   0  0  0  0  0  0  0  0  0  0  0  0
  -11.9052    3.3074   19.9597 C   0  0  0  0  0  0  0  0  0  0  0  0
   -6.6607    1.6980   27.5675 O   0  0  0  0  0  0  0  0  0  0  0  0
   -5.3468    1.9541   27.7125 C   0  0  0  0  0  0  0  0  0  0  0  0
   -4.6379    0.6648   28.1061 C   0  0  0  0  0  0  0  0  0  0  0  0
   -5.1859   -0.2227   28.4532 C   0  0  0  0  0  0  0  0  0  0  0  0
   -6.0283   -1.0041   28.1704 C   0  0  0  0  0  0  0  0  0  0  0  0
   -6.6432   -2.1132   28.7978 C   0  0  0  0  0  0  0  0  0  0  0  0
   -6.1275   -2.3730   30.0506 C   0  0  0  0  0  0  0  0  0  0  0  0
   -5.1798   -1.6287   30.6536 C   0  0  0  0  0  0  0  0  0  0  0  0
   -4.6559   -0.5792   29.9802 C   0  0  0  0  0  0  0  0  0  0  0  0
   -3.3414    0.7231   27.6522 O   0  0  0  0  0  0  0  0  0  0  0  0
   -4.6822   -1.8785   32.0231 C   0  0  0  0  0  0  0  0  0  0  0  0
   -5.2167   -1.2362   32.7715 F   0  0  0  0  0  0  0  0  0  0  0  0
   -3.3639   -1.5480   32.0966 F   0  0  0  0  0  0  0  0  0  0  0  0
   -4.7800   -3.1625   32.2937 F   0  0  0  0  0  0  0  0  0  0  0  0
  4  7  1  0
  3  8  1  0
  7 15  1  0
  8 16  1  1
 11 17  1  0
  2 23  1  0
 23 24  1  0
 24 25  1  0
 25 26  1  0
 25 32  2  0
 30 33  1  0
 33 34  1  0
 33 35  1  0
 33 36  1  0
  8  9  1  0
 26 27  2  0
 27 28  1  0
 28 29  2  0
 29 30  1  0
 30 31  2  0
 31 26  1  0
 17 18  2  0
 18 19  1  0
 19 20  2  0
 20 22  1  0
 22 21  2  0
 21 17  1  0
  1  2  2  0
  2  3  1  0
  3  6  2  0
  6  5  1  0
  5  4  2  0
  4  1  1  0
  9 10  2  0
 10 11  1  0
 11 12  2  0
 12 13  1  0
 13 14  2  0
 14  9  1  0
M  END
$$$$
