No_2347-complexes_sdf/6BKW-FPZ/2024-09-17-14-21-01/
     RDKit          3D

 40 43  0  0  0  0  0  0  0  0999 V2000
   -7.9040    3.9820   27.1177 C   0  0  0  0  0  0  0  0  0  0  0  0
   -7.8663    4.8694   27.9238 C   0  0  0  0  0  0  0  0  0  0  0  0
   -9.0806    3.1428   27.1220 C   0  0  0  0  0  0  0  0  0  0  0  0
  -10.0970    3.3939   27.9555 C   0  0  0  0  0  0  0  0  0  0  0  0
   -8.8173    5.5192   28.2754 C   0  0  0  0  0  0  0  0  0  0  0  0
  -10.0759    4.7577   28.5485 C   0  0  0  0  0  0  0  0  0  0  0  0
   -9.0200    1.7587   26.5035 C   0  0  0  0  0  0  0  0  0  0  0  0
  -10.0433    1.2690   26.0109 C   0  0  0  0  0  0  0  0  0  0  0  0
   -9.9868   -0.0355   25.3386 C   0  0  0  0  0  0  0  0  0  0  0  0
   -8.7334   -0.6259   25.2281 C   0  0  0  0  0  0  0  0  0  0  0  0
   -7.7443    0.9405   26.4628 C   0  0  0  0  0  0  0  0  0  0  0  0
   -7.6469   -0.1342   25.9160 C   0  0  0  0  0  0  0  0  0  0  0  0
   -6.3614   -0.8647   25.8687 C   0  0  1  0  0  0  0  0  0  0  0  0
   -6.2410   -1.8909   26.5758 O   0  0  0  0  0  0  0  0  0  0  0  0
   -5.2582   -2.6487   26.5742 C   0  0  1  0  0  0  0  0  0  0  0  0
   -6.0334   -1.1550   24.4987 O   0  0  0  0  0  0  0  0  0  0  0  0
   -4.0765   -2.0296   26.7596 C   0  0  0  0  0  0  0  0  0  0  0  0
   -4.0007   -0.6574   26.1385 C   0  0  0  0  0  0  0  0  0  0  0  0
   -5.0906   -0.1216   25.5624 O   0  0  0  0  0  0  0  0  0  0  0  0
   -5.9429   -1.0894   23.3359 C   0  0  0  0  0  0  0  0  0  0  0  0
   -3.8110   -1.7394   28.1361 O   0  0  0  0  0  0  0  0  0  0  0  0
   -5.4442   -3.7648   27.5330 C   0  0  0  0  0  0  0  0  0  0  0  0
   -5.4500   -3.2980   28.5547 F   0  0  0  0  0  0  0  0  0  0  0  0
   -4.3719   -4.6832   27.4627 O   0  0  0  0  0  0  0  0  0  0  0  0
   -2.6686   -1.1748   28.6010 C   0  0  0  0  0  0  0  0  0  0  0  0
   -1.7359   -1.0069   28.1654 C   0  0  0  0  0  0  0  0  0  0  0  0
   -2.9893   -0.5547   30.0563 C   0  0  0  0  0  0  0  0  0  0  0  0
   -3.5389   -1.0039   31.0163 C   0  0  0  0  0  0  0  0  0  0  0  0
   -3.8444   -0.3261   32.1969 C   0  0  0  0  0  0  0  0  0  0  0  0
   -4.5919   -0.8506   33.2411 C   0  0  0  0  0  0  0  0  0  0  0  0
   -5.3353   -2.0382   33.0259 C   0  0  0  0  0  0  0  0  0  0  0  0
   -5.0867   -2.7165   31.8138 C   0  0  0  0  0  0  0  0  0  0  0  0
   -4.2832   -2.2114   30.8294 C   0  0  0  0  0  0  0  0  0  0  0  0
   -6.2413   -2.5523   34.0261 C   0  0  0  0  0  0  0  0  0  0  0  0
   -7.4406   -2.7057   33.7052 O   0  0  0  0  0  0  0  0  0  0  0  0
   -5.8525   -2.6995   35.2362 O   0  0  0  0  0  0  0  0  0  0  0  0
   -3.9221   -4.9906   28.3730 F   0  0  0  0  0  0  0  0  0  0  0  0
   -6.5221   -4.5200   27.1837 F   0  0  0  0  0  0  0  0  0  0  0  0
  -11.1131   -0.5787   24.7042 C   0  0  0  0  0  0  0  0  0  0  0  0
  -11.7829   -0.4446   23.8383 C   0  0  0  0  0  0  0  0  0  0  0  0
  3  7  1  0
 12 13  1  0
 13 14  1  0
 14 15  1  0
 13 16  1  6
 15 17  1  0
 17 18  2  0
 13 19  1  0
 18 19  1  0
 16 20  1  0
 17 21  1  0
 15 22  1  1
 22 23  1  0
 22 24  1  0
 21 25  1  0
 25 26  2  0
 25 27  1  0
 27 28  1  0
 31 34  1  0
 34 35  2  0
 34 36  1  0
 24 37  1  0
 22 38  1  0
  9 39  1  0
 39 40  2  0
  7  8  2  0
  8  9  1  0
  9 10  2  0
 10 12  1  0
 12 11  2  0
 11  7  1  0
 28 29  2  0
 29 30  1  0
 30 31  2  0
 31 32  1  0
 32 33  2  0
 33 28  1  0
  1  2  2  0
  2  5  1  0
  5  6  2  0
  6  4  1  0
  4  3  2  0
  3  1  1  0
M  END
$$$$
