No_28-complexes_sdf/6BKW-FPZ/2024-09-17-14-21-01/
     RDKit          3D

 34 40  0  0  0  0  0  0  0  0999 V2000
   -7.9040    3.9820   27.1177 C   0  0  0  0  0  0  0  0  0  0  0  0
   -7.8663    4.8694   27.9238 C   0  0  0  0  0  0  0  0  0  0  0  0
   -7.4698    2.6989   27.4277 C   0  0  0  0  0  0  0  0  0  0  0  0
   -7.9683    1.5964   26.8266 C   0  0  0  0  0  0  0  0  0  0  0  0
   -8.9447    1.7923   25.8533 C   0  0  0  0  0  0  0  0  0  0  0  0
   -9.4405    2.9988   25.5757 C   0  0  0  0  0  0  0  0  0  0  0  0
   -8.9424    4.1117   26.2388 C   0  0  0  0  0  0  0  0  0  0  0  0
   -8.3104    6.1970   27.6444 N   0  0  0  0  0  0  0  0  0  0  0  0
   -9.2017    6.5264   26.7040 C   0  0  0  0  0  0  0  0  0  0  0  0
   -9.5492    5.4018   25.9329 C   0  0  0  0  0  0  0  0  0  0  0  0
   -7.5258    0.1946   27.0175 C   0  0  0  0  0  0  0  0  0  0  0  0
   -6.2356    0.0012   27.5586 C   0  0  0  0  0  0  0  0  0  0  0  0
   -5.7743   -1.2784   27.8620 C   0  0  0  0  0  0  0  0  0  0  0  0
   -6.6321   -2.3172   27.6427 C   0  0  0  0  0  0  0  0  0  0  0  0
   -8.3156   -0.8866   26.7252 C   0  0  0  0  0  0  0  0  0  0  0  0
   -9.6421   -0.6617   26.2437 C   0  0  1  0  0  0  0  0  0  0  0  0
   -7.8763   -2.1334   27.0981 C   0  0  0  0  0  0  0  0  0  0  0  0
   -9.8637    0.6374   25.4734 C   0  0  2  0  0  0  0  0  0  0  0  0
   -9.3309    0.2008   23.9989 C   0  0  0  0  0  0  0  0  0  0  0  0
  -11.2960    0.9670   25.3086 C   0  0  2  0  0  0  0  0  0  0  0  0
   -9.8877    0.6597   22.9963 C   0  0  2  0  0  0  0  0  0  0  0  0
  -11.8456    1.3563   24.1514 C   0  0  0  0  0  0  0  0  0  0  0  0
  -11.1768    1.0387   22.9230 C   0  0  0  0  0  0  0  0  0  0  0  0
  -10.2456   -1.8677   25.5983 C   0  0  0  0  0  0  0  0  0  0  0  0
  -10.5651   -0.3507   27.5849 C   0  0  2  0  0  0  0  0  0  0  0  0
  -11.3916   -2.3679   25.9298 C   0  0  0  0  0  0  0  0  0  0  0  0
   -9.4430   -2.5052   24.6399 C   0  0  0  0  0  0  0  0  0  0  0  0
   -9.7612   -3.3715   24.0449 C   0  0  0  0  0  0  0  0  0  0  0  0
  -11.8637   -3.5071   25.2737 C   0  0  0  0  0  0  0  0  0  0  0  0
  -11.0317   -4.0267   24.3092 C   0  0  0  0  0  0  0  0  0  0  0  0
   -9.1837    0.5527   21.6469 C   0  0  0  0  0  0  0  0  0  0  0  0
  -11.0852   -0.9676   28.4691 C   0  0  0  0  0  0  0  0  0  0  0  0
  -10.9458    1.1535   27.7410 C   0  0  0  0  0  0  0  0  0  0  0  0
  -11.6169    1.7784   26.7094 C   0  0  0  0  0  0  0  0  0  0  0  0
  4 11  1  0
 15 16  1  0
  5 18  1  0
 16 18  1  0
 18 19  1  6
 18 20  1  0
 19 21  1  0
 21 23  1  0
 22 23  1  0
 16 24  1  6
 16 25  1  0
 21 31  1  6
 25 33  1  0
 20 34  1  1
 25 32  1  6
 34 33  1  0
 22 20  1  0
  1  2  2  0
  2  8  1  0
  8  9  2  0
  9 10  1  0
 10  7  2  0
  1  3  1  0
  3  4  2  0
  4  5  1  0
  5  6  2  0
  6  7  1  0
  7  1  1  0
 11 12  2  0
 12 13  1  0
 13 14  2  0
 14 17  1  0
 17 15  2  0
 15 11  1  0
 24 26  2  0
 26 29  1  0
 29 30  2  0
 30 28  1  0
 28 27  2  0
 27 24  1  0
M  END
$$$$
