No_2722-complexes_sdf/6BKW-FPZ/2024-09-17-14-21-01/
     RDKit          3D

 13 14  0  0  0  0  0  0  0  0999 V2000
   -7.9040    3.9820   27.1177 C   0  0  0  0  0  0  0  0  0  0  0  0
   -7.8663    4.8694   27.9238 C   0  0  0  0  0  0  0  0  0  0  0  0
   -9.0491    3.8523   26.2542 C   0  0  0  0  0  0  0  0  0  0  0  0
   -8.7661    5.9491   27.9690 C   0  0  0  0  0  0  0  0  0  0  0  0
   -9.1798    2.6731   25.4786 C   0  0  0  0  0  0  0  0  0  0  0  0
   -9.8964    5.8854   27.1460 C   0  0  0  0  0  0  0  0  0  0  0  0
   -9.9958    4.8034   26.3470 C   0  0  0  0  0  0  0  0  0  0  0  0
  -10.0962    1.8493   25.8120 C   0  0  0  0  0  0  0  0  0  0  0  0
  -10.1237    0.6346   25.1697 C   0  0  0  0  0  0  0  0  0  0  0  0
   -9.4395    0.4574   24.1590 C   0  0  0  0  0  0  0  0  0  0  0  0
   -8.6015    1.3947   23.5489 C   0  0  0  0  0  0  0  0  0  0  0  0
   -8.4086    2.5115   24.3015 C   0  0  0  0  0  0  0  0  0  0  0  0
   -6.7318    5.1511   28.7330 O   0  0  0  0  0  0  0  0  0  0  0  0
  3  5  1  0
  2 13  1  0
  5  8  2  0
  8  9  1  0
  9 10  2  0
 10 11  1  0
 11 12  2  0
 12  5  1  0
  1  2  2  0
  2  4  1  0
  4  6  2  0
  6  7  1  0
  7  3  2  0
  3  1  1  0
M  END
$$$$
