No_25-complexes_sdf/6BKW-FPZ/2024-09-17-14-21-01/
     RDKit          3D

 26 29  0  0  0  0  0  0  0  0999 V2000
   -7.9040    3.9820   27.1177 C   0  0  0  0  0  0  0  0  0  0  0  0
   -9.0711    4.3164   27.0630 C   0  0  0  0  0  0  0  0  0  0  0  0
   -9.9692    3.7224   26.1073 C   0  0  0  0  0  0  0  0  0  0  0  0
   -6.9787    4.6761   28.1003 C   0  0  0  0  0  0  0  0  0  0  0  0
   -9.4538    2.6801   25.3673 C   0  0  0  0  0  0  0  0  0  0  0  0
   -8.1927    2.1957   25.6621 C   0  0  0  0  0  0  0  0  0  0  0  0
   -7.4333    2.8255   26.6299 C   0  0  0  0  0  0  0  0  0  0  0  0
  -10.3181    2.0008   24.3846 C   0  0  0  0  0  0  0  0  0  0  0  0
  -10.7358    2.6411   23.3159 C   0  0  0  0  0  0  0  0  0  0  0  0
  -10.9225    3.9476   23.2665 C   0  0  0  0  0  0  0  0  0  0  0  0
  -10.6205    4.7117   24.4291 C   0  0  0  0  0  0  0  0  0  0  0  0
  -10.2299    4.8489   25.5429 C   0  0  0  0  0  0  0  0  0  0  0  0
   -7.0019    5.6923   28.4801 N   0  0  0  0  0  0  0  0  0  0  0  0
   -5.6913    4.0262   28.1875 N   0  0  0  0  0  0  0  0  0  0  0  0
  -11.2275    1.8890   22.1458 C   0  0  0  0  0  0  0  0  0  0  0  0
  -10.6606    0.7464   21.8715 C   0  0  0  0  0  0  0  0  0  0  0  0
  -10.8793   -0.2481   21.8356 C   0  0  0  0  0  0  0  0  0  0  0  0
  -10.4429   -1.3560   21.7171 C   0  0  0  0  0  0  0  0  0  0  0  0
  -11.0569   -2.6797   21.7224 C   0  0  0  0  0  0  0  0  0  0  0  0
  -12.1109   -2.6628   21.8566 C   0  0  0  0  0  0  0  0  0  0  0  0
  -12.9861   -1.6102   22.0233 C   0  0  0  0  0  0  0  0  0  0  0  0
  -12.4353   -0.4103   22.0460 C   0  0  0  0  0  0  0  0  0  0  0  0
  -12.6493    1.6380   22.1503 C   0  0  0  0  0  0  0  0  0  0  0  0
  -13.2330    0.4861   22.2098 C   0  0  0  0  0  0  0  0  0  0  0  0
  -14.6660    0.4372   22.3194 C   0  0  0  0  0  0  0  0  0  0  0  0
  -14.9441   -0.6888   22.3689 F   0  0  0  0  0  0  0  0  0  0  0  0
  1  4  1  0
  5  8  1  0
  8  9  1  0
  9 10  2  0
 10 11  1  0
  3 12  1  0
 11 12  2  0
  4 13  2  0
  4 14  1  0
  9 15  1  0
 24 25  1  0
 25 26  1  0
 17 18  2  0
 18 19  1  0
 19 20  2  0
 20 21  1  0
 21 22  2  0
 15 16  2  0
 16 17  1  0
 17 22  1  0
 22 24  1  0
 24 23  2  0
 23 15  1  0
  1  2  2  0
  2  3  1  0
  3  5  2  0
  5  6  1  0
  6  7  2  0
  7  1  1  0
M  END
$$$$
