No_2148-complexes_sdf/6BKW-FPZ/2024-09-17-14-21-01/
     RDKit          3D

 23 25  0  0  0  0  0  0  0  0999 V2000
   -7.9040    3.9820   27.1177 C   0  0  0  0  0  0  0  0  0  0  0  0
   -8.2057    2.8231   26.8733 C   0  0  0  0  0  0  0  0  0  0  0  0
   -9.2962    2.4021   26.1155 C   0  0  0  0  0  0  0  0  0  0  0  0
   -8.7358    5.0662   26.5917 C   0  0  0  0  0  0  0  0  0  0  0  0
   -9.7618    4.7023   25.7546 C   0  0  0  0  0  0  0  0  0  0  0  0
  -10.0066    3.4105   25.4922 C   0  0  0  0  0  0  0  0  0  0  0  0
   -8.4377    6.3256   26.8638 F   0  0  0  0  0  0  0  0  0  0  0  0
   -9.5452    0.9748   25.8255 C   0  0  0  0  0  0  0  0  0  0  0  0
   -8.9113    0.1882   25.7426 C   0  0  0  0  0  0  0  0  0  0  0  0
   -8.9216   -1.1085   25.6363 C   0  0  0  0  0  0  0  0  0  0  0  0
  -10.2678   -1.5871   25.4741 C   0  0  0  0  0  0  0  0  0  0  0  0
  -10.9633    0.5945   25.7783 C   0  0  0  0  0  0  0  0  0  0  0  0
  -11.2424   -0.6886   25.6204 C   0  0  0  0  0  0  0  0  0  0  0  0
   -6.8924    4.4212   27.9264 F   0  0  0  0  0  0  0  0  0  0  0  0
  -10.5501   -3.0595   25.3056 C   0  0  0  0  0  0  0  0  0  0  0  0
  -11.5334   -3.5028   25.1558 N   0  0  0  0  0  0  0  0  0  0  0  0
   -9.4910   -3.8469   25.3089 O   0  0  0  0  0  0  0  0  0  0  0  0
  -11.9373   -4.8928   24.9494 C   0  0  0  0  0  0  0  0  0  0  0  0
  -13.0500   -5.2096   24.6382 C   0  0  0  0  0  0  0  0  0  0  0  0
  -13.3877   -6.5821   24.4793 C   0  0  0  0  0  0  0  0  0  0  0  0
  -12.3905   -7.5602   24.6373 C   0  0  0  0  0  0  0  0  0  0  0  0
  -11.2036   -7.1148   24.9147 C   0  0  0  0  0  0  0  0  0  0  0  0
  -10.8391   -5.8052   25.1462 C   0  0  0  0  0  0  0  0  0  0  0  0
  4  7  1  0
  3  8  1  0
  1 14  1  0
 11 15  1  0
 15 16  1  0
 15 17  2  0
 16 18  1  0
 18 19  2  0
 19 20  1  0
 20 21  2  0
 21 22  1  0
 22 23  2  0
 23 18  1  0
  1  2  2  0
  2  3  1  0
  3  6  2  0
  6  5  1  0
  5  4  2  0
  4  1  1  0
  8  9  2  0
  9 10  1  0
 10 11  2  0
 11 13  1  0
 13 12  2  0
 12  8  1  0
M  END
$$$$
