No_2510-complexes_sdf/6BKW-FPZ/2024-09-17-14-21-01/
     RDKit          3D

 18 19  0  0  0  0  0  0  0  0999 V2000
   -7.7129    4.2099   27.0854 C   0  0  0  0  0  0  0  0  0  0  0  0
   -8.9133    4.4736   27.0998 C   0  0  2  0  0  0  0  0  0  0  0  0
   -9.7134    3.9633   26.0300 C   0  0  0  0  0  0  0  0  0  0  0  0
   -6.8655    4.8824   28.1822 C   0  0  0  0  0  0  0  0  0  0  0  0
  -10.8856    4.5824   25.6430 C   0  0  0  0  0  0  0  0  0  0  0  0
   -7.6664    5.7849   28.7962 N   0  0  0  0  0  0  0  0  0  0  0  0
   -8.8934    5.5511   27.9459 C   0  0  0  0  0  0  0  0  0  0  0  0
  -11.7566    4.0567   24.6254 C   0  0  0  0  0  0  0  0  0  0  0  0
  -11.3129    2.8894   23.9740 C   0  0  0  0  0  0  0  0  0  0  0  0
  -10.1595    2.2702   24.3585 C   0  0  0  0  0  0  0  0  0  0  0  0
   -9.3211    2.7782   25.3932 C   0  0  0  0  0  0  0  0  0  0  0  0
  -12.1753    2.3386   22.9344 C   0  0  0  0  0  0  0  0  0  0  0  0
  -13.1920    1.7687   22.9443 N   0  0  0  0  0  0  0  0  0  0  0  0
  -13.6793    1.2945   24.0036 C   0  0  0  0  0  0  0  0  0  0  0  0
  -15.0458    0.6859   23.9429 C   0  0  0  0  0  0  0  0  0  0  0  0
  -14.0454    1.5306   21.7164 C   0  0  0  0  0  0  0  0  0  0  0  0
  -11.4777    2.6712   21.5426 C   0  0  0  0  0  0  0  0  0  0  0  0
  -15.6669    0.1227   24.7442 C   0  0  0  0  0  0  0  0  0  0  0  0
  1  2  1  0
  1  4  1  0
  4  6  2  0
  2  7  1  0
  6  7  1  0
  9 12  1  0
 12 13  1  0
 13 14  1  0
 14 15  2  3
 13 16  1  0
 12 17  1  0
 15 18  1  0
  2  3  1  6
  3  5  2  0
  5  8  1  0
  8  9  2  0
  9 10  1  0
 10 11  2  0
 11  3  1  0
M  END
$$$$
