No_2187-complexes_sdf/6BKW-FPZ/2024-09-17-14-21-01/
     RDKit          3D

 33 36  0  0  0  0  0  0  0  0999 V2000
   -7.7129    4.2099   27.0854 C   0  0  0  0  0  0  0  0  0  0  0  0
   -8.2112    3.0637   26.9225 C   0  0  0  0  0  0  0  0  0  0  0  0
   -7.5138    1.9223   27.4249 C   0  0  0  0  0  0  0  0  0  0  0  0
   -8.5309    5.4147   26.8151 C   0  0  0  0  0  0  0  0  0  0  0  0
   -9.6817    5.2393   26.1100 C   0  0  0  0  0  0  0  0  0  0  0  0
  -10.1032    3.9957   25.8534 C   0  0  0  0  0  0  0  0  0  0  0  0
   -9.4034    2.8430   26.2573 C   0  0  0  0  0  0  0  0  0  0  0  0
   -6.8643    1.0176   26.6720 C   0  0  0  0  0  0  0  0  0  0  0  0
   -6.1576   -0.0541   27.2672 C   0  0  0  0  0  0  0  0  0  0  0  0
   -5.4225    0.1652   28.3281 C   0  0  0  0  0  0  0  0  0  0  0  0
   -4.7290   -0.9344   28.9772 C   0  0  0  0  0  0  0  0  0  0  0  0
   -4.6378   -2.0852   28.2986 C   0  0  0  0  0  0  0  0  0  0  0  0
   -5.8729   -1.3680   26.8081 C   0  0  0  0  0  0  0  0  0  0  0  0
   -5.2211   -2.3254   27.2380 C   0  0  0  0  0  0  0  0  0  0  0  0
   -7.8911    6.9845   27.0933 Cl  0  0  0  0  0  0  0  0  0  0  0  0
   -3.9536   -0.5958   30.2866 C   0  0  0  0  0  0  0  0  0  0  0  0
   -4.2522    0.4366   31.0124 C   0  0  0  0  0  0  0  0  0  0  0  0
   -2.8261   -1.4437   30.5579 C   0  0  0  0  0  0  0  0  0  0  0  0
   -3.5808    0.5750   32.2042 N   0  0  0  0  0  0  0  0  0  0  0  0
   -2.1291   -1.2635   31.7716 C   0  0  0  0  0  0  0  0  0  0  0  0
   -2.5537   -0.1676   32.5834 C   0  0  0  0  0  0  0  0  0  0  0  0
   -1.8877   -0.0795   33.7870 N   0  0  0  0  0  0  0  0  0  0  0  0
  -11.3465    3.8521   25.0487 C   0  0  0  0  0  0  0  0  0  0  0  0
  -12.5052    3.6364   25.6637 C   0  0  0  0  0  0  0  0  0  0  0  0
  -12.6488    3.6012   27.0267 C   0  0  0  0  0  0  0  0  0  0  0  0
  -11.8946    3.1977   27.8333 C   0  0  0  0  0  0  0  0  0  0  0  0
  -12.2434    3.1114   29.3578 C   0  0  0  0  0  0  0  0  0  0  0  0
  -13.4304    3.6593   29.7624 C   0  0  0  0  0  0  0  0  0  0  0  0
  -14.0117    4.1233   27.5838 C   0  0  0  0  0  0  0  0  0  0  0  0
  -14.2935    4.1702   28.8785 C   0  0  0  0  0  0  0  0  0  0  0  0
  -11.2144    3.9402   23.6476 C   0  0  0  0  0  0  0  0  0  0  0  0
  -10.2226    4.4526   23.0668 C   0  0  0  0  0  0  0  0  0  0  0  0
  -10.1416    4.5072   21.6124 C   0  0  0  0  0  0  0  0  0  0  0  0
  2  3  1  0
  3  8  2  3
  8  9  1  0
  4 15  1  0
 11 16  1  0
 21 22  1  0
  6 23  1  0
 23 24  1  0
 24 25  1  0
 23 31  1  0
 31 32  2  3
 32 33  1  0
 16 17  2  0
 17 19  1  0
 19 21  2  0
 21 20  1  0
 20 18  2  0
 18 16  1  0
  1  2  2  0
  2  7  1  0
  7  6  2  0
  6  5  1  0
  5  4  2  0
  4  1  1  0
  9 10  2  0
 10 11  1  0
 11 12  2  0
 12 14  1  0
 14 13  2  0
 13  9  1  0
 25 26  2  0
 26 27  1  0
 27 28  2  0
 28 30  1  0
 30 29  2  0
 29 25  1  0
M  END
$$$$
