No_2043-complexes_sdf/6BKW-FPZ/2024-09-17-14-21-01/
     RDKit          3D

 12 13  0  0  0  0  0  0  0  0999 V2000
   -7.9040    3.9820   27.1177 C   0  0  0  0  0  0  0  0  0  0  0  0
   -7.8663    4.8694   27.9238 C   0  0  0  0  0  0  0  0  0  0  0  0
   -7.4547    2.7080   27.4594 C   0  0  0  0  0  0  0  0  0  0  0  0
   -8.7044    6.0412   27.8492 C   0  0  0  0  0  0  0  0  0  0  0  0
   -7.9501    1.5743   26.8848 C   0  0  0  0  0  0  0  0  0  0  0  0
   -8.9333    1.6530   26.4553 C   0  0  0  0  0  0  0  0  0  0  0  0
   -9.6497    2.7916   25.9515 C   0  0  0  0  0  0  0  0  0  0  0  0
   -9.1741    4.0051   26.5073 C   0  0  0  0  0  0  0  0  0  0  0  0
   -9.7907    5.2244   26.4827 C   0  0  0  0  0  0  0  0  0  0  0  0
  -10.7028    5.2527   27.3672 C   0  0  0  0  0  0  0  0  0  0  0  0
   -9.7011    6.4082   27.2924 C   0  0  0  0  0  0  0  0  0  0  0  0
  -11.7243    4.8438   27.8138 C   0  0  0  0  0  0  0  0  0  0  0  0
  1  3  1  0
  3  5  1  0
  5  6  1  0
  6  7  1  0
  7  8  1  0
  9 10  1  0
 10 12  2  0
  1  2  2  0
  2  4  1  0
  4 11  2  0
 11  9  1  0
  9  8  2  0
  8  1  1  0
M  END
$$$$
