No_2487-complexes_sdf/6BKW-FPZ/2024-09-17-14-21-01/
     RDKit          3D

 23 25  0  0  0  0  0  0  0  0999 V2000
   -7.7129    4.2099   27.0854 C   0  0  0  0  0  0  0  0  0  0  0  0
   -8.2112    3.0637   26.9225 C   0  0  0  0  0  0  0  0  0  0  0  0
   -9.5629    2.7997   27.0678 C   0  0  0  0  0  0  0  0  0  0  0  0
   -8.5911    5.3704   27.2036 C   0  0  0  0  0  0  0  0  0  0  0  0
   -9.9544    5.1489   27.1401 C   0  0  0  0  0  0  0  0  0  0  0  0
  -10.4577    3.9280   27.0818 C   0  0  0  0  0  0  0  0  0  0  0  0
   -8.0043    6.7223   27.2944 C   0  0  0  0  0  0  0  0  0  0  0  0
  -10.0744    1.3982   26.9547 C   0  0  0  0  0  0  0  0  0  0  0  0
  -10.1377    0.7163   25.8199 C   0  0  0  0  0  0  0  0  0  0  0  0
  -10.5334   -0.6026   25.7687 C   0  0  0  0  0  0  0  0  0  0  0  0
  -10.9394   -1.2413   26.9842 C   0  0  0  0  0  0  0  0  0  0  0  0
  -10.9627   -0.5607   28.2034 C   0  0  0  0  0  0  0  0  0  0  0  0
  -10.5208    0.7936   28.2527 C   0  0  0  0  0  0  0  0  0  0  0  0
   -7.9505    7.8722   26.7715 N   0  0  0  0  0  0  0  0  0  0  0  0
   -7.3169    2.0262   26.9015 F   0  0  0  0  0  0  0  0  0  0  0  0
   -6.9733    6.6656   28.3316 O   0  0  0  0  0  0  0  0  0  0  0  0
  -11.4050   -2.4858   26.9162 F   0  0  0  0  0  0  0  0  0  0  0  0
  -11.9176    3.7752   27.1458 C   0  0  0  0  0  0  0  0  0  0  0  0
  -12.6779    4.0582   28.2798 C   0  0  0  0  0  0  0  0  0  0  0  0
  -14.0106    3.9291   28.3852 C   0  0  0  0  0  0  0  0  0  0  0  0
  -12.6063    3.3342   26.0412 C   0  0  0  0  0  0  0  0  0  0  0  0
  -13.9827    3.1847   26.0464 C   0  0  0  0  0  0  0  0  0  0  0  0
  -14.6871    3.5031   27.2380 C   0  0  0  0  0  0  0  0  0  0  0  0
  4  7  1  0
  3  8  1  0
  7 14  2  0
  2 15  1  0
  7 16  1  0
 11 17  1  0
  6 18  1  0
  1  2  2  0
  2  3  1  0
  3  6  2  0
  6  5  1  0
  5  4  2  0
  4  1  1  0
  8  9  2  0
  9 10  1  0
 10 11  2  0
 11 12  1  0
 12 13  2  0
 13  8  1  0
 18 19  2  0
 19 20  1  0
 20 23  2  0
 23 22  1  0
 22 21  2  0
 21 18  1  0
M  END
$$$$
