No_2000-complexes_sdf/6BKW-FPZ/2024-09-17-14-21-01/
     RDKit          3D

 40 46  0  0  0  0  0  0  0  0999 V2000
   -7.9040    3.9820   27.1177 C   0  0  0  0  0  0  0  0  0  0  0  0
   -7.8663    4.8694   27.9238 C   0  0  0  0  0  0  0  0  0  0  0  0
   -7.4547    2.7080   27.4594 C   0  0  0  0  0  0  0  0  0  0  0  0
   -7.9337    1.5946   26.8372 C   0  0  0  0  0  0  0  0  0  0  0  0
   -8.9032    1.7881   25.8510 C   0  0  0  0  0  0  0  0  0  0  0  0
   -9.3787    2.9871   25.5530 C   0  0  0  0  0  0  0  0  0  0  0  0
   -8.9781    4.0300   26.2200 C   0  0  0  0  0  0  0  0  0  0  0  0
   -8.0013    6.0716   27.8481 N   0  0  0  0  0  0  0  0  0  0  0  0
  -10.3917    3.1448   24.4429 C   0  0  0  0  0  0  0  0  0  0  0  0
  -10.9884    4.3468   24.2273 C   0  0  0  0  0  0  0  0  0  0  0  0
  -10.5647    2.1452   23.5130 C   0  0  0  0  0  0  0  0  0  0  0  0
  -11.4132    2.3243   22.4240 C   0  0  0  0  0  0  0  0  0  0  0  0
  -11.8421    4.5655   23.1612 C   0  0  0  0  0  0  0  0  0  0  0  0
  -12.0346    3.5375   22.2560 C   0  0  0  0  0  0  0  0  0  0  0  0
   -8.7362    6.6226   26.8660 C   0  0  0  0  0  0  0  0  0  0  0  0
   -9.0527    7.8138   26.6043 N   0  0  0  0  0  0  0  0  0  0  0  0
   -9.3306    5.6511   25.8914 C   0  0  0  0  0  0  0  0  0  0  0  0
   -7.3504    0.2430   27.0749 C   0  0  0  0  0  0  0  0  0  0  0  0
   -7.9421   -0.8258   26.9189 N   0  0  0  0  0  0  0  0  0  0  0  0
   -9.1662   -0.9079   26.6078 C   0  0  0  0  0  0  0  0  0  0  0  0
   -9.6337   -2.2233   26.2833 C   0  0  0  0  0  0  0  0  0  0  0  0
  -10.1246    0.1488   26.3759 C   0  0  0  0  0  0  0  0  0  0  0  0
   -9.6400    0.7142   25.5744 N   0  0  0  0  0  0  0  0  0  0  0  0
  -11.4955   -0.4395   26.2093 C   0  0  0  0  0  0  0  0  0  0  0  0
  -10.9466   -2.5984   26.2696 C   0  0  0  0  0  0  0  0  0  0  0  0
  -11.9301   -1.6845   26.2507 C   0  0  0  0  0  0  0  0  0  0  0  0
  -12.5574    0.7122   26.1129 C   0  0  0  0  0  0  0  0  0  0  0  0
  -13.5301    0.6958   25.1711 C   0  0  0  0  0  0  0  0  0  0  0  0
  -13.7827   -0.3858   24.4552 C   0  0  0  0  0  0  0  0  0  0  0  0
  -14.7546   -0.3031   23.3829 C   0  0  0  0  0  0  0  0  0  0  0  0
  -15.2980    0.8968   23.1744 C   0  0  0  0  0  0  0  0  0  0  0  0
  -15.0701    2.0190   23.9014 C   0  0  0  0  0  0  0  0  0  0  0  0
  -14.1253    1.9562   24.9387 C   0  0  0  0  0  0  0  0  0  0  0  0
  -11.6929    1.2223   21.5175 C   0  0  0  0  0  0  0  0  0  0  0  0
  -12.5906    1.2275   20.5407 C   0  0  0  0  0  0  0  0  0  0  0  0
  -10.8698    0.0125   21.6718 C   0  0  0  0  0  0  0  0  0  0  0  0
  -11.1523   -1.1231   20.9284 C   0  0  0  0  0  0  0  0  0  0  0  0
  -12.8158    0.1549   19.6972 C   0  0  0  0  0  0  0  0  0  0  0  0
  -12.0713   -1.0079   19.9039 C   0  0  0  0  0  0  0  0  0  0  0  0
  -14.8256   -1.4576   22.5672 C   0  0  0  0  0  0  0  0  0  0  0  0
  6  9  1  0
 15 16  1  0
  4 18  1  0
 18 19  2  0
 19 20  1  0
  5 23  1  0
 22 23  1  0
 24 27  1  0
 12 34  1  0
 30 40  1  0
 27 28  1  0
 28 29  2  0
 29 30  1  0
 30 31  2  0
 31 32  1  0
 32 33  2  0
 33 28  1  0
 20 21  2  0
 21 25  1  0
 25 26  2  0
 26 24  1  0
 24 22  2  0
 22 20  1  0
  1  2  2  0
  2  8  1  0
  8 15  2  0
 15 17  1  0
 17  7  2  0
  1  3  1  0
  3  4  2  0
  4  5  1  0
  5  6  2  0
  6  7  1  0
  7  1  1  0
 34 35  2  0
 35 38  1  0
 38 39  2  0
 39 37  1  0
 37 36  2  0
 36 34  1  0
  9 10  2  0
 10 13  1  0
 13 14  2  0
 14 12  1  0
 12 11  2  0
 11  9  1  0
M  END
$$$$
