No_2969-complexes_sdf/6BKW-FPZ/2024-09-17-14-21-01/
     RDKit          3D

 16 17  0  0  0  0  0  0  0  0999 V2000
   -7.9040    3.9820   27.1177 C   0  0  0  0  0  0  0  0  0  0  0  0
   -8.2057    2.8231   26.8733 C   0  0  0  0  0  0  0  0  0  0  0  0
   -7.4766    1.7477   27.4593 C   0  0  0  0  0  0  0  0  0  0  0  0
   -8.7468    5.1251   26.6967 C   0  0  0  0  0  0  0  0  0  0  0  0
   -9.7234    4.8589   25.8202 C   0  0  0  0  0  0  0  0  0  0  0  0
   -9.9711    3.5858   25.4266 C   0  0  0  0  0  0  0  0  0  0  0  0
   -9.2266    2.4957   25.9600 C   0  0  0  0  0  0  0  0  0  0  0  0
   -6.6635    0.9000   26.7532 C   0  0  0  0  0  0  0  0  0  0  0  0
   -5.7321    0.1432   27.5393 C   0  0  0  0  0  0  0  0  0  0  0  0
   -4.7031    0.8881   28.1143 C   0  0  0  0  0  0  0  0  0  0  0  0
   -3.4385    0.2936   28.2719 C   0  0  0  0  0  0  0  0  0  0  0  0
   -3.3515   -1.0423   28.4495 C   0  0  0  0  0  0  0  0  0  0  0  0
   -4.4052   -1.8046   27.8702 C   0  0  0  0  0  0  0  0  0  0  0  0
   -5.5732   -1.2006   27.4056 C   0  0  0  0  0  0  0  0  0  0  0  0
   -8.4242    6.5269   27.0919 C   0  0  0  0  0  0  0  0  0  0  0  0
   -7.7602    6.8334   28.1444 N   0  0  0  0  0  0  0  0  0  0  0  0
  2  3  1  0
  3  8  1  0
  8  9  1  0
  4 15  1  0
 15 16  2  0
  1  2  2  0
  2  7  1  0
  7  6  2  0
  6  5  1  0
  5  4  2  0
  4  1  1  0
  9 10  2  0
 10 11  1  0
 11 12  2  0
 12 13  1  0
 13 14  2  0
 14  9  1  0
M  END
$$$$
