No_2754-complexes_sdf/6BKW-FPZ/2024-09-17-14-21-01/
     RDKit          3D

 17 19  0  0  0  0  0  0  0  0999 V2000
   -7.7129    4.2099   27.0854 C   0  0  0  0  0  0  0  0  0  0  0  0
   -7.7814    5.1722   27.8972 C   0  0  0  0  0  0  0  0  0  0  0  0
   -8.8776    3.8408   26.3416 C   0  0  0  0  0  0  0  0  0  0  0  0
   -9.9844    4.6492   26.4743 C   0  0  0  0  0  0  0  0  0  0  0  0
   -8.8033    6.1375   27.8728 C   0  0  0  0  0  0  0  0  0  0  0  0
   -9.9554    5.8280   27.1736 C   0  0  0  0  0  0  0  0  0  0  0  0
   -8.6804    2.5787   25.5887 C   0  0  0  0  0  0  0  0  0  0  0  0
   -9.4870    2.4390   24.5140 C   0  0  0  0  0  0  0  0  0  0  0  0
   -9.4683    1.2680   23.7230 C   0  0  0  0  0  0  0  0  0  0  0  0
  -10.1760    1.1428   22.4967 C   0  0  0  0  0  0  0  0  0  0  0  0
  -11.0003    2.2325   22.1328 C   0  0  0  0  0  0  0  0  0  0  0  0
  -11.0400    3.3720   22.8736 C   0  0  0  0  0  0  0  0  0  0  0  0
  -10.3058    3.5548   24.0356 C   0  0  0  0  0  0  0  0  0  0  0  0
  -10.8169    4.5041   25.2796 N   0  0  0  0  0  0  0  0  0  0  0  0
  -11.9780    4.5085   22.5030 C   0  0  0  0  0  0  0  0  0  0  0  0
   -6.7232    5.5915   28.7006 O   0  0  0  0  0  0  0  0  0  0  0  0
   -7.8951    1.6973   26.0318 O   0  0  0  0  0  0  0  0  0  0  0  0
  3  7  1  0
  7  8  1  0
  4 14  1  0
 13 14  1  0
 12 15  1  0
  2 16  1  0
  7 17  2  0
  8  9  2  0
  9 10  1  0
 10 11  2  0
 11 12  1  0
 12 13  2  0
 13  8  1  0
  1  2  2  0
  2  5  1  0
  5  6  2  0
  6  4  1  0
  4  3  2  0
  3  1  1  0
M  END
$$$$
