No_2672-complexes_sdf/6BKW-FPZ/2024-09-17-14-21-01/
     RDKit          3D

 24 26  0  0  0  0  0  0  0  0999 V2000
   -7.7129    4.2099   27.0854 C   0  0  0  0  0  0  0  0  0  0  0  0
   -7.7814    5.1722   27.8972 C   0  0  1  0  0  0  0  0  0  0  0  0
   -7.2983    2.9533   27.5684 C   0  0  0  0  0  0  0  0  0  0  0  0
   -7.6908    1.8111   26.9553 C   0  0  0  0  0  0  0  0  0  0  0  0
   -8.6170    1.9454   25.9101 C   0  0  0  0  0  0  0  0  0  0  0  0
   -9.0311    0.6928   25.2944 C   0  0  2  0  0  0  0  0  0  0  0  0
   -8.7954    4.0838   26.1423 C   0  0  0  0  0  0  0  0  0  0  0  0
   -9.2073    3.0514   25.5692 C   0  0  0  0  0  0  0  0  0  0  0  0
   -9.3329    0.6037   24.1161 C   0  0  0  0  0  0  0  0  0  0  0  0
   -9.2992    1.8565   23.2730 C   0  0  0  0  0  0  0  0  0  0  0  0
   -9.7650    1.9060   21.9865 C   0  0  0  0  0  0  0  0  0  0  0  0
  -10.0051    0.6638   21.3423 C   0  0  0  0  0  0  0  0  0  0  0  0
   -9.8817   -0.5510   21.9907 C   0  0  0  0  0  0  0  0  0  0  0  0
   -9.5541   -0.5237   23.2715 C   0  0  0  0  0  0  0  0  0  0  0  0
   -7.0631    5.2680   29.0042 F   0  0  0  0  0  0  0  0  0  0  0  0
   -8.2581    6.5427   27.5509 C   0  0  0  0  0  0  0  0  0  0  0  0
   -8.5581    7.0858   26.6671 C   0  0  0  0  0  0  0  0  0  0  0  0
   -9.9172   -0.0739   26.1401 C   0  0  0  0  0  0  0  0  0  0  0  0
  -10.9415    0.2745   26.9537 C   0  0  0  0  0  0  0  0  0  0  0  0
  -11.4393    1.6600   27.0071 C   0  0  0  0  0  0  0  0  0  0  0  0
  -12.4651    1.9533   28.0231 C   0  0  0  0  0  0  0  0  0  0  0  0
  -12.8827    0.9554   28.8527 C   0  0  0  0  0  0  0  0  0  0  0  0
  -11.5388   -0.5899   27.9294 C   0  0  0  0  0  0  0  0  0  0  0  0
  -12.4352   -0.2688   28.8513 C   0  0  0  0  0  0  0  0  0  0  0  0
  5  6  1  0
  2 15  1  6
  2 16  1  0
 16 17  2  0
  6 18  1  1
 18 19  1  0
  2  1  1  0
  6  9  1  0
  1  3  2  0
  3  4  1  0
  4  5  2  0
  5  8  1  0
  8  7  2  0
  7  1  1  0
  9 10  2  0
 10 11  1  0
 11 12  2  0
 12 13  1  0
 13 14  2  0
 14  9  1  0
 19 20  2  0
 20 21  1  0
 21 22  2  0
 22 24  1  0
 24 23  2  0
 23 19  1  0
M  END
$$$$
