No_2032-complexes_sdf/6BKW-FPZ/2024-09-17-14-21-01/
     RDKit          3D

 14 15  0  0  0  0  0  0  0  0999 V2000
   -7.7129    4.2099   27.0854 C   0  0  0  0  0  0  0  0  0  0  0  0
   -8.9133    4.4736   27.0998 C   0  0  0  0  0  0  0  0  0  0  0  0
   -9.4643    5.5426   27.7628 C   0  0  0  0  0  0  0  0  0  0  0  0
   -6.8373    4.9942   27.9785 C   0  0  0  0  0  0  0  0  0  0  0  0
   -7.3717    6.0428   28.6744 C   0  0  0  0  0  0  0  0  0  0  0  0
   -8.6869    6.3937   28.5345 C   0  0  0  0  0  0  0  0  0  0  0  0
   -9.9418    3.7066   26.3114 C   0  0  0  0  0  0  0  0  0  0  0  0
  -10.9264    3.2293   26.8329 N   0  0  0  0  0  0  0  0  0  0  0  0
  -11.1721    3.1770   27.9369 C   0  0  0  0  0  0  0  0  0  0  0  0
  -12.3720    2.4390   28.6245 C   0  0  0  0  0  0  0  0  0  0  0  0
  -12.0407    2.6160   26.0038 C   0  0  0  0  0  0  0  0  0  0  0  0
  -13.0885    2.0384   26.4350 C   0  0  0  0  0  0  0  0  0  0  0  0
  -13.2689    1.9572   27.8726 C   0  0  0  0  0  0  0  0  0  0  0  0
   -9.6681    3.7665   25.0327 O   0  0  0  0  0  0  0  0  0  0  0  0
  2  7  1  0
  7  8  1  0
  8  9  1  0
  8 11  1  0
 10 13  1  0
 12 13  1  0
  7 14  2  0
  9 10  1  0
 12 11  1  0
  1  2  2  0
  2  3  1  0
  3  6  2  0
  6  5  1  0
  5  4  2  0
  4  1  1  0
M  END
$$$$
