No_2424-complexes_sdf/6BKW-FPZ/2024-09-17-14-21-01/
     RDKit          3D

 18 20  0  0  0  0  0  0  0  0999 V2000
   -7.9040    3.9820   27.1177 C   0  0  0  0  0  0  0  0  0  0  0  0
   -7.8663    4.8694   27.9238 C   0  0  0  0  0  0  0  0  0  0  0  0
   -9.0491    3.8523   26.2542 C   0  0  0  0  0  0  0  0  0  0  0  0
   -8.7661    5.9491   27.9690 C   0  0  0  0  0  0  0  0  0  0  0  0
   -9.9329    4.8547   26.2262 C   0  0  0  0  0  0  0  0  0  0  0  0
   -9.8210    5.9496   27.0962 C   0  0  0  0  0  0  0  0  0  0  0  0
   -9.0781    2.7107   25.3018 C   0  0  1  0  0  0  0  0  0  0  0  0
   -8.6101    1.4628   25.7434 C   0  0  0  0  0  0  0  0  0  0  0  0
   -9.8234    2.8158   24.1097 C   0  0  0  0  0  0  0  0  0  0  0  0
   -9.2301    0.8764   26.2833 F   0  0  0  0  0  0  0  0  0  0  0  0
   -8.0879    0.8037   24.6370 F   0  0  0  0  0  0  0  0  0  0  0  0
   -7.3431    1.5845   26.4034 F   0  0  0  0  0  0  0  0  0  0  0  0
   -9.9257    1.8433   23.3404 N   0  0  0  0  0  0  0  0  0  0  0  0
  -10.8864    1.7044   22.5170 C   0  0  0  0  0  0  0  0  0  0  0  0
  -11.7262    2.6391   22.3180 C   0  0  0  0  0  0  0  0  0  0  0  0
  -11.7061    3.7690   23.1851 C   0  0  0  0  0  0  0  0  0  0  0  0
  -10.8091    3.8522   24.1168 C   0  0  0  0  0  0  0  0  0  0  0  0
  -10.7864    4.8821   25.1500 C   0  0  0  0  0  0  0  0  0  0  0  0
  3  7  1  0
  7  8  1  1
  7  9  1  0
  8 10  1  0
  8 11  1  0
  8 12  1  0
  5 18  1  0
 17 18  1  0
  9 13  2  0
 13 14  1  0
 14 15  2  0
 15 16  1  0
 16 17  2  0
 17  9  1  0
  1  2  2  0
  2  4  1  0
  4  6  2  0
  6  5  1  0
  5  3  2  0
  3  1  1  0
M  END
$$$$
