No_2553-complexes_sdf/6BKW-FPZ/2024-09-17-14-21-01/
     RDKit          3D

 13 13  0  0  0  0  0  0  0  0999 V2000
   -7.9040    3.9820   27.1177 C   0  0  0  0  0  0  0  0  0  0  0  0
   -8.2057    2.8231   26.8733 C   0  0  0  0  0  0  0  0  0  0  0  0
   -8.7695    5.0740   26.7916 C   0  0  0  0  0  0  0  0  0  0  0  0
   -9.7466    4.9191   26.3183 C   0  0  0  0  0  0  0  0  0  0  0  0
   -9.4594    2.5453   26.2990 C   0  0  0  0  0  0  0  0  0  0  0  0
  -10.2402    3.6028   25.9953 C   0  0  0  0  0  0  0  0  0  0  0  0
   -8.2287    6.4917   27.1513 C   0  0  0  0  0  0  0  0  0  0  0  0
   -7.6094    6.7815   28.2090 N   0  0  0  0  0  0  0  0  0  0  0  0
   -8.4448    7.4394   26.3026 F   0  0  0  0  0  0  0  0  0  0  0  0
   -7.3196    1.6532   27.2455 C   0  0  0  0  0  0  0  0  0  0  0  0
   -7.0128    0.7015   26.7154 Cl  0  0  0  0  0  0  0  0  0  0  0  0
  -11.6391    3.5035   25.0348 Cl  0  0  0  0  0  0  0  0  0  0  0  0
   -6.5179    2.1943   28.2857 O   0  0  0  0  0  0  0  0  0  0  0  0
  3  7  1  0
  7  8  1  0
  7  9  1  0
  2 10  1  0
 10 11  1  0
  6 12  1  0
 10 13  2  0
  1  2  2  0
  2  5  1  0
  5  6  2  0
  6  4  1  0
  4  3  2  0
  3  1  1  0
M  END
$$$$
