No_2061-complexes_sdf/6BKW-FPZ/2024-09-17-14-21-01/
     RDKit          3D

 26 30  0  0  0  0  0  0  0  0999 V2000
   -7.9040    3.9820   27.1177 C   0  0  0  0  0  0  0  0  0  0  0  0
   -7.8663    4.8694   27.9238 C   0  0  0  0  0  0  0  0  0  0  0  0
   -7.4698    2.6989   27.4277 C   0  0  0  0  0  0  0  0  0  0  0  0
   -7.9683    1.5964   26.8266 C   0  0  1  0  0  0  0  0  0  0  0  0
   -8.9447    1.7923   25.8533 C   0  0  0  0  0  0  0  0  0  0  0  0
   -9.4405    2.9988   25.5757 C   0  0  1  0  0  0  0  0  0  0  0  0
   -8.9424    4.1117   26.2388 C   0  0  0  0  0  0  0  0  0  0  0  0
   -8.2732    6.2141   27.6484 N   0  0  0  0  0  0  0  0  0  0  0  0
   -9.1540    6.5068   26.6734 C   0  0  0  0  0  0  0  0  0  0  0  0
   -9.5312    5.3927   25.9147 C   0  0  0  0  0  0  0  0  0  0  0  0
   -7.3926    0.2681   27.0981 C   0  0  0  0  0  0  0  0  0  0  0  0
   -8.1926   -0.7167   27.6056 C   0  0  0  0  0  0  0  0  0  0  0  0
   -6.0319    0.0112   26.8964 C   0  0  0  0  0  0  0  0  0  0  0  0
   -5.4941   -1.2252   27.0103 C   0  0  0  0  0  0  0  0  0  0  0  0
   -7.6862   -1.9951   27.8996 C   0  0  0  0  0  0  0  0  0  0  0  0
   -6.3318   -2.2319   27.6162 C   0  0  0  0  0  0  0  0  0  0  0  0
  -10.3995    3.0916   24.4675 C   0  0  0  0  0  0  0  0  0  0  0  0
  -11.4926    3.7908   24.6367 C   0  0  0  0  0  0  0  0  0  0  0  0
  -10.0880    2.4911   23.2714 C   0  0  0  0  0  0  0  0  0  0  0  0
  -12.4629    3.8285   23.6333 C   0  0  0  0  0  0  0  0  0  0  0  0
  -10.9664    2.5496   22.2196 C   0  0  0  0  0  0  0  0  0  0  0  0
  -10.7066    1.8662   20.9371 C   0  0  0  0  0  0  0  0  0  0  0  0
  -12.1514    3.2508   22.3442 C   0  0  0  0  0  0  0  0  0  0  0  0
  -11.2940    2.2014   19.8818 C   0  0  0  0  0  0  0  0  0  0  0  0
  -12.5194    3.0583   19.9547 C   0  0  0  0  0  0  0  0  0  0  0  0
  -12.9398    3.5579   21.1777 C   0  0  0  0  0  0  0  0  0  0  0  0
  1  3  1  0
  3  4  1  0
  4  5  1  0
  5  6  1  0
  6  7  1  0
  4 11  1  6
  6 17  1  6
  1  2  2  0
  2  8  1  0
  8  9  2  0
  9 10  1  0
 10  7  2  0
  7  1  1  0
 17 18  2  0
 18 20  1  0
 20 23  2  0
 21 19  2  0
 19 17  1  0
 11 12  2  0
 12 15  1  0
 15 16  2  0
 16 14  1  0
 14 13  2  0
 13 11  1  0
 21 22  1  0
 22 24  2  0
 24 25  1  0
 25 26  2  0
 26 23  1  0
 23 21  1  0
M  END
$$$$
