No_2118-complexes_sdf/6BKW-FPZ/2024-09-17-14-21-01/
     RDKit          3D

 10 10  0  0  0  0  0  0  0  0999 V2000
   -7.9040    3.9820   27.1177 C   0  0  0  0  0  0  0  0  0  0  0  0
   -8.2057    2.8231   26.8733 C   0  0  0  0  0  0  0  0  0  0  0  0
   -7.0130    4.3706   28.1140 C   0  0  0  0  0  0  0  0  0  0  0  0
   -7.3740    1.7588   27.2586 C   0  0  0  0  0  0  0  0  0  0  0  0
   -6.1366    2.1529   27.9510 C   0  0  0  0  0  0  0  0  0  0  0  0
   -5.9453    3.4605   28.2895 C   0  0  0  0  0  0  0  0  0  0  0  0
   -8.9484    5.1005   26.7851 C   0  0  0  0  0  0  0  0  0  0  0  0
   -9.2457    5.1899   25.6157 F   0  0  0  0  0  0  0  0  0  0  0  0
  -10.0606    5.0343   27.4362 F   0  0  0  0  0  0  0  0  0  0  0  0
   -8.4237    6.4163   27.0317 F   0  0  0  0  0  0  0  0  0  0  0  0
  1  7  1  0
  7  8  1  0
  7  9  1  0
  7 10  1  0
  1  2  2  0
  2  4  1  0
  4  5  2  0
  5  6  1  0
  6  3  2  0
  3  1  1  0
M  END
$$$$
