No_2362-complexes_sdf/6BKW-FPZ/2024-09-17-14-21-01/
     RDKit          3D

 40 44  0  0  0  0  0  0  0  0999 V2000
   -7.9040    3.9820   27.1177 C   0  0  0  0  0  0  0  0  0  0  0  0
   -8.2057    2.8231   26.8733 C   0  0  0  0  0  0  0  0  0  0  0  0
   -8.7695    5.0740   26.7916 C   0  0  0  0  0  0  0  0  0  0  0  0
   -9.9618    4.7598   26.1630 C   0  0  0  0  0  0  0  0  0  0  0  0
   -7.3763    1.7038   27.3414 C   0  0  0  0  0  0  0  0  0  0  0  0
   -9.4134    2.4504   26.3004 C   0  0  0  0  0  0  0  0  0  0  0  0
  -10.2558    3.4522   25.9218 C   0  0  0  0  0  0  0  0  0  0  0  0
   -6.1615    1.9296   27.8795 N   0  0  0  0  0  0  0  0  0  0  0  0
   -5.3437    0.8496   28.2298 C   0  0  0  0  0  0  0  0  0  0  0  0
   -4.0314    1.0605   28.7948 C   0  0  0  0  0  0  0  0  0  0  0  0
   -5.8293   -0.4433   28.0940 C   0  0  0  0  0  0  0  0  0  0  0  0
   -7.9089    0.5074   27.2687 O   0  0  0  0  0  0  0  0  0  0  0  0
   -3.2816    0.0735   29.3104 C   0  0  0  0  0  0  0  0  0  0  0  0
   -4.9857   -1.4851   28.6818 C   0  0  0  0  0  0  0  0  0  0  0  0
   -3.7656   -1.2297   29.2257 C   0  0  0  0  0  0  0  0  0  0  0  0
   -8.3977    6.5005   27.0638 C   0  0  0  0  0  0  0  0  0  0  0  0
   -8.0728    6.8450   28.1933 O   0  0  0  0  0  0  0  0  0  0  0  0
   -8.5203    7.3612   26.0845 O   0  0  0  0  0  0  0  0  0  0  0  0
  -11.4690    3.1596   25.1488 C   0  0  0  0  0  0  0  0  0  0  0  0
  -12.5725    2.8643   25.6682 N   0  0  0  0  0  0  0  0  0  0  0  0
  -12.7288    2.5945   26.8447 C   0  0  0  0  0  0  0  0  0  0  0  0
  -14.0748    2.4083   27.4483 C   0  0  0  0  0  0  0  0  0  0  0  0
  -13.8670    2.9108   24.8917 C   0  0  0  0  0  0  0  0  0  0  0  0
  -15.0434    2.7810   25.4295 C   0  0  0  0  0  0  0  0  0  0  0  0
  -15.1801    2.5185   26.7746 C   0  0  0  0  0  0  0  0  0  0  0  0
  -11.2945    3.1248   23.8747 O   0  0  0  0  0  0  0  0  0  0  0  0
   -2.9240   -2.3275   29.7639 C   0  0  0  0  0  0  0  0  0  0  0  0
   -3.2706   -3.1824   30.3830 C   0  0  0  0  0  0  0  0  0  0  0  0
   -2.4100   -4.2708   30.9147 C   0  0  0  0  0  0  0  0  0  0  0  0
   -1.0490   -4.1926   30.6265 C   0  0  0  0  0  0  0  0  0  0  0  0
   -1.4557   -2.0760   29.4922 C   0  0  0  0  0  0  0  0  0  0  0  0
   -0.6279   -2.8349   29.8304 C   0  0  0  0  0  0  0  0  0  0  0  0
  -16.4911    2.3281   27.3829 C   0  0  0  0  0  0  0  0  0  0  0  0
  -17.0915    1.3434   27.3259 N   0  0  0  0  0  0  0  0  0  0  0  0
  -18.2839    1.0915   27.7240 C   0  0  0  0  0  0  0  0  0  0  0  0
  -17.0013    3.5293   28.0887 C   0  0  0  0  0  0  0  0  0  0  0  0
  -18.3382    3.3296   28.6162 C   0  0  0  0  0  0  0  0  0  0  0  0
  -18.9207    2.0998   28.4626 C   0  0  0  0  0  0  0  0  0  0  0  0
  -16.4531    0.1597   26.5870 C   0  0  0  0  0  0  0  0  0  0  0  0
  -15.7685   -0.7280   27.4966 C   0  0  0  0  0  0  0  0  0  0  0  0
  2  5  1  0
  5  8  1  0
  5 12  2  0
  3 16  1  0
 16 17  2  0
 16 18  1  0
  7 19  1  0
 19 20  1  0
 20 21  1  0
 20 23  1  0
 22 25  1  0
 24 25  1  0
 19 26  2  0
 15 27  1  0
 25 33  1  0
 33 34  1  0
 34 35  1  0
 33 36  1  0
 37 38  1  0
 34 39  1  0
 39 40  1  0
  8  9  1  0
 36 37  1  0
 38 35  1  0
 21 22  1  0
 24 23  1  0
  9 10  2  0
 10 13  1  0
 13 15  2  0
 15 14  1  0
 14 11  2  0
 11  9  1  0
  1  2  2  0
  2  6  1  0
  6  7  2  0
  7  4  1  0
  4  3  2  0
  3  1  1  0
 27 28  2  0
 28 29  1  0
 29 30  2  0
 30 32  1  0
 32 31  2  0
 31 27  1  0
M  END
$$$$
