No_2230-complexes_sdf/6BKW-FPZ/2024-09-17-14-21-01/
     RDKit          3D

 30 33  0  0  0  0  0  0  0  0999 V2000
   -7.9040    3.9820   27.1177 C   0  0  0  0  0  0  0  0  0  0  0  0
   -9.0711    4.3164   27.0630 C   0  0  0  0  0  0  0  0  0  0  0  0
   -9.5294    5.4517   27.7215 C   0  0  0  0  0  0  0  0  0  0  0  0
   -6.9328    4.7309   27.8881 C   0  0  0  0  0  0  0  0  0  0  0  0
   -7.3377    5.8421   28.5537 C   0  0  0  0  0  0  0  0  0  0  0  0
   -8.6411    6.2609   28.3972 C   0  0  0  0  0  0  0  0  0  0  0  0
  -10.0493    3.4953   26.2711 C   0  0  2  0  0  0  0  0  0  0  0  0
  -10.5585    3.8087   25.3241 C   0  0  0  0  0  0  0  0  0  0  0  0
  -11.4299    3.0969   24.3973 C   0  0  0  0  0  0  0  0  0  0  0  0
  -11.9533    3.6793   23.2514 C   0  0  0  0  0  0  0  0  0  0  0  0
  -11.4330    4.9603   22.8829 C   0  0  0  0  0  0  0  0  0  0  0  0
  -10.2186    5.3136   23.3530 C   0  0  0  0  0  0  0  0  0  0  0  0
   -9.7919    4.9850   24.5902 C   0  0  0  0  0  0  0  0  0  0  0  0
  -10.3689    2.2020   26.9359 C   0  0  0  0  0  0  0  0  0  0  0  0
   -9.6686    1.0792   26.5709 C   0  0  0  0  0  0  0  0  0  0  0  0
   -8.4084    0.9744   26.6993 C   0  0  0  0  0  0  0  0  0  0  0  0
   -7.6018   -0.1652   26.3444 C   0  0  0  0  0  0  0  0  0  0  0  0
   -8.3091   -1.2654   26.0189 C   0  0  0  0  0  0  0  0  0  0  0  0
  -10.3203   -0.1331   26.2115 C   0  0  0  0  0  0  0  0  0  0  0  0
   -9.6890   -1.2819   25.9240 C   0  0  0  0  0  0  0  0  0  0  0  0
  -11.4082    2.2347   27.9390 C   0  0  0  0  0  0  0  0  0  0  0  0
  -11.6219    3.2940   28.7642 C   0  0  0  0  0  0  0  0  0  0  0  0
  -12.1623    1.0248   28.2097 C   0  0  0  0  0  0  0  0  0  0  0  0
  -13.2306    1.0411   29.1116 C   0  0  0  0  0  0  0  0  0  0  0  0
  -12.7220    3.3597   29.7307 C   0  0  0  0  0  0  0  0  0  0  0  0
  -13.4177    2.2125   29.9377 C   0  0  0  0  0  0  0  0  0  0  0  0
  -14.5031    2.2019   30.9356 C   0  0  0  0  0  0  0  0  0  0  0  0
  -14.4461    2.5676   31.8705 O   0  0  0  0  0  0  0  0  0  0  0  0
  -15.6126    1.5700   30.4768 O   0  0  0  0  0  0  0  0  0  0  0  0
   -5.6681    4.3229   28.1479 O   0  0  0  0  0  0  0  0  0  0  0  0
  2  7  1  0
  7 14  1  1
 14 15  1  0
 14 21  1  0
 26 27  1  0
 27 28  2  0
 27 29  1  0
  4 30  1  0
  7  8  1  0
 15 16  2  0
 16 17  1  0
 17 18  2  0
 18 20  1  0
 20 19  2  0
 19 15  1  0
  1  2  2  0
  2  3  1  0
  3  6  2  0
  6  5  1  0
  5  4  2  0
  4  1  1  0
 21 22  2  0
 22 25  1  0
 25 26  2  0
 26 24  1  0
 24 23  2  0
 23 21  1  0
  8  9  2  0
  9 10  1  0
 10 11  2  0
 11 12  1  0
 12 13  2  0
 13  8  1  0
M  END
$$$$
