No_2127-complexes_sdf/6BKW-FPZ/2024-09-17-14-21-01/
     RDKit          3D

 15 15  0  0  0  0  0  0  0  0999 V2000
   -7.7129    4.2099   27.0854 C   0  0  0  0  0  0  0  0  0  0  0  0
   -8.2112    3.0637   26.9225 C   0  0  0  0  0  0  0  0  0  0  0  0
   -7.5138    1.9223   27.4249 C   0  0  0  0  0  0  0  0  0  0  0  0
   -8.5309    5.4147   26.8151 C   0  0  0  0  0  0  0  0  0  0  0  0
   -9.6817    5.2393   26.1100 C   0  0  0  0  0  0  0  0  0  0  0  0
  -10.1032    3.9957   25.8534 C   0  0  0  0  0  0  0  0  0  0  0  0
   -9.4034    2.8430   26.2573 C   0  0  0  0  0  0  0  0  0  0  0  0
   -8.1463    0.8385   27.6478 F   0  0  0  0  0  0  0  0  0  0  0  0
   -6.2270    1.8608   27.5651 F   0  0  0  0  0  0  0  0  0  0  0  0
   -7.9649    6.7518   27.1058 C   0  0  2  0  0  0  0  0  0  0  0  0
   -7.0477    6.8816   27.9555 N   0  0  0  0  0  0  0  0  0  0  0  0
   -8.6637    8.1462   26.4591 Cl  0  0  0  0  0  0  0  0  0  0  0  0
  -11.2324    3.8588   25.1471 F   0  0  0  0  0  0  0  0  0  0  0  0
   -9.8368    1.7053   25.8835 F   0  0  0  0  0  0  0  0  0  0  0  0
   -6.6661    4.4693   27.8677 F   0  0  0  0  0  0  0  0  0  0  0  0
  2  3  1  0
  3  8  1  0
  3  9  1  0
  4 10  1  0
 10 11  1  1
 10 12  1  0
  6 13  1  0
  7 14  1  0
  1 15  1  0
  1  2  2  0
  2  7  1  0
  7  6  2  0
  6  5  1  0
  5  4  2  0
  4  1  1  0
M  END
$$$$
