No_2039-complexes_sdf/6BKW-FPZ/2024-09-17-14-21-01/
     RDKit          3D

 16 18  0  0  0  0  0  0  0  0999 V2000
   -7.9040    3.9820   27.1177 C   0  0  0  0  0  0  0  0  0  0  0  0
   -7.8663    4.8694   27.9238 C   0  0  0  0  0  0  0  0  0  0  0  0
   -9.0501    3.8017   26.2617 C   0  0  0  0  0  0  0  0  0  0  0  0
   -9.1826    2.7026   25.3575 C   0  0  0  0  0  0  0  0  0  0  0  0
   -8.6940    6.0131   27.8614 C   0  0  0  0  0  0  0  0  0  0  0  0
   -9.7382    4.9916   26.1006 C   0  0  0  0  0  0  0  0  0  0  0  0
   -9.6356    6.0254   26.9506 C   0  0  0  0  0  0  0  0  0  0  0  0
   -8.7538    1.4669   25.8136 C   0  0  0  0  0  0  0  0  0  0  0  0
   -9.8764    2.8449   24.1464 C   0  0  0  0  0  0  0  0  0  0  0  0
   -8.9133    0.3756   24.9760 C   0  0  0  0  0  0  0  0  0  0  0  0
  -10.0019    1.7297   23.3405 C   0  0  0  0  0  0  0  0  0  0  0  0
   -9.5017    0.5113   23.7538 C   0  0  0  0  0  0  0  0  0  0  0  0
  -10.6333    1.8822   22.0179 C   0  0  0  0  0  0  0  0  0  0  0  0
  -10.5267    3.0687   21.4298 C   0  0  0  0  0  0  0  0  0  0  0  0
  -10.3985    4.2353   22.2558 C   0  0  0  0  0  0  0  0  0  0  0  0
  -10.0601    4.1574   23.5427 C   0  0  0  0  0  0  0  0  0  0  0  0
  3  4  1  0
 11 13  2  0
 13 14  1  0
 14 15  2  0
 15 16  1  0
 16  9  2  0
  4  8  2  0
  8 10  1  0
 10 12  2  0
 12 11  1  0
 11  9  1  0
  9  4  1  0
  1  2  2  0
  2  5  1  0
  5  7  2  0
  7  6  1  0
  6  3  2  0
  3  1  1  0
M  END
$$$$
