No_273-complexes_sdf/6BKW-FPZ/2024-09-17-14-21-01/
     RDKit          3D

 40 44  0  0  0  0  0  0  0  0999 V2000
   -7.9040    3.9820   27.1177 C   0  0  0  0  0  0  0  0  0  0  0  0
   -9.0711    4.3164   27.0630 C   0  0  0  0  0  0  0  0  0  0  0  0
   -9.5294    5.4517   27.7215 C   0  0  0  0  0  0  0  0  0  0  0  0
   -6.9328    4.7309   27.8881 C   0  0  0  0  0  0  0  0  0  0  0  0
   -7.3666    5.8455   28.5488 C   0  0  0  0  0  0  0  0  0  0  0  0
   -8.6669    6.2428   28.4199 C   0  0  0  0  0  0  0  0  0  0  0  0
  -10.0479    3.5083   26.2510 C   0  0  0  0  0  0  0  0  0  0  0  0
   -9.7487    3.3856   24.9113 C   0  0  0  0  0  0  0  0  0  0  0  0
  -10.5142    2.6814   23.9902 C   0  0  0  0  0  0  0  0  0  0  0  0
  -11.6898    2.1313   24.4168 C   0  0  0  0  0  0  0  0  0  0  0  0
  -11.2523    3.0120   26.5976 C   0  0  0  0  0  0  0  0  0  0  0  0
  -12.0785    2.2964   25.7808 C   0  0  0  0  0  0  0  0  0  0  0  0
  -10.0567    2.5731   22.6004 C   0  0  1  0  0  0  0  0  0  0  0  0
   -9.7668    1.3182   22.1226 C   0  0  0  0  0  0  0  0  0  0  0  0
   -8.7156    0.6697   22.6881 C   0  0  0  0  0  0  0  0  0  0  0  0
   -8.3613   -0.6763   22.2748 C   0  0  0  0  0  0  0  0  0  0  0  0
   -9.0252   -1.2007   21.1537 C   0  0  0  0  0  0  0  0  0  0  0  0
  -10.0876   -0.5098   20.6067 C   0  0  0  0  0  0  0  0  0  0  0  0
  -10.4157    0.7382   21.0589 C   0  0  0  0  0  0  0  0  0  0  0  0
  -10.1362    3.7675   21.8028 C   0  0  0  0  0  0  0  0  0  0  0  0
  -13.3288    1.7285   26.2342 C   0  0  0  0  0  0  0  0  0  0  0  0
  -14.3248    1.6745   25.6222 O   0  0  0  0  0  0  0  0  0  0  0  0
  -13.3008    1.2179   27.5449 N   0  0  0  0  0  0  0  0  0  0  0  0
  -12.1811    1.2367   28.4502 C   0  0  0  0  0  0  0  0  0  0  0  0
  -14.5013    0.5888   28.0432 C   0  0  0  0  0  0  0  0  0  0  0  0
  -15.2918    1.1754   28.7554 C   0  0  0  0  0  0  0  0  0  0  0  0
  -16.3807    0.6609   29.2184 C   0  0  0  0  0  0  0  0  0  0  0  0
  -16.6813   -0.6782   28.8535 C   0  0  0  0  0  0  0  0  0  0  0  0
  -15.8331   -1.3425   28.0325 C   0  0  0  0  0  0  0  0  0  0  0  0
  -14.6402   -0.7307   27.6034 C   0  0  0  0  0  0  0  0  0  0  0  0
  -16.0916   -2.7314   27.6240 C   0  0  0  0  0  0  0  0  0  0  0  0
  -16.8908   -3.1198   26.9403 O   0  0  0  0  0  0  0  0  0  0  0  0
  -15.0561   -3.6388   28.0116 N   0  0  0  0  0  0  0  0  0  0  0  0
  -15.1037   -5.0031   27.6435 C   0  0  0  0  0  0  0  0  0  0  0  0
  -14.2699   -5.7178   27.8349 C   0  0  0  0  0  0  0  0  0  0  0  0
  -14.2684   -7.1252   27.4900 C   0  0  0  0  0  0  0  0  0  0  0  0
  -15.4471   -7.5532   26.8375 C   0  0  0  0  0  0  0  0  0  0  0  0
  -16.4477   -6.6520   26.5825 C   0  0  0  0  0  0  0  0  0  0  0  0
  -16.3201   -5.3842   26.9747 C   0  0  0  0  0  0  0  0  0  0  0  0
  -15.5666   -8.9575   26.4415 C   0  0  0  0  0  0  0  0  0  0  0  0
  2  7  1  0
  9 13  1  0
 13 14  1  0
 13 20  1  6
 12 21  1  0
 21 22  2  0
 21 23  1  0
 23 24  1  0
 23 25  1  0
 29 31  1  0
 31 32  2  0
 31 33  1  0
 33 34  1  0
 37 40  1  0
 25 26  2  0
 26 27  1  0
 27 28  2  0
 28 29  1  0
 29 30  2  0
 30 25  1  0
  1  2  2  0
  2  3  1  0
  3  6  2  0
  6  5  1  0
  5  4  2  0
  4  1  1  0
 14 15  2  0
 15 16  1  0
 16 17  2  0
 17 18  1  0
 18 19  2  0
 19 14  1  0
 34 35  2  0
 35 36  1  0
 36 37  2  0
 37 38  1  0
 38 39  2  0
 39 34  1  0
  7  8  2  0
  8  9  1  0
  9 10  2  0
 10 12  1  0
 12 11  2  0
 11  7  1  0
M  END
$$$$
