No_2152-complexes_sdf/6BKW-FPZ/2024-09-17-14-21-01/
     RDKit          3D

 13 13  0  0  0  0  0  0  0  0999 V2000
   -7.9040    3.9820   27.1177 C   0  0  0  0  0  0  0  0  0  0  0  0
   -7.8663    4.8694   27.9238 C   0  0  1  0  0  0  0  0  0  0  0  0
   -7.4698    2.6989   27.4277 C   0  0  0  0  0  0  0  0  0  0  0  0
   -7.9683    1.5964   26.8266 C   0  0  0  0  0  0  0  0  0  0  0  0
   -8.9850    1.7954   26.1965 C   0  0  0  0  0  0  0  0  0  0  0  0
   -9.5859    2.9401   25.8025 C   0  0  0  0  0  0  0  0  0  0  0  0
   -9.0374    4.0924   26.3812 C   0  0  0  0  0  0  0  0  0  0  0  0
   -6.9616    5.0558   28.8888 N   0  0  0  0  0  0  0  0  0  0  0  0
   -8.7367    6.4165   27.7486 Cl  0  0  0  0  0  0  0  0  0  0  0  0
   -7.3324    0.3087   27.2372 C   0  0  1  0  0  0  0  0  0  0  0  0
   -7.9495   -1.1081   27.4991 Cl  0  0  0  0  0  0  0  0  0  0  0  0
   -5.8158    0.3495   27.3727 C   0  0  0  0  0  0  0  0  0  0  0  0
   -5.2537    1.0421   28.1452 O   0  0  0  0  0  0  0  0  0  0  0  0
  2  8  1  6
  2  9  1  0
  4 10  1  0
 10 11  1  6
 10 12  1  0
 12 13  2  0
  2  1  1  0
  1  3  2  0
  3  4  1  0
  4  5  2  0
  5  6  1  0
  6  7  2  0
  7  1  1  0
M  END
$$$$
