No_2144-complexes_sdf/6BKW-FPZ/2024-09-17-14-21-01/
     RDKit          3D

 19 21  0  0  0  0  0  0  0  0999 V2000
   -7.2496    3.8871   27.4508 C   0  0  0  0  0  0  0  0  0  0  0  0
   -7.9379    4.9063   27.8518 C   0  0  0  0  0  0  0  0  0  0  0  0
   -7.4895    6.2027   27.7481 C   0  0  0  0  0  0  0  0  0  0  0  0
   -7.4701    2.5429   27.5231 C   0  0  0  0  0  0  0  0  0  0  0  0
   -6.5934    1.5160   27.1801 C   0  0  0  0  0  0  0  0  0  0  0  0
   -7.0747    0.2758   26.9871 C   0  0  0  0  0  0  0  0  0  0  0  0
   -8.4342    0.0741   27.1362 C   0  0  0  0  0  0  0  0  0  0  0  0
   -9.3648    1.0440   27.3986 C   0  0  0  0  0  0  0  0  0  0  0  0
   -8.9200    2.2579   27.5513 C   0  0  0  0  0  0  0  0  0  0  0  0
   -9.3941    4.7814   27.9429 C   0  0  0  0  0  0  0  0  0  0  0  0
   -9.8777    3.4001   27.9381 C   0  0  0  0  0  0  0  0  0  0  0  0
  -11.2563    3.0961   28.1986 C   0  0  0  0  0  0  0  0  0  0  0  0
  -12.1999    3.9285   28.0402 C   0  0  0  0  0  0  0  0  0  0  0  0
  -13.3581    3.8615   28.1795 C   0  0  0  0  0  0  0  0  0  0  0  0
  -13.8997    2.6547   28.7251 C   0  0  0  0  0  0  0  0  0  0  0  0
  -12.9703    1.6247   28.9415 C   0  0  0  0  0  0  0  0  0  0  0  0
  -11.6585    1.8357   28.7226 C   0  0  0  0  0  0  0  0  0  0  0  0
  -13.4668    0.2940   29.4222 C   0  0  0  0  0  0  0  0  0  0  0  0
  -14.3039   -0.3143   28.7461 O   0  0  0  0  0  0  0  0  0  0  0  0
  2  3  1  0
 11 12  1  0
 16 18  1  0
 18 19  2  0
 12 13  2  0
 13 14  1  0
 14 15  2  0
 15 16  1  0
 16 17  2  0
 17 12  1  0
  1  2  2  0
  2 10  1  0
 10 11  2  0
 11  9  1  0
  4  1  1  0
  4  5  2  0
  5  6  1  0
  6  7  2  0
  7  8  1  0
  8  9  2  0
  9  4  1  0
M  END
$$$$
