No_2823-complexes_sdf/6BKW-FPZ/2024-09-17-14-21-01/
     RDKit          3D

 20 22  0  0  0  0  0  0  0  0999 V2000
   -7.7129    4.2099   27.0854 C   0  0  0  0  0  0  0  0  0  0  0  0
   -8.2112    3.0637   26.9225 C   0  0  0  0  0  0  0  0  0  0  0  0
   -7.0021    4.5281   28.2396 C   0  0  0  0  0  0  0  0  0  0  0  0
   -7.5497    1.9016   27.4549 C   0  0  0  0  0  0  0  0  0  0  0  0
   -8.0831    0.6050   27.2852 C   0  0  0  0  0  0  0  0  0  0  0  0
   -9.3847    0.5379   26.8015 C   0  0  0  0  0  0  0  0  0  0  0  0
  -10.0898    1.6195   26.3689 C   0  0  0  0  0  0  0  0  0  0  0  0
   -9.5511    2.8094   26.3213 C   0  0  0  0  0  0  0  0  0  0  0  0
   -8.4363    5.3537   26.4830 C   0  0  0  0  0  0  0  0  0  0  0  0
   -9.6155    5.3953   25.8099 C   0  0  0  0  0  0  0  0  0  0  0  0
  -10.2258    3.9535   25.7646 C   0  0  0  0  0  0  0  0  0  0  0  0
  -11.3399    3.8359   24.9110 C   0  0  0  0  0  0  0  0  0  0  0  0
  -12.5364    3.6486   25.4004 C   0  0  0  0  0  0  0  0  0  0  0  0
  -11.1027    3.4655   23.5046 C   0  0  0  0  0  0  0  0  0  0  0  0
  -12.1214    3.3420   22.6445 C   0  0  0  0  0  0  0  0  0  0  0  0
  -13.6737    3.5578   24.5769 C   0  0  0  0  0  0  0  0  0  0  0  0
  -13.4461    3.3886   23.1915 C   0  0  0  0  0  0  0  0  0  0  0  0
   -7.3848   -0.5206   27.8552 C   0  0  0  0  0  0  0  0  0  0  0  0
   -7.9993   -1.7029   28.2122 C   0  0  0  0  0  0  0  0  0  0  0  0
   -7.3313   -2.7316   28.7097 C   0  0  0  0  0  0  0  0  0  0  0  0
 11 12  1  0
  5 18  1  0
 18 19  2  3
 19 20  1  0
  3  1  1  0
  1  2  2  0
  8 11  2  0
 11 10  1  0
 10  9  2  0
  9  1  1  0
 12 13  2  0
 13 16  1  0
 16 17  2  0
 17 15  1  0
 15 14  2  0
 14 12  1  0
  2  4  1  0
  4  5  2  0
  5  6  1  0
  6  7  2  0
  7  8  1  0
  8  2  1  0
M  END
$$$$
