No_2562-complexes_sdf/6BKW-FPZ/2024-09-17-14-21-01/
     RDKit          3D

 25 28  0  0  0  0  0  0  0  0999 V2000
   -7.9040    3.9820   27.1177 C   0  0  0  0  0  0  0  0  0  0  0  0
   -7.8663    4.8694   27.9238 C   0  0  0  0  0  0  0  0  0  0  0  0
   -9.0491    3.8523   26.2542 C   0  0  0  0  0  0  0  0  0  0  0  0
   -8.7661    5.9491   27.9690 C   0  0  0  0  0  0  0  0  0  0  0  0
   -9.9295    4.8502   26.2323 C   0  0  0  0  0  0  0  0  0  0  0  0
   -9.8077    5.9288   27.0933 C   0  0  0  0  0  0  0  0  0  0  0  0
   -6.8002    2.6256   27.2024 Cl  0  0  0  0  0  0  0  0  0  0  0  0
   -9.0815    2.8240   25.3662 F   0  0  0  0  0  0  0  0  0  0  0  0
  -10.9181    4.9427   25.3648 O   0  0  0  0  0  0  0  0  0  0  0  0
  -11.4227    3.8738   24.6737 C   0  0  0  0  0  0  0  0  0  0  0  0
  -11.2424    3.8276   23.3301 C   0  0  0  0  0  0  0  0  0  0  0  0
  -11.1240    2.7735   22.5507 C   0  0  0  0  0  0  0  0  0  0  0  0
  -11.4578    1.5432   23.2216 C   0  0  0  0  0  0  0  0  0  0  0  0
  -11.6480    1.5142   24.5769 C   0  0  0  0  0  0  0  0  0  0  0  0
  -11.5755    2.7208   25.3644 C   0  0  0  0  0  0  0  0  0  0  0  0
  -11.9708    2.6671   26.7340 C   0  0  0  0  0  0  0  0  0  0  0  0
  -13.1398    2.4647   27.0486 C   0  0  0  0  0  0  0  0  0  0  0  0
  -14.2245    2.4306   26.1685 C   0  0  0  0  0  0  0  0  0  0  0  0
  -15.5550    2.2349   26.5755 C   0  0  0  0  0  0  0  0  0  0  0  0
  -13.6074    2.6686   28.4351 C   0  0  0  0  0  0  0  0  0  0  0  0
  -12.5575    2.8430   29.5387 C   0  0  0  0  0  0  0  0  0  0  0  0
  -15.8471    2.2930   27.9240 C   0  0  0  0  0  0  0  0  0  0  0  0
  -14.9317    2.5086   28.8849 C   0  0  0  0  0  0  0  0  0  0  0  0
  -11.4807    3.6301   29.0708 C   0  0  0  0  0  0  0  0  0  0  0  0
  -10.8178    3.0642   27.8137 C   0  0  0  0  0  0  0  0  0  0  0  0
  1  7  1  0
  3  8  1  0
  5  9  1  0
  9 10  1  0
 15 16  1  0
 17 18  2  0
 18 19  1  0
 19 22  2  0
 22 23  1  0
 23 20  2  0
 16 17  1  0
 17 20  1  0
 20 21  1  0
 21 24  2  0
 24 25  1  0
 25 16  2  0
  1  2  2  0
  2  4  1  0
  4  6  2  0
  6  5  1  0
  5  3  2  0
  3  1  1  0
 10 11  2  0
 11 12  1  0
 12 13  2  0
 13 14  1  0
 14 15  2  0
 15 10  1  0
M  END
$$$$
