No_2624-complexes_sdf/6BKW-FPZ/2024-09-17-14-21-01/
     RDKit          3D

 28 32  0  0  0  0  0  0  0  0999 V2000
   -7.7129    4.2099   27.0854 C   0  0  0  0  0  0  0  0  0  0  0  0
   -7.7814    5.1722   27.8972 C   0  0  0  0  0  0  0  0  0  0  0  0
   -8.7889    3.2468   27.2220 C   0  0  0  0  0  0  0  0  0  0  0  0
   -8.7402    2.0341   26.3990 C   0  0  0  0  0  0  0  0  0  0  0  0
   -8.9904    5.4233   28.4524 N   0  0  0  0  0  0  0  0  0  0  0  0
   -9.7774    4.3403   28.2109 C   0  0  0  0  0  0  0  0  0  0  0  0
   -8.0567    0.9450   26.8716 C   0  0  0  0  0  0  0  0  0  0  0  0
   -8.0762   -0.2480   26.2058 C   0  0  0  0  0  0  0  0  0  0  0  0
   -9.4845    2.0099   25.2878 C   0  0  0  0  0  0  0  0  0  0  0  0
   -9.5006    0.8450   24.5214 C   0  0  0  0  0  0  0  0  0  0  0  0
   -8.7926   -0.2592   24.9930 C   0  0  0  0  0  0  0  0  0  0  0  0
  -11.0459    3.9148   28.4661 C   0  0  0  0  0  0  0  0  0  0  0  0
  -12.1469    4.5148   28.0891 C   0  0  0  0  0  0  0  0  0  0  0  0
  -13.4599    4.1811   28.4556 C   0  0  0  0  0  0  0  0  0  0  0  0
  -13.5741    3.1378   29.3979 C   0  0  0  0  0  0  0  0  0  0  0  0
  -12.4854    2.4336   29.8384 C   0  0  0  0  0  0  0  0  0  0  0  0
  -11.1873    2.7913   29.4020 C   0  0  0  0  0  0  0  0  0  0  0  0
   -8.8606   -1.5182   24.1758 C   0  0  0  0  0  0  0  0  0  0  0  0
   -9.1731   -1.5282   23.0722 C   0  0  0  0  0  0  0  0  0  0  0  0
   -9.4409   -0.7907   22.3663 C   0  0  0  0  0  0  0  0  0  0  0  0
   -9.7311    0.6710   23.0351 C   0  0  0  0  0  0  0  0  0  0  0  0
  -10.2456    1.8307   22.2516 C   0  0  0  0  0  0  0  0  0  0  0  0
  -10.8990    1.6940   21.1280 C   0  0  0  0  0  0  0  0  0  0  0  0
  -11.3190    2.8156   20.3605 C   0  0  0  0  0  0  0  0  0  0  0  0
  -10.9823    4.1308   20.7984 C   0  0  0  0  0  0  0  0  0  0  0  0
  -10.3433    4.2572   22.0309 C   0  0  0  0  0  0  0  0  0  0  0  0
   -9.9762    3.2104   22.7427 C   0  0  0  0  0  0  0  0  0  0  0  0
  -15.1773    2.7219   29.9039 Cl  0  0  0  0  0  0  0  0  0  0  0  0
  1  2  1  0
  1  3  2  0
  3  4  1  0
  2  5  2  0
  3  6  1  0
  5  6  1  0
  6 12  1  0
 21 22  1  0
 15 28  1  0
 12 13  2  0
 13 14  1  0
 14 15  2  0
 15 16  1  0
 16 17  2  0
 17 12  1  0
  4  7  2  0
  7  8  1  0
  8 11  2  0
 10  9  2  0
  9  4  1  0
 22 23  2  0
 23 24  1  0
 24 25  2  0
 25 26  1  0
 26 27  2  0
 27 22  1  0
 10 11  1  0
 11 18  1  0
 18 19  2  0
 19 20  1  0
 20 21  2  0
 21 10  1  0
M  END
$$$$
