No_2908-complexes_sdf/6BKW-FPZ/2024-09-17-14-21-01/
     RDKit          3D

 22 25  0  0  0  0  0  0  0  0999 V2000
   -7.9040    3.9820   27.1177 C   0  0  0  0  0  0  0  0  0  0  0  0
   -9.0711    4.3164   27.0630 C   0  0  2  0  0  0  0  0  0  0  0  0
   -9.8698    3.9665   25.9494 C   0  0  2  0  0  0  0  0  0  0  0  0
   -6.9515    4.6878   28.0207 C   0  0  1  0  0  0  0  0  0  0  0  0
  -11.1591    3.4833   26.0876 C   0  0  0  0  0  0  0  0  0  0  0  0
  -11.8345    3.1513   24.9888 C   0  0  0  0  0  0  0  0  0  0  0  0
  -11.2556    2.8168   24.0110 C   0  0  2  0  0  0  0  0  0  0  0  0
   -9.9618    3.4458   23.6277 C   0  0  0  0  0  0  0  0  0  0  0  0
   -9.0968    3.4857   24.7754 C   0  0  0  0  0  0  0  0  0  0  0  0
   -7.3556    5.6339   28.5627 N   0  0  0  0  0  0  0  0  0  0  0  0
   -9.4142    5.5197   27.8572 C   0  0  0  0  0  0  0  0  0  0  0  0
   -8.5870    6.1999   28.5201 C   0  0  0  0  0  0  0  0  0  0  0  0
   -5.7940    3.9765   28.0937 N   0  0  0  0  0  0  0  0  0  0  0  0
  -12.1005    2.8702   22.5919 C   0  0  0  0  0  0  0  0  0  0  0  0
  -10.9449    1.3766   23.8461 C   0  0  0  0  0  0  0  0  0  0  0  0
  -11.2180    0.7140   22.9079 C   0  0  0  0  0  0  0  0  0  0  0  0
  -11.9872    1.8424   21.7850 C   0  0  0  0  0  0  0  0  0  0  0  0
  -13.3201    3.3289   25.0432 C   0  0  0  0  0  0  0  0  0  0  0  0
  -13.8153    3.5488   26.3659 C   0  0  0  0  0  0  0  0  0  0  0  0
  -11.7840    3.6972   27.4225 C   0  0  0  0  0  0  0  0  0  0  0  0
  -13.1194    3.8545   27.4674 C   0  0  0  0  0  0  0  0  0  0  0  0
  -11.8746    4.1944   21.8820 C   0  0  0  0  0  0  0  0  0  0  0  0
  2  1  1  6
  2  3  1  0
  1  4  1  0
  3  5  1  0
  6  7  1  0
  7  8  1  6
  3  9  1  1
  8  9  1  0
  4 10  1  0
  2 11  1  0
 10 12  1  0
 11 12  1  0
  4 13  1  1
  7 14  1  0
  7 15  1  0
 15 16  2  0
 14 17  2  0
 16 17  1  0
 14 22  1  0
  5  6  2  0
  6 18  1  0
 18 19  2  0
 19 21  1  0
 21 20  2  0
 20  5  1  0
M  END
$$$$
