No_2048-complexes_sdf/6BKW-FPZ/2024-09-17-14-21-01/
     RDKit          3D

 13 14  0  0  0  0  0  0  0  0999 V2000
   -7.2496    3.8871   27.4508 C   0  0  0  0  0  0  0  0  0  0  0  0
   -7.9379    4.9063   27.8518 C   0  0  0  0  0  0  0  0  0  0  0  0
   -7.5112    6.1898   27.6280 C   0  0  0  0  0  0  0  0  0  0  0  0
   -9.3085    4.6933   28.2930 C   0  0  0  0  0  0  0  0  0  0  0  0
   -7.7804    2.5137   27.6845 C   0  0  0  0  0  0  0  0  0  0  0  0
   -7.0499    1.4112   27.1570 C   0  0  0  0  0  0  0  0  0  0  0  0
   -7.7147    0.4723   26.3729 C   0  0  0  0  0  0  0  0  0  0  0  0
   -7.2079   -0.6859   26.1508 C   0  0  0  0  0  0  0  0  0  0  0  0
   -9.9018    3.4489   28.4165 C   0  0  0  0  0  0  0  0  0  0  0  0
   -9.1061    2.4052   27.9959 C   0  0  0  0  0  0  0  0  0  0  0  0
   -6.3059   -0.9822   26.5538 C   0  0  0  0  0  0  0  0  0  0  0  0
   -5.3118   -0.2190   27.3100 C   0  0  0  0  0  0  0  0  0  0  0  0
   -5.8201    1.0060   27.7558 C   0  0  0  0  0  0  0  0  0  0  0  0
  2  3  1  0
  5  6  1  0
  1  2  2  0
  2  4  1  0
  4  9  2  0
  9 10  1  0
 10  5  2  0
  5  1  1  0
  6  7  2  0
  7  8  1  0
  8 11  2  0
 11 12  1  0
 12 13  2  0
 13  6  1  0
M  END
$$$$
