No_2496-complexes_sdf/6BKW-FPZ/2024-09-17-14-21-01/
     RDKit          3D

 12 12  0  0  0  0  0  0  0  0999 V2000
   -7.7129    4.2099   27.0854 C   0  0  0  0  0  0  0  0  0  0  0  0
   -8.2112    3.0637   26.9225 C   0  0  0  0  0  0  0  0  0  0  0  0
   -8.4224    5.2106   27.8516 C   0  0  0  0  0  0  0  0  0  0  0  0
   -9.5628    2.7160   27.4089 C   0  0  0  0  0  0  0  0  0  0  0  0
  -10.2428    3.7496   28.1155 C   0  0  0  0  0  0  0  0  0  0  0  0
   -9.6677    4.9738   28.3232 C   0  0  0  0  0  0  0  0  0  0  0  0
   -7.8012    6.3713   28.0255 F   0  0  0  0  0  0  0  0  0  0  0  0
  -10.1131    1.3955   27.2092 C   0  0  0  0  0  0  0  0  0  0  0  0
  -10.8434    1.2104   26.2440 N   0  0  0  0  0  0  0  0  0  0  0  0
  -11.3516    0.1882   25.8197 C   0  0  0  0  0  0  0  0  0  0  0  0
  -12.1482    0.1002   24.6815 C   0  0  0  0  0  0  0  0  0  0  0  0
  -12.6985   -0.9220   24.1398 C   0  0  0  0  0  0  0  0  0  0  0  0
  3  7  1  0
  4  8  1  0
  8  9  1  0
  9 10  1  0
 10 11  2  3
 11 12  1  0
  1  2  2  0
  2  4  1  0
  4  5  2  0
  5  6  1  0
  6  3  2  0
  3  1  1  0
M  END
$$$$
