No_2538-complexes_sdf/6BKW-FPZ/2024-09-17-14-21-01/
     RDKit          3D

 16 17  0  0  0  0  0  0  0  0999 V2000
   -7.7129    4.2099   27.0854 C   0  0  0  0  0  0  0  0  0  0  0  0
   -8.2112    3.0637   26.9225 C   0  0  0  0  0  0  0  0  0  0  0  0
   -9.4446    2.8304   26.1868 C   0  0  0  0  0  0  0  0  0  0  0  0
   -8.4697    5.3956   26.7238 C   0  0  0  0  0  0  0  0  0  0  0  0
   -8.0091    6.7588   26.9904 C   0  0  0  0  0  0  0  0  0  0  0  0
  -10.1208    3.9213   25.7408 C   0  0  0  0  0  0  0  0  0  0  0  0
   -9.5939    5.2027   25.9665 C   0  0  0  0  0  0  0  0  0  0  0  0
   -8.6060    7.8403   26.5809 N   0  0  0  0  0  0  0  0  0  0  0  0
   -6.8668    6.7795   27.6686 O   0  0  0  0  0  0  0  0  0  0  0  0
   -7.5406    1.9390   27.3695 F   0  0  0  0  0  0  0  0  0  0  0  0
  -11.3242    3.7897   24.9512 C   0  0  0  0  0  0  0  0  0  0  0  0
  -11.2785    4.0522   23.5849 C   0  0  0  0  0  0  0  0  0  0  0  0
  -12.3744    4.1754   22.7891 C   0  0  0  0  0  0  0  0  0  0  0  0
  -12.4175    3.0950   25.3400 C   0  0  0  0  0  0  0  0  0  0  0  0
  -13.6140    3.1462   24.6347 C   0  0  0  0  0  0  0  0  0  0  0  0
  -13.5618    3.6654   23.3230 C   0  0  0  0  0  0  0  0  0  0  0  0
  4  5  1  0
  5  8  1  0
  5  9  2  0
  2 10  1  0
  6 11  1  0
  1  2  2  0
  2  3  1  0
  3  6  2  0
  6  7  1  0
  7  4  2  0
  4  1  1  0
 11 12  2  0
 12 13  1  0
 13 16  2  0
 16 15  1  0
 15 14  2  0
 14 11  1  0
M  END
$$$$
