No_2729-complexes_sdf/6BKW-FPZ/2024-09-17-14-21-01/
     RDKit          3D

 15 17  0  0  0  0  0  0  0  0999 V2000
   -7.9040    3.9820   27.1177 C   0  0  0  0  0  0  0  0  0  0  0  0
   -9.0711    4.3164   27.0630 C   0  0  0  0  0  0  0  0  0  0  0  0
   -9.8698    3.9665   25.9494 C   0  0  0  0  0  0  0  0  0  0  0  0
   -7.4046    2.7946   26.4568 C   0  0  0  0  0  0  0  0  0  0  0  0
   -8.3659    2.1310   25.6816 C   0  0  0  0  0  0  0  0  0  0  0  0
   -9.5390    2.7825   25.4030 C   0  0  0  0  0  0  0  0  0  0  0  0
   -7.0337    4.5113   28.0309 F   0  0  0  0  0  0  0  0  0  0  0  0
  -10.4614    2.1682   24.3762 C   0  0  0  0  0  0  0  0  0  0  0  0
  -10.1487    1.1763   23.7597 C   0  0  0  0  0  0  0  0  0  0  0  0
  -10.9785    0.5795   22.7391 C   0  0  0  0  0  0  0  0  0  0  0  0
  -10.5948   -0.5982   22.0133 C   0  0  0  0  0  0  0  0  0  0  0  0
   -9.3024   -1.1402   22.2452 C   0  0  0  0  0  0  0  0  0  0  0  0
   -8.4271   -0.5897   23.1000 C   0  0  0  0  0  0  0  0  0  0  0  0
   -8.7857    0.5838   23.8079 C   0  0  0  0  0  0  0  0  0  0  0  0
   -7.9687    1.0215   24.9257 N   0  0  0  0  0  0  0  0  0  0  0  0
  1  7  1  0
  6  8  1  0
  8  9  2  0
 14 15  2  0
 15  5  1  0
  1  2  2  0
  2  3  1  0
  3  6  2  0
  6  5  1  0
  5  4  2  0
  4  1  1  0
  9 10  1  0
 10 11  2  0
 11 12  1  0
 12 13  2  0
 13 14  1  0
 14  9  1  0
M  END
$$$$
