No_2616-complexes_sdf/6BKW-FPZ/2024-09-17-14-21-01/
     RDKit          3D

 30 34  0  0  0  0  0  0  0  0999 V2000
   -7.7129    4.2099   27.0854 C   0  0  0  0  0  0  0  0  0  0  0  0
   -8.2112    3.0637   26.9225 C   0  0  0  0  0  0  0  0  0  0  0  0
   -7.5138    1.9223   27.4249 C   0  0  0  0  0  0  0  0  0  0  0  0
   -6.5434    4.4363   27.9024 C   0  0  0  0  0  0  0  0  0  0  0  0
   -6.2005    2.1121   27.9323 C   0  0  0  0  0  0  0  0  0  0  0  0
   -5.7560    3.3924   28.1795 C   0  0  0  0  0  0  0  0  0  0  0  0
   -8.5326    5.4191   26.7935 C   0  0  0  0  0  0  0  0  0  0  0  0
   -8.3082    6.6032   27.3246 N   0  0  0  0  0  0  0  0  0  0  0  0
   -9.4108    5.3731   25.7877 N   0  0  0  0  0  0  0  0  0  0  0  0
   -5.4104    0.9205   28.3296 C   0  0  0  0  0  0  0  0  0  0  0  0
   -5.8550   -0.3981   28.1601 C   0  0  0  0  0  0  0  0  0  0  0  0
   -4.9368   -1.3830   28.3241 C   0  0  0  0  0  0  0  0  0  0  0  0
   -3.6309   -1.1273   28.8304 C   0  0  0  0  0  0  0  0  0  0  0  0
   -3.2029    0.1561   28.9673 C   0  0  0  0  0  0  0  0  0  0  0  0
   -4.0134    1.1909   28.7135 C   0  0  0  0  0  0  0  0  0  0  0  0
   -9.8701    4.1924   25.3220 C   0  0  0  0  0  0  0  0  0  0  0  0
   -9.6302    3.1544   25.6921 C   0  0  0  0  0  0  0  0  0  0  0  0
  -10.9465    4.2654   24.3161 C   0  0  0  0  0  0  0  0  0  0  0  0
  -11.9699    4.3496   24.1861 C   0  0  0  0  0  0  0  0  0  0  0  0
  -12.8486    4.3895   23.0145 C   0  0  0  0  0  0  0  0  0  0  0  0
  -12.0940    4.5398   21.8600 C   0  0  0  0  0  0  0  0  0  0  0  0
  -10.4176    4.4581   22.7498 C   0  0  0  0  0  0  0  0  0  0  0  0
  -14.2813    4.3864   22.9058 C   0  0  1  0  0  0  0  0  0  0  0  0
  -14.8264    3.1990   23.1454 C   0  0  0  0  0  0  0  0  0  0  0  0
  -16.1890    3.1409   23.2131 C   0  0  0  0  0  0  0  0  0  0  0  0
  -16.8781    1.9045   23.5199 C   0  0  0  0  0  0  0  0  0  0  0  0
  -16.0763    0.7848   23.6537 C   0  0  0  0  0  0  0  0  0  0  0  0
  -14.7294    0.8287   23.5564 C   0  0  0  0  0  0  0  0  0  0  0  0
  -14.0739    2.0286   23.3482 C   0  0  0  0  0  0  0  0  0  0  0  0
  -14.9243    5.6296   22.6395 C   0  0  0  0  0  0  0  0  0  0  0  0
  5 10  1  0
 16 18  1  0
 18 19  2  0
 19 20  1  0
 20 21  2  0
 18 22  1  0
 21 22  1  0
 20 23  1  0
 23 24  1  0
 23 30  1  1
  8  7  1  0
 24 25  2  0
 25 26  1  0
 26 27  2  0
 27 28  1  0
 28 29  2  0
 29 24  1  0
  2  3  2  0
  3  5  1  0
  5  6  2  0
  6  4  1  0
  4  1  2  0
 10 11  2  0
 11 12  1  0
 12 13  2  0
 13 14  1  0
 14 15  2  0
 15 10  1  0
  1  2  1  0
  2 17  1  0
 17 16  2  0
 16  9  1  0
  9  7  2  0
  7  1  1  0
M  END
$$$$
