No_2103-complexes_sdf/6BKW-FPZ/2024-09-17-14-21-01/
     RDKit          3D

 10 10  0  0  0  0  0  0  0  0999 V2000
   -7.9040    3.9820   27.1177 C   0  0  0  0  0  0  0  0  0  0  0  0
   -8.2057    2.8231   26.8733 C   0  0  0  0  0  0  0  0  0  0  0  0
   -8.7463    4.9537   27.6708 C   0  0  0  0  0  0  0  0  0  0  0  0
   -8.3921    6.3606   27.8466 C   0  0  0  0  0  0  0  0  0  0  0  0
   -7.2888    1.7783   26.5516 C   0  0  0  0  0  0  0  0  0  0  0  0
   -9.5721    2.3828   27.1214 C   0  0  0  0  0  0  0  0  0  0  0  0
  -10.5319    3.2595   27.6416 C   0  0  0  0  0  0  0  0  0  0  0  0
  -10.1280    4.6031   27.9329 C   0  0  0  0  0  0  0  0  0  0  0  0
   -7.2294    0.7525   27.2544 O   0  0  0  0  0  0  0  0  0  0  0  0
   -7.0644    6.6478   27.3798 C   0  0  0  0  0  0  0  0  0  0  0  0
  3  4  1  0
  5  9  1  0
  4 10  1  0
  5  2  1  0
  1  2  2  0
  2  6  1  0
  6  7  2  0
  7  8  1  0
  8  3  2  0
  3  1  1  0
M  END
$$$$
