No_2114-complexes_sdf/6BKW-FPZ/2024-09-17-14-21-01/
     RDKit          3D

 24 26  0  0  0  0  0  0  0  0999 V2000
   -7.9040    3.9820   27.1177 C   0  0  0  0  0  0  0  0  0  0  0  0
   -8.2057    2.8231   26.8733 C   0  0  0  0  0  0  0  0  0  0  0  0
   -9.2962    2.4021   26.1155 C   0  0  0  0  0  0  0  0  0  0  0  0
   -8.7358    5.0662   26.5917 C   0  0  0  0  0  0  0  0  0  0  0  0
   -9.7618    4.7023   25.7546 C   0  0  0  0  0  0  0  0  0  0  0  0
  -10.0066    3.4105   25.4922 C   0  0  0  0  0  0  0  0  0  0  0  0
   -8.3943    6.4760   26.8801 C   0  0  0  0  0  0  0  0  0  0  0  0
   -8.5947    7.4080   26.1130 N   0  0  0  0  0  0  0  0  0  0  0  0
   -7.4078    6.5630   27.7887 O   0  0  0  0  0  0  0  0  0  0  0  0
   -7.5618    1.5088   27.3826 C   0  0  0  0  0  0  0  0  0  0  0  0
   -8.0628    0.2861   27.3457 C   0  0  0  0  0  0  0  0  0  0  0  0
   -9.2416    0.1292   26.5527 C   0  0  0  0  0  0  0  0  0  0  0  0
   -9.8215    1.1035   25.9267 C   0  0  0  0  0  0  0  0  0  0  0  0
   -7.3498   -0.8084   27.9973 C   0  0  0  0  0  0  0  0  0  0  0  0
   -6.0569   -0.6825   28.3924 C   0  0  0  0  0  0  0  0  0  0  0  0
   -5.3699   -1.6719   29.1378 C   0  0  0  0  0  0  0  0  0  0  0  0
   -6.0722   -2.8286   29.4272 C   0  0  0  0  0  0  0  0  0  0  0  0
   -7.9523   -1.9804   28.4253 C   0  0  0  0  0  0  0  0  0  0  0  0
   -7.3888   -2.9295   29.1540 C   0  0  0  0  0  0  0  0  0  0  0  0
   -3.9272   -1.4565   29.4494 C   0  0  0  0  0  0  0  0  0  0  0  0
   -3.0108   -1.5754   28.6653 C   0  0  0  0  0  0  0  0  0  0  0  0
   -2.7724   -1.2774   27.7143 C   0  0  0  0  0  0  0  0  0  0  0  0
   -2.1541   -1.0137   26.8385 C   0  0  0  0  0  0  0  0  0  0  0  0
   -1.5674   -0.7526   26.0308 Cl  0  0  0  0  0  0  0  0  0  0  0  0
  4  7  1  0
  7  8  1  0
  7  9  2  0
 11 14  1  0
 16 20  1  0
 20 21  1  0
 21 22  2  3
 22 23  1  0
 23 24  1  0
 14 15  2  0
 15 16  1  0
 16 17  2  0
 17 19  1  0
 19 18  2  0
 18 14  1  0
  1  2  2  0
  3  6  2  0
  6  5  1  0
  5  4  2  0
  4  1  1  0
  2  3  1  0
  3 13  1  0
 13 12  2  0
 12 11  1  0
 11 10  2  0
 10  2  1  0
M  END
$$$$
