No_2829-complexes_sdf/6BKW-FPZ/2024-09-17-14-21-01/
     RDKit          3D

 32 34  0  0  0  0  0  0  0  0999 V2000
   -7.2496    3.8871   27.4508 C   0  0  0  0  0  0  0  0  0  0  0  0
   -7.9379    4.9063   27.8518 C   0  0  0  0  0  0  0  0  0  0  0  0
   -8.9501    5.3664   27.1340 C   0  0  0  0  0  0  0  0  0  0  0  0
   -7.8297    2.9727   26.4637 C   0  0  0  0  0  0  0  0  0  0  0  0
   -9.6373    4.6098   26.1956 C   0  0  0  0  0  0  0  0  0  0  0  0
   -9.0235    3.4546   25.8531 C   0  0  0  0  0  0  0  0  0  0  0  0
   -9.6280    2.5544   24.8729 C   0  0  0  0  0  0  0  0  0  0  0  0
  -10.3598    3.1203   23.8536 C   0  0  0  0  0  0  0  0  0  0  0  0
  -10.7212    2.3716   22.7118 C   0  0  0  0  0  0  0  0  0  0  0  0
  -10.2453    1.0068   22.6415 C   0  0  0  0  0  0  0  0  0  0  0  0
   -9.1337    1.2584   24.5862 C   0  0  0  0  0  0  0  0  0  0  0  0
   -9.4258    0.5348   23.5889 C   0  0  0  0  0  0  0  0  0  0  0  0
   -6.1371    3.3787   28.0605 O   0  0  0  0  0  0  0  0  0  0  0  0
  -10.6506    0.2503   21.3917 C   0  0  0  0  0  0  0  0  0  0  0  0
  -11.7940    0.6912   20.4528 P   0  0  1  0  0  0  0  0  0  0  0  0
  -11.6783    1.9203   20.0367 O   0  0  0  0  0  0  0  0  0  0  0  0
  -11.8444   -0.2360   19.1979 O   0  0  0  0  0  0  0  0  0  0  0  0
  -13.1219    0.4363   21.2074 O   0  0  0  0  0  0  0  0  0  0  0  0
  -12.8539   -0.8909   18.6706 C   0  0  0  0  0  0  0  0  0  0  0  0
  -12.4382   -1.7065   17.6483 C   0  0  0  0  0  0  0  0  0  0  0  0
  -11.0897   -2.0035   17.4243 C   0  0  0  0  0  0  0  0  0  0  0  0
  -10.5271   -1.1981   16.8718 O   0  0  0  0  0  0  0  0  0  0  0  0
  -10.5847   -3.1269   17.7146 O   0  0  0  0  0  0  0  0  0  0  0  0
   -5.6222    2.1772   27.8049 C   0  0  0  0  0  0  0  0  0  0  0  0
   -6.3071    0.9978   27.8851 C   0  0  0  0  0  0  0  0  0  0  0  0
   -5.6179   -0.2133   27.8552 C   0  0  0  0  0  0  0  0  0  0  0  0
   -4.2229   -0.1876   27.9981 C   0  0  0  0  0  0  0  0  0  0  0  0
   -3.5089    0.9821   28.0101 C   0  0  0  0  0  0  0  0  0  0  0  0
   -4.2008    2.1115   27.9866 C   0  0  0  0  0  0  0  0  0  0  0  0
   -6.3951   -1.4770   27.8075 C   0  0  0  0  0  0  0  0  0  0  0  0
   -6.1001   -2.4442   27.5703 C   0  0  0  0  0  0  0  0  0  0  0  0
   -6.9480   -3.6623   27.4619 C   0  0  0  0  0  0  0  0  0  0  0  0
  6  7  1  0
  1 13  1  0
 10 14  1  0
 14 15  1  0
 15 16  2  0
 15 17  1  0
 15 18  1  1
 17 19  1  0
 19 20  1  0
 20 21  1  0
 21 22  2  0
 21 23  1  0
 13 24  1  0
 26 30  1  0
 30 31  2  3
 31 32  1  0
  7  8  2  0
  8  9  1  0
  9 10  2  0
 10 12  1  0
 12 11  2  0
 11  7  1  0
 24 25  2  0
 25 26  1  0
 26 27  2  0
 27 28  1  0
 28 29  2  0
 29 24  1  0
  1  2  2  0
  2  3  1  0
  3  5  2  0
  5  6  1  0
  6  4  2  0
  4  1  1  0
M  END
$$$$
