No_2368-complexes_sdf/6BKW-FPZ/2024-09-17-14-21-01/
     RDKit          3D

 32 36  0  0  0  0  0  0  0  0999 V2000
   -7.7129    4.2099   27.0854 C   0  0  0  0  0  0  0  0  0  0  0  0
   -8.2112    3.0637   26.9225 C   0  0  0  0  0  0  0  0  0  0  0  0
   -8.5108    5.3904   26.9436 C   0  0  0  0  0  0  0  0  0  0  0  0
   -9.7256    5.1955   26.3518 C   0  0  0  0  0  0  0  0  0  0  0  0
   -9.4995    2.8258   26.4878 C   0  0  0  0  0  0  0  0  0  0  0  0
  -10.2542    3.9691   26.2055 C   0  0  0  0  0  0  0  0  0  0  0  0
   -8.1149    6.7578   27.2504 C   0  0  0  0  0  0  0  0  0  0  0  0
   -7.1909    1.6515   27.3200 Cl  0  0  0  0  0  0  0  0  0  0  0  0
   -8.0982    7.7473   26.6085 N   0  0  0  0  0  0  0  0  0  0  0  0
   -7.2434    6.6558   28.2839 F   0  0  0  0  0  0  0  0  0  0  0  0
   -9.9565    1.4349   26.2525 C   0  0  0  0  0  0  0  0  0  0  0  0
   -9.7088    0.8000   25.1022 C   0  0  0  0  0  0  0  0  0  0  0  0
   -9.1298    1.5442   23.9841 C   0  0  0  0  0  0  0  0  0  0  0  0
   -8.8907    0.9700   22.7363 C   0  0  0  0  0  0  0  0  0  0  0  0
   -9.1345   -0.3861   22.5412 C   0  0  0  0  0  0  0  0  0  0  0  0
   -9.7027   -1.1445   23.5834 C   0  0  0  0  0  0  0  0  0  0  0  0
   -9.9299   -0.5514   24.7836 C   0  0  0  0  0  0  0  0  0  0  0  0
  -10.6650    0.8358   27.3413 C   0  0  0  0  0  0  0  0  0  0  0  0
  -11.9033    0.9046   27.4030 C   0  0  0  0  0  0  0  0  0  0  0  0
  -12.6871    0.1771   28.4049 C   0  0  0  0  0  0  0  0  0  0  0  0
  -11.9367   -0.7981   29.1292 C   0  0  0  0  0  0  0  0  0  0  0  0
  -10.5932   -1.0116   28.9304 C   0  0  0  0  0  0  0  0  0  0  0  0
   -9.8889   -0.2256   28.0156 C   0  0  0  0  0  0  0  0  0  0  0  0
  -14.0805    0.3898   28.7129 C   0  0  0  0  0  0  0  0  0  0  0  0
  -14.5828    1.5916   28.7567 C   0  0  0  0  0  0  0  0  0  0  0  0
  -13.7025    2.7141   28.8275 C   0  0  0  0  0  0  0  0  0  0  0  0
  -14.2937    4.0916   28.9125 C   0  0  0  0  0  0  0  0  0  0  0  0
  -13.3833    5.1928   28.9788 C   0  0  0  0  0  0  0  0  0  0  0  0
  -12.0593    4.9319   28.4656 C   0  0  0  0  0  0  0  0  0  0  0  0
  -11.4918    3.7092   28.5735 C   0  0  0  0  0  0  0  0  0  0  0  0
  -12.3599    2.6374   28.6335 C   0  0  0  0  0  0  0  0  0  0  0  0
  -11.7711    1.5579   28.4040 O   0  0  0  0  0  0  0  0  0  0  0  0
  3  7  1  0
  2  8  1  0
  7  9  2  0
  7 10  1  0
  5 11  1  0
 11 18  1  0
 20 24  1  0
 24 25  2  0
 25 26  1  0
 19 32  1  0
 31 32  1  0
 11 12  1  0
 12 13  2  0
 13 14  1  0
 14 15  2  0
 15 16  1  0
 16 17  2  0
 17 12  1  0
 18 19  2  0
 19 20  1  0
 20 21  2  0
 21 22  1  0
 22 23  2  0
 23 18  1  0
  1  2  2  0
  2  5  1  0
  5  6  2  0
  6  4  1  0
  4  3  2  0
  3  1  1  0
 26 27  2  0
 27 28  1  0
 28 29  2  0
 29 30  1  0
 30 31  2  0
 31 26  1  0
M  END
$$$$
