No_249-complexes_sdf/6BKW-FPZ/2024-09-17-14-21-01/
     RDKit          3D

 26 28  0  0  0  0  0  0  0  0999 V2000
   -7.9040    3.9820   27.1177 C   0  0  0  0  0  0  0  0  0  0  0  0
   -9.0711    4.3164   27.0630 C   0  0  0  0  0  0  0  0  0  0  0  0
   -9.8698    3.9665   25.9495 C   0  0  0  0  0  0  0  0  0  0  0  0
   -7.0332    4.5030   28.2025 C   0  0  0  0  0  0  0  0  0  0  0  0
  -10.9909    4.7237   25.5958 C   0  0  0  0  0  0  0  0  0  0  0  0
   -7.5386    5.7151   28.6288 C   0  0  0  0  0  0  0  0  0  0  0  0
  -11.6571    5.1671   26.7412 C   0  0  0  0  0  0  0  0  0  0  0  0
  -11.1065    5.1941   28.0356 C   0  0  0  0  0  0  0  0  0  0  0  0
   -9.7805    4.8797   28.1728 C   0  0  0  0  0  0  0  0  0  0  0  0
   -8.9799    5.7617   28.7929 C   0  0  0  0  0  0  0  0  0  0  0  0
   -9.1881    3.4115   24.9211 F   0  0  0  0  0  0  0  0  0  0  0  0
   -5.7287    4.2557   28.1225 O   0  0  0  0  0  0  0  0  0  0  0  0
  -11.6866    4.3456   24.3645 C   0  0  0  0  0  0  0  0  0  0  0  0
  -10.9908    4.5261   23.1806 C   0  0  0  0  0  0  0  0  0  0  0  0
  -11.5628    4.3872   21.9042 C   0  0  0  0  0  0  0  0  0  0  0  0
  -12.9218    4.1379   21.8575 C   0  0  0  0  0  0  0  0  0  0  0  0
  -13.6416    4.0368   23.0615 C   0  0  0  0  0  0  0  0  0  0  0  0
  -13.0472    4.2029   24.3000 C   0  0  0  0  0  0  0  0  0  0  0  0
  -13.5325    3.9755   20.5476 C   0  0  0  0  0  0  0  0  0  0  0  0
  -13.7178    2.6592   20.1532 C   0  0  0  0  0  0  0  0  0  0  0  0
  -13.4403    1.6543   20.5229 C   0  0  0  0  0  0  0  0  0  0  0  0
  -12.7979    1.5339   21.7161 C   0  0  0  0  0  0  0  0  0  0  0  0
  -12.1365    0.5695   22.2625 C   0  0  0  0  0  0  0  0  0  0  0  0
  -11.4966    0.5721   23.5673 C   0  0  0  0  0  0  0  0  0  0  0  0
  -11.4158    0.1868   24.5205 C   0  0  0  0  0  0  0  0  0  0  0  0
  -10.5587    0.6329   25.5884 C   0  0  0  0  0  0  0  0  0  0  0  0
  3 11  1  0
  4 12  1  0
  5 13  1  0
 16 19  1  0
 19 20  1  0
 20 21  1  0
 21 22  2  3
 22 23  1  0
 23 24  2  3
 24 25  1  0
 25 26  2  0
  2  3  1  0
  3  5  2  0
  5  7  1  0
  7  8  2  0
  8  9  1  0
 13 14  2  0
 14 15  1  0
 15 16  2  0
 16 17  1  0
 17 18  2  0
 18 13  1  0
  1  2  2  0
  2  9  1  0
  9 10  2  0
 10  6  1  0
  6  4  2  0
  4  1  1  0
M  END
$$$$
