No_2411-complexes_sdf/6BKW-FPZ/2024-09-17-14-21-01/
     RDKit          3D

 18 19  0  0  0  0  0  0  0  0999 V2000
   -7.7129    4.2099   27.0854 C   0  0  0  0  0  0  0  0  0  0  0  0
   -8.9133    4.4736   27.0998 C   0  0  0  0  0  0  0  0  0  0  0  0
   -9.7937    3.7367   26.2091 C   0  0  0  0  0  0  0  0  0  0  0  0
   -6.8266    5.0441   28.0594 C   0  0  0  0  0  0  0  0  0  0  0  0
   -9.2322    2.6276   25.6126 C   0  0  0  0  0  0  0  0  0  0  0  0
   -7.9794    2.1924   25.9863 C   0  0  0  0  0  0  0  0  0  0  0  0
   -7.2411    2.9387   26.9009 C   0  0  0  0  0  0  0  0  0  0  0  0
  -10.0894    1.7793   24.7540 C   0  0  1  0  0  0  0  0  0  0  0  0
  -10.0282    2.1971   23.3715 C   0  0  0  0  0  0  0  0  0  0  0  0
  -10.3926    1.2830   22.3578 C   0  0  0  0  0  0  0  0  0  0  0  0
  -10.3106    1.6859   21.0032 C   0  0  0  0  0  0  0  0  0  0  0  0
   -9.9785    3.0395   20.7056 C   0  0  0  0  0  0  0  0  0  0  0  0
   -9.8573    3.9760   21.7326 C   0  0  0  0  0  0  0  0  0  0  0  0
   -9.9130    3.5973   23.0296 C   0  0  0  0  0  0  0  0  0  0  0  0
   -9.5427    0.3232   24.8122 C   0  0  0  0  0  0  0  0  0  0  0  0
  -11.5584    1.8662   25.2019 C   0  0  0  0  0  0  0  0  0  0  0  0
  -11.9182    1.4022   26.3622 C   0  0  0  0  0  0  0  0  0  0  0  0
  -13.2241    1.5298   26.8750 C   0  0  0  0  0  0  0  0  0  0  0  0
  1  4  1  0
  5  8  1  0
  8  9  1  0
  8 15  1  6
  8 16  1  0
 16 17  2  3
 17 18  1  0
  9 10  2  0
 10 11  1  0
 11 12  2  0
 12 13  1  0
 13 14  2  0
 14  9  1  0
  1  2  2  0
  2  3  1  0
  3  5  2  0
  5  6  1  0
  6  7  2  0
  7  1  1  0
M  END
$$$$
