No_2675-complexes_sdf/6BKW-FPZ/2024-09-17-14-21-01/
     RDKit          3D

 14 15  0  0  0  0  0  0  0  0999 V2000
   -7.2496    3.8871   27.4508 C   0  0  0  0  0  0  0  0  0  0  0  0
   -7.6161    2.7143   27.1523 C   0  0  0  0  0  0  0  0  0  0  0  0
   -8.6007    2.2754   27.5344 C   0  0  0  0  0  0  0  0  0  0  0  0
   -8.1723    4.9076   27.9308 C   0  0  0  0  0  0  0  0  0  0  0  0
   -9.4278    4.3838   28.2178 C   0  0  0  0  0  0  0  0  0  0  0  0
   -9.7104    3.0651   28.0405 C   0  0  0  0  0  0  0  0  0  0  0  0
  -11.0636    2.5252   28.3461 C   0  0  0  0  0  0  0  0  0  0  0  0
  -11.3464    1.2381   28.3564 C   0  0  0  0  0  0  0  0  0  0  0  0
  -12.4749    0.7827   28.5589 C   0  0  0  0  0  0  0  0  0  0  0  0
  -13.5563    1.6457   28.9813 C   0  0  0  0  0  0  0  0  0  0  0  0
  -12.1510    3.3769   28.7693 C   0  0  0  0  0  0  0  0  0  0  0  0
  -13.3102    2.9830   29.0857 C   0  0  0  0  0  0  0  0  0  0  0  0
   -7.8001    6.3160   28.0130 C   0  0  0  0  0  0  0  0  0  0  0  0
   -8.5939    7.1495   27.0169 C   0  0  0  0  0  0  0  0  0  0  0  0
  6  7  1  0
  4 13  1  0
 13 14  1  0
  7  8  2  0
  8  9  1  0
  9 10  2  0
 10 12  1  0
 12 11  2  0
 11  7  1  0
  1  2  2  0
  2  3  1  0
  3  6  2  0
  6  5  1  0
  5  4  2  0
  4  1  1  0
M  END
$$$$
