No_2335-complexes_sdf/6BKW-FPZ/2024-09-17-14-21-01/
     RDKit          3D

 12 12  0  0  0  0  0  0  0  0999 V2000
   -7.9040    3.9820   27.1177 C   0  0  0  0  0  0  0  0  0  0  0  0
   -9.0711    4.3164   27.0630 C   0  0  0  0  0  0  0  0  0  0  0  0
  -10.0395    3.8218   27.1938 C   0  0  0  0  0  0  0  0  0  0  0  0
   -7.6424    2.5858   27.3610 C   0  0  0  0  0  0  0  0  0  0  0  0
   -8.7646    1.7754   27.4263 C   0  0  0  0  0  0  0  0  0  0  0  0
  -11.4608    4.3331   27.1441 C   0  0  0  0  0  0  0  0  0  0  0  0
   -9.9810    2.3615   27.3942 C   0  0  0  0  0  0  0  0  0  0  0  0
   -6.2841    2.0277   27.4278 C   0  0  0  0  0  0  0  0  0  0  0  0
   -6.0052    0.6944   27.3172 C   0  0  0  0  0  0  0  0  0  0  0  0
   -4.7106    0.2608   27.5298 C   0  0  0  0  0  0  0  0  0  0  0  0
   -4.3542   -1.0427   27.3803 C   0  0  0  0  0  0  0  0  0  0  0  0
   -5.3627   -1.9663   27.0892 C   0  0  0  0  0  0  0  0  0  0  0  0
  3  6  1  0
  4  8  1  0
  8  9  2  3
  9 10  1  0
 10 11  2  3
 11 12  1  0
  1  2  2  0
  2  3  1  0
  3  7  2  0
  7  5  1  0
  5  4  2  0
  4  1  1  0
M  END
$$$$
