No_265-complexes_sdf/6BKW-FPZ/2024-09-17-14-21-01/
     RDKit          3D

 27 30  0  0  0  0  0  0  0  0999 V2000
   -7.7129    4.2099   27.0854 C   0  0  0  0  0  0  0  0  0  0  0  0
   -8.2112    3.0637   26.9225 C   0  0  0  0  0  0  0  0  0  0  0  0
   -7.5138    1.9223   27.4249 C   0  0  0  0  0  0  0  0  0  0  0  0
   -8.5309    5.4147   26.8151 C   0  0  0  0  0  0  0  0  0  0  0  0
   -9.6817    5.2393   26.1100 C   0  0  0  0  0  0  0  0  0  0  0  0
  -10.1032    3.9957   25.8534 C   0  0  0  0  0  0  0  0  0  0  0  0
   -9.4034    2.8430   26.2573 C   0  0  0  0  0  0  0  0  0  0  0  0
   -7.9625    0.5664   27.2655 C   0  0  0  0  0  0  0  0  0  0  0  0
   -9.2649    0.5125   26.5943 C   0  0  0  0  0  0  0  0  0  0  0  0
   -9.9476    1.5566   26.0984 C   0  0  0  0  0  0  0  0  0  0  0  0
   -7.9719    6.7766   27.0741 C   0  0  0  0  0  0  0  0  0  0  0  0
   -8.6130    7.8355   26.7565 O   0  0  0  0  0  0  0  0  0  0  0  0
   -6.8625    6.8213   27.7895 O   0  0  0  0  0  0  0  0  0  0  0  0
   -7.2835   -0.5330   27.8125 C   0  0  0  0  0  0  0  0  0  0  0  0
   -5.9873   -0.4034   28.2243 C   0  0  0  0  0  0  0  0  0  0  0  0
   -5.2616   -1.4946   28.8620 C   0  0  0  0  0  0  0  0  0  0  0  0
   -5.9804   -2.6571   29.0315 C   0  0  0  0  0  0  0  0  0  0  0  0
   -7.8217   -1.7706   28.1238 C   0  0  0  0  0  0  0  0  0  0  0  0
   -7.2555   -2.7677   28.7377 C   0  0  0  0  0  0  0  0  0  0  0  0
   -3.8437   -1.2589   29.2156 C   0  0  2  0  0  0  0  0  0  0  0  0
   -3.6384   -0.6398   30.4410 C   0  0  0  0  0  0  0  0  0  0  0  0
   -2.7570   -1.5257   28.3981 C   0  0  0  0  0  0  0  0  0  0  0  0
   -4.0033    0.6670   30.7555 C   0  0  0  0  0  0  0  0  0  0  0  0
   -2.8955   -1.4564   31.4306 C   0  0  0  0  0  0  0  0  0  0  0  0
   -2.6845   -0.9300   32.6755 N   0  0  0  0  0  0  0  0  0  0  0  0
   -3.7143    1.0403   32.1467 N   0  0  0  0  0  0  0  0  0  0  0  0
   -3.0486    0.3363   32.9678 C   0  0  0  0  0  0  0  0  0  0  0  0
  4 11  1  0
 11 12  1  0
 11 13  1  0
  8 14  1  0
 16 20  1  0
 20 21  1  0
 20 22  1  6
 14 15  2  0
 15 16  1  0
 16 17  2  0
 17 19  1  0
 19 18  2  0
 18 14  1  0
  1  2  2  0
  7  6  2  0
  6  5  1  0
  5  4  2  0
  4  1  1  0
 21 23  2  0
 23 26  1  0
 26 27  2  0
 27 25  1  0
 25 24  2  0
 24 21  1  0
  2  3  1  0
  3  8  2  0
  8  9  1  0
  9 10  2  0
 10  7  1  0
  7  2  1  0
M  END
$$$$
