No_2129-complexes_sdf/6BKW-FPZ/2024-09-17-14-21-01/
     RDKit          3D

 40 43  0  0  0  0  0  0  0  0999 V2000
   -7.9040    3.9820   27.1177 C   0  0  0  0  0  0  0  0  0  0  0  0
   -8.2057    2.8231   26.8733 C   0  0  0  0  0  0  0  0  0  0  0  0
   -7.4766    1.7477   27.4593 C   0  0  0  0  0  0  0  0  0  0  0  0
   -8.7468    5.1251   26.6967 C   0  0  0  0  0  0  0  0  0  0  0  0
   -9.7234    4.8589   25.8202 C   0  0  0  0  0  0  0  0  0  0  0  0
   -9.9711    3.5858   25.4266 C   0  0  0  0  0  0  0  0  0  0  0  0
   -9.2266    2.4957   25.9600 C   0  0  0  0  0  0  0  0  0  0  0  0
   -6.1241    1.9216   27.8574 C   0  0  0  0  0  0  0  0  0  0  0  0
   -5.4248    0.7985   28.3602 C   0  0  0  0  0  0  0  0  0  0  0  0
   -5.9324   -0.4517   28.3727 C   0  0  0  0  0  0  0  0  0  0  0  0
   -7.8680    0.3890   27.4333 C   0  0  0  0  0  0  0  0  0  0  0  0
   -7.2076   -0.6217   27.9501 C   0  0  0  0  0  0  0  0  0  0  0  0
   -8.4332    6.4231   27.0753 N   0  0  0  0  0  0  0  0  0  0  0  0
   -8.4588    6.9362   28.2279 C   0  0  0  0  0  0  0  0  0  0  0  0
   -8.1187    7.3799   25.9464 C   0  0  0  0  0  0  0  0  0  0  0  0
   -3.9675    1.1021   28.8132 C   0  0  0  0  0  0  0  0  0  0  0  0
   -3.2108    0.2849   28.5781 O   0  0  0  0  0  0  0  0  0  0  0  0
   -7.8294   -1.9472   28.0150 C   0  0  0  0  0  0  0  0  0  0  0  0
   -7.2979   -2.8629   28.5942 C   0  0  0  0  0  0  0  0  0  0  0  0
   -7.9184   -4.2063   28.7677 C   0  0  0  0  0  0  0  0  0  0  0  0
   -9.1693   -4.3318   28.1549 C   0  0  0  0  0  0  0  0  0  0  0  0
   -9.7481   -3.3014   27.4981 C   0  0  0  0  0  0  0  0  0  0  0  0
   -9.1214   -2.0737   27.4597 C   0  0  0  0  0  0  0  0  0  0  0  0
  -11.1045   -3.4592   26.9318 C   0  0  0  0  0  0  0  0  0  0  0  0
  -12.1948   -2.7613   27.3248 C   0  0  0  0  0  0  0  0  0  0  0  0
  -12.1874   -1.9959   28.2968 C   0  0  0  0  0  0  0  0  0  0  0  0
  -13.3639   -1.1560   28.7537 C   0  0  0  0  0  0  0  0  0  0  0  0
  -14.4479   -1.2730   28.0038 C   0  0  0  0  0  0  0  0  0  0  0  0
  -14.4986   -2.1018   26.9266 C   0  0  0  0  0  0  0  0  0  0  0  0
  -13.3779   -2.8130   26.5605 C   0  0  0  0  0  0  0  0  0  0  0  0
  -11.1650   -4.0881   25.7685 O   0  0  0  0  0  0  0  0  0  0  0  0
  -11.0094    3.3283   24.4238 C   0  0  0  0  0  0  0  0  0  0  0  0
  -12.1157    2.9905   24.6428 O   0  0  0  0  0  0  0  0  0  0  0  0
  -10.6825    3.5598   23.0615 N   0  0  0  0  0  0  0  0  0  0  0  0
  -11.5162    3.4282   21.9267 C   0  0  0  0  0  0  0  0  0  0  0  0
  -11.5282    2.0493   21.5380 C   0  0  0  0  0  0  0  0  0  0  0  0
  -10.4118    1.4410   21.3673 C   0  0  0  0  0  0  0  0  0  0  0  0
  -10.2573    0.0339   20.9577 C   0  0  0  0  0  0  0  0  0  0  0  0
  -11.4288   -0.5644   20.4739 C   0  0  0  0  0  0  0  0  0  0  0  0
  -12.6131    0.1120   20.4984 C   0  0  0  0  0  0  0  0  0  0  0  0
  2  3  1  0
  4 13  1  0
 13 14  1  0
 13 15  1  0
  9 16  1  0
 16 17  2  0
 12 18  1  0
 22 24  1  0
 24 25  1  0
 24 31  2  0
  6 32  1  0
 32 33  2  0
 32 34  1  0
 34 35  1  0
 35 36  1  0
 36 37  2  3
 37 38  1  0
 38 39  2  3
 39 40  1  0
 18 19  2  0
 19 20  1  0
 20 21  2  0
 21 22  1  0
 22 23  2  0
 23 18  1  0
 25 26  2  0
 26 27  1  0
 27 28  2  0
 28 29  1  0
 29 30  2  0
 30 25  1  0
  3  8  2  0
  8  9  1  0
  9 10  2  0
 10 12  1  0
 12 11  2  0
 11  3  1  0
  1  2  2  0
  2  7  1  0
  7  6  2  0
  6  5  1  0
  5  4  2  0
  4  1  1  0
M  END
$$$$
