No_2748-complexes_sdf/6BKW-FPZ/2024-09-17-14-21-01/
     RDKit          3D

 14 15  0  0  0  0  0  0  0  0999 V2000
   -7.9040    3.9820   27.1177 C   0  0  0  0  0  0  0  0  0  0  0  0
   -7.8663    4.8694   27.9238 C   0  0  0  0  0  0  0  0  0  0  0  0
   -9.0491    3.8523   26.2542 C   0  0  0  0  0  0  0  0  0  0  0  0
   -8.7661    5.9491   27.9690 C   0  0  0  0  0  0  0  0  0  0  0  0
   -9.9295    4.8502   26.2323 C   0  0  0  0  0  0  0  0  0  0  0  0
   -9.8077    5.9288   27.0933 C   0  0  0  0  0  0  0  0  0  0  0  0
   -7.1473    2.8227   27.0397 N   0  0  0  0  0  0  0  0  0  0  0  0
   -7.6378    1.6642   26.4958 C   0  0  0  0  0  0  0  0  0  0  0  0
   -6.8192    0.4747   26.8143 C   0  0  0  0  0  0  0  0  0  0  0  0
   -8.8084    1.5088   25.9169 C   0  0  0  0  0  0  0  0  0  0  0  0
   -9.4737    2.6492   25.6475 C   0  0  0  0  0  0  0  0  0  0  0  0
   -5.7231    0.5810   27.7778 C   0  0  0  0  0  0  0  0  0  0  0  0
   -4.9999   -0.5545   28.1354 C   0  0  0  0  0  0  0  0  0  0  0  0
   -5.4295   -1.7592   27.6721 C   0  0  0  0  0  0  0  0  0  0  0  0
  9 12  1  0
 12 13  2  3
 13 14  1  0
  9  8  1  0
  3 11  1  0
 11 10  2  0
 10  8  1  0
  8  7  2  0
  7  1  1  0
  1  2  2  0
  2  4  1  0
  4  6  2  0
  6  5  1  0
  5  3  2  0
  3  1  1  0
M  END
$$$$
