No_2203-complexes_sdf/6BKW-FPZ/2024-09-17-14-21-01/
     RDKit          3D

 20 22  0  0  0  0  0  0  0  0999 V2000
   -7.9040    3.9820   27.1177 C   0  0  0  0  0  0  0  0  0  0  0  0
   -9.0711    4.3164   27.0630 C   0  0  0  0  0  0  0  0  0  0  0  0
   -9.5294    5.4517   27.7215 C   0  0  0  0  0  0  0  0  0  0  0  0
   -7.4336    2.7132   26.5681 C   0  0  0  0  0  0  0  0  0  0  0  0
   -8.3353    1.8569   26.0442 C   0  0  0  0  0  0  0  0  0  0  0  0
   -9.6477    2.2853   25.9146 C   0  0  0  0  0  0  0  0  0  0  0  0
  -10.0346    3.4497   26.4483 C   0  0  0  0  0  0  0  0  0  0  0  0
   -7.8608    0.5626   25.5840 C   0  0  0  0  0  0  0  0  0  0  0  0
   -6.9267   -0.1385   26.3326 C   0  0  0  0  0  0  0  0  0  0  0  0
   -6.4580   -1.3878   25.9223 C   0  0  0  0  0  0  0  0  0  0  0  0
   -6.8487   -1.8022   24.6286 C   0  0  0  0  0  0  0  0  0  0  0  0
   -8.0854   -0.0565   24.3803 C   0  0  0  0  0  0  0  0  0  0  0  0
   -9.0255    0.8012   23.5081 C   0  0  0  0  0  0  0  0  0  0  0  0
   -7.6440   -1.1136   23.8544 C   0  0  0  0  0  0  0  0  0  0  0  0
  -10.2095    0.4679   23.1216 C   0  0  0  0  0  0  0  0  0  0  0  0
  -10.9782    1.2337   22.2509 C   0  0  0  0  0  0  0  0  0  0  0  0
  -10.5160    2.5461   21.9036 C   0  0  0  0  0  0  0  0  0  0  0  0
   -9.3645    3.0222   22.4837 C   0  0  0  0  0  0  0  0  0  0  0  0
   -8.6748    2.2304   23.2610 C   0  0  0  0  0  0  0  0  0  0  0  0
   -6.8665    4.6455   27.7544 F   0  0  0  0  0  0  0  0  0  0  0  0
  5  8  1  0
 12 13  1  0
  1 20  1  0
  3  2  1  0
  8  9  2  0
  9 10  1  0
 10 11  2  0
 11 14  1  0
 14 12  2  0
 12  8  1  0
  1  2  2  0
  2  7  1  0
  7  6  2  0
  6  5  1  0
  5  4  2  0
  4  1  1  0
 13 15  2  0
 15 16  1  0
 16 17  2  0
 17 18  1  0
 18 19  2  0
 19 13  1  0
M  END
$$$$
