No_2560-complexes_sdf/6BKW-FPZ/2024-09-17-14-21-01/
     RDKit          3D

  3  2  0  0  0  0  0  0  0  0999 V2000
   -7.7129    4.2099   27.0854 C   0  0  0  0  0  0  0  0  0  0  0  0
   -8.9133    4.4736   27.0998 C   0  0  0  0  0  0  0  0  0  0  0  0
   -9.4742    5.6577   27.6231 C   0  0  0  0  0  0  0  0  0  0  0  0
  1  2  3  0
  2  3  1  0
M  END
$$$$
