No_2460-complexes_sdf/6BKW-FPZ/2024-09-17-14-21-01/
     RDKit          3D

 26 29  0  0  0  0  0  0  0  0999 V2000
   -7.7129    4.2099   27.0854 C   0  0  0  0  0  0  0  0  0  0  0  0
   -7.7814    5.1722   27.8972 C   0  0  0  0  0  0  0  0  0  0  0  0
   -8.8998    3.8713   26.3707 C   0  0  0  0  0  0  0  0  0  0  0  0
   -9.9938    4.6774   26.5446 C   0  0  0  0  0  0  0  0  0  0  0  0
   -8.7789    6.1536   27.9256 C   0  0  0  0  0  0  0  0  0  0  0  0
   -9.9428    5.8398   27.2296 C   0  0  0  0  0  0  0  0  0  0  0  0
   -8.9208    2.6404   25.5721 C   0  0  0  0  0  0  0  0  0  0  0  0
   -9.8143    2.5212   24.5327 C   0  0  0  0  0  0  0  0  0  0  0  0
   -9.8784    1.3928   23.8415 C   0  0  0  0  0  0  0  0  0  0  0  0
  -10.7289    1.2508   22.6603 C   0  0  0  0  0  0  0  0  0  0  0  0
  -11.5435    2.3707   22.3714 C   0  0  0  0  0  0  0  0  0  0  0  0
  -11.4840    3.5150   23.0749 C   0  0  0  0  0  0  0  0  0  0  0  0
  -10.5674    3.6378   24.1628 C   0  0  0  0  0  0  0  0  0  0  0  0
  -10.9528    4.5332   25.3431 C   0  0  0  0  0  0  0  0  0  0  0  0
   -6.6711    5.5658   28.6604 O   0  0  0  0  0  0  0  0  0  0  0  0
   -8.9779    0.2109   24.0292 C   0  0  0  0  0  0  0  0  0  0  0  0
   -8.7700   -0.2417   25.2213 C   0  0  0  0  0  0  0  0  0  0  0  0
   -8.3207   -0.3424   22.9178 C   0  0  0  0  0  0  0  0  0  0  0  0
   -7.9800   -1.3472   25.4820 C   0  0  0  0  0  0  0  0  0  0  0  0
   -7.5099   -1.4781   23.0967 C   0  0  0  0  0  0  0  0  0  0  0  0
   -7.2967   -1.9579   24.4011 C   0  0  0  0  0  0  0  0  0  0  0  0
   -6.1865   -3.2133   24.5159 Cl  0  0  0  0  0  0  0  0  0  0  0  0
  -12.3050    2.2944   21.1042 C   0  0  0  0  0  0  0  0  0  0  0  0
  -12.0833    1.4572   20.4114 F   0  0  0  0  0  0  0  0  0  0  0  0
  -12.1624    3.5127   20.4833 F   0  0  0  0  0  0  0  0  0  0  0  0
  -13.6081    2.2601   21.4835 F   0  0  0  0  0  0  0  0  0  0  0  0
  2 15  1  0
  9 16  1  0
 21 22  1  0
 11 23  1  0
 23 24  1  0
 23 25  1  0
 23 26  1  0
  4 14  2  0
 14 13  1  0
  8  7  1  0
  7  3  2  0
  8  9  2  0
  9 10  1  0
 10 11  2  0
 11 12  1  0
 12 13  2  0
 13  8  1  0
  1  2  2  0
  2  5  1  0
  5  6  2  0
  6  4  1  0
  4  3  1  0
  3  1  1  0
 16 17  2  0
 17 19  1  0
 19 21  2  0
 21 20  1  0
 20 18  2  0
 18 16  1  0
M  END
$$$$
