No_2761-complexes_sdf/6BKW-FPZ/2024-09-17-14-21-01/
     RDKit          3D

 13 14  0  0  0  0  0  0  0  0999 V2000
   -7.2496    3.8871   27.4508 C   0  0  0  0  0  0  0  0  0  0  0  0
   -7.9379    4.9063   27.8518 C   0  0  0  0  0  0  0  0  0  0  0  0
   -9.3376    4.8647   27.7795 C   0  0  0  0  0  0  0  0  0  0  0  0
   -7.8544    2.6294   27.0414 C   0  0  0  0  0  0  0  0  0  0  0  0
   -9.2852    2.6570   27.0666 C   0  0  0  0  0  0  0  0  0  0  0  0
  -10.0126    3.7528   27.4890 C   0  0  0  0  0  0  0  0  0  0  0  0
   -9.9609    1.3640   26.7239 C   0  0  0  0  0  0  0  0  0  0  0  0
   -9.5398    0.4290   26.1345 C   0  0  0  0  0  0  0  0  0  0  0  0
  -10.2515   -0.7632   25.7931 C   0  0  0  0  0  0  0  0  0  0  0  0
  -11.0388    0.9841   27.6497 C   0  0  0  0  0  0  0  0  0  0  0  0
  -11.8047   -0.1044   27.4845 C   0  0  0  0  0  0  0  0  0  0  0  0
  -11.3431   -1.0284   26.5753 C   0  0  0  0  0  0  0  0  0  0  0  0
   -7.3189    6.0815   28.1504 O   0  0  0  0  0  0  0  0  0  0  0  0
  5  7  1  0
  2 13  1  0
  1  2  2  0
  2  3  1  0
  3  6  2  0
  6  5  1  0
  5  4  2  0
  4  1  1  0
  7  8  2  0
  8  9  1  0
  9 12  2  0
 12 11  1  0
 11 10  2  0
 10  7  1  0
M  END
$$$$
