No_2767-complexes_sdf/6BKW-FPZ/2024-09-17-14-21-01/
     RDKit          3D

 40 45  0  0  0  0  0  0  0  0999 V2000
   -7.9040    3.9820   27.1177 C   0  0  0  0  0  0  0  0  0  0  0  0
   -7.8663    4.8694   27.9238 C   0  0  0  0  0  0  0  0  0  0  0  0
   -9.0491    3.8523   26.2542 C   0  0  0  0  0  0  0  0  0  0  0  0
   -8.7661    5.9491   27.9690 C   0  0  0  0  0  0  0  0  0  0  0  0
   -9.9295    4.8502   26.2323 C   0  0  0  0  0  0  0  0  0  0  0  0
   -9.8077    5.9288   27.0933 C   0  0  0  0  0  0  0  0  0  0  0  0
   -6.9996    2.9096   27.1565 O   0  0  0  0  0  0  0  0  0  0  0  0
   -6.2309    2.7693   28.1922 C   0  0  2  0  0  0  0  0  0  0  0  0
   -4.8707    3.1083   27.7903 C   0  0  0  0  0  0  0  0  0  0  0  0
   -6.2621    1.4551   28.6359 C   0  0  0  0  0  0  0  0  0  0  0  0
   -9.1045    2.7305   25.2848 C   0  0  0  0  0  0  0  0  0  0  0  0
  -10.1599    2.7164   24.3500 C   0  0  0  0  0  0  0  0  0  0  0  0
  -10.1130    1.8503   23.2356 C   0  0  0  0  0  0  0  0  0  0  0  0
  -11.0477    1.9081   22.1677 C   0  0  0  0  0  0  0  0  0  0  0  0
  -11.7007    2.8018   22.2185 C   0  0  0  0  0  0  0  0  0  0  0  0
  -11.8804    3.8699   23.1505 C   0  0  0  0  0  0  0  0  0  0  0  0
  -10.9604    3.8256   24.1927 C   0  0  0  0  0  0  0  0  0  0  0  0
  -10.8972    4.9275   25.1664 C   0  0  0  0  0  0  0  0  0  0  0  0
   -5.4809    0.3678   27.8494 C   0  0  2  0  0  0  0  0  0  0  0  0
   -4.0567    0.7719   27.8105 C   0  0  1  0  0  0  0  0  0  0  0  0
   -3.1971   -0.2719   27.3419 C   0  0  0  0  0  0  0  0  0  0  0  0
   -3.9285    2.0834   27.3579 C   0  0  0  0  0  0  0  0  0  0  0  0
   -3.5008   -0.9793   26.3224 C   0  0  0  0  0  0  0  0  0  0  0  0
   -4.2930   -2.1097   26.5328 C   0  0  2  0  0  0  0  0  0  0  0  0
   -5.4700   -2.1785   25.8078 C   0  0  0  0  0  0  0  0  0  0  0  0
   -5.4068   -1.7140   24.5193 C   0  0  0  0  0  0  0  0  0  0  0  0
   -6.3406   -1.9508   23.5737 C   0  0  0  0  0  0  0  0  0  0  0  0
   -7.1602   -2.8246   23.8756 C   0  0  0  0  0  0  0  0  0  0  0  0
   -7.3472   -3.4439   25.0925 C   0  0  0  0  0  0  0  0  0  0  0  0
   -6.0365   -3.5212   25.8104 C   0  0  0  0  0  0  0  0  0  0  0  0
   -4.5119   -2.2210   27.9955 C   0  0  0  0  0  0  0  0  0  0  0  0
   -3.9731   -3.3268   28.5849 C   0  0  0  0  0  0  0  0  0  0  0  0
   -4.3305   -3.5955   29.9181 C   0  0  0  0  0  0  0  0  0  0  0  0
   -5.2125   -2.7246   30.6124 C   0  0  0  0  0  0  0  0  0  0  0  0
   -5.8215   -1.6513   29.9541 C   0  0  0  0  0  0  0  0  0  0  0  0
   -5.4649   -1.4249   28.6603 C   0  0  0  0  0  0  0  0  0  0  0  0
   -6.7431   -1.5601   27.8743 O   0  0  0  0  0  0  0  0  0  0  0  0
   -6.0223    0.2489   26.6255 O   0  0  0  0  0  0  0  0  0  0  0  0
   -6.2342   -0.3461   27.7721 Cl  0  0  0  0  0  0  0  0  0  0  0  0
   -7.8073   -1.7646   28.7390 C   0  0  0  0  0  0  0  0  0  0  0  0
  1  7  1  0
  8  7  1  6
  8  9  1  0
  8 10  1  0
 10 19  1  0
 19 20  1  0
 20 21  1  6
  9 22  1  0
 20 22  1  0
 21 23  1  0
 24 23  1  1
 24 25  1  0
 24 31  1  0
 36 37  1  0
 19 38  1  6
 19 39  1  0
 37 40  1  0
 12 13  2  0
 13 14  1  0
 14 15  2  0
 15 16  1  0
 16 17  2  0
 25 26  2  0
 26 27  1  0
 27 28  2  0
 28 29  1  0
 29 30  2  0
 30 25  1  0
 31 32  2  0
 32 33  1  0
 33 34  2  0
 34 35  1  0
 35 36  2  0
 36 31  1  0
  5 18  2  0
 18 17  1  0
 17 12  1  0
 12 11  1  0
 11  3  2  0
  1  2  2  0
  2  4  1  0
  4  6  2  0
  6  5  1  0
  5  3  1  0
  3  1  1  0
M  END
$$$$
