No_290-complexes_sdf/6BKW-FPZ/2024-09-17-14-21-01/
     RDKit          3D

 38 42  0  0  0  0  0  0  0  0999 V2000
   -7.2496    3.8871   27.4508 C   0  0  0  0  0  0  0  0  0  0  0  0
   -8.5096    4.0291   27.2770 C   0  0  0  0  0  0  0  0  0  0  0  0
   -9.3502    2.8685   26.8763 C   0  0  0  0  0  0  0  0  0  0  0  0
   -6.6288    2.5513   27.4938 C   0  0  0  0  0  0  0  0  0  0  0  0
   -7.4365    1.4714   27.2032 C   0  0  0  0  0  0  0  0  0  0  0  0
   -8.7772    1.6579   26.9338 C   0  0  0  0  0  0  0  0  0  0  0  0
   -9.1119    5.3743   27.2229 C   0  0  0  0  0  0  0  0  0  0  0  0
   -8.3195    6.4988   26.9602 C   0  0  0  0  0  0  0  0  0  0  0  0
   -8.6574    7.8231   27.0769 C   0  0  0  0  0  0  0  0  0  0  0  0
   -7.0103    0.0864   27.2539 C   0  0  0  0  0  0  0  0  0  0  0  0
   -7.7466   -0.9326   27.1730 C   0  0  0  0  0  0  0  0  0  0  0  0
   -9.1740   -0.6499   26.8619 C   0  0  0  0  0  0  0  0  0  0  0  0
   -9.6714    0.5634   26.7964 C   0  0  0  0  0  0  0  0  0  0  0  0
  -10.4539    5.5358   27.4682 C   0  0  0  0  0  0  0  0  0  0  0  0
   -5.6443   -0.0693   27.5825 O   0  0  0  0  0  0  0  0  0  0  0  0
   -4.9463   -0.4914   28.3250 C   0  0  0  0  0  0  0  0  0  0  0  0
   -5.2377   -1.0020   29.3214 C   0  0  0  0  0  0  0  0  0  0  0  0
   -4.2077   -1.3875   30.3890 C   0  0  0  0  0  0  0  0  0  0  0  0
   -2.9103   -1.1350   30.0781 C   0  0  0  0  0  0  0  0  0  0  0  0
   -3.4761   -0.1721   28.1003 C   0  0  0  0  0  0  0  0  0  0  0  0
   -2.5038   -0.5086   28.9875 C   0  0  0  0  0  0  0  0  0  0  0  0
   -3.0649    0.5822   26.8472 C   0  0  0  0  0  0  0  0  0  0  0  0
   -2.1914    1.3687   26.7854 O   0  0  0  0  0  0  0  0  0  0  0  0
   -3.4748   -0.0508   25.7809 O   0  0  0  0  0  0  0  0  0  0  0  0
   -4.6901   -2.0584   31.6477 C   0  0  0  0  0  0  0  0  0  0  0  0
   -5.6164   -1.4048   32.2693 C   0  0  0  0  0  0  0  0  0  0  0  0
   -6.3505   -1.9954   33.3836 C   0  0  0  0  0  0  0  0  0  0  0  0
   -5.9296   -3.1708   33.8799 C   0  0  0  0  0  0  0  0  0  0  0  0
   -4.8848   -3.8242   33.2018 C   0  0  0  0  0  0  0  0  0  0  0  0
   -4.2488   -3.2654   32.0730 C   0  0  0  0  0  0  0  0  0  0  0  0
   -6.5723   -3.7247   35.0836 C   0  0  0  0  0  0  0  0  0  0  0  0
   -6.2679   -3.2057   36.2475 C   0  0  0  0  0  0  0  0  0  0  0  0
   -5.2416   -2.4009   36.4457 C   0  0  0  0  0  0  0  0  0  0  0  0
   -4.9221   -1.6242   37.4401 C   0  0  0  0  0  0  0  0  0  0  0  0
   -3.8700   -0.6126   37.5094 C   0  0  0  0  0  0  0  0  0  0  0  0
   -3.0985   -0.5088   36.3467 C   0  0  0  0  0  0  0  0  0  0  0  0
   -3.3976   -1.2148   35.2400 C   0  0  0  0  0  0  0  0  0  0  0  0
   -4.4187   -2.0540   35.2601 C   0  0  0  0  0  0  0  0  0  0  0  0
  2  7  1  0
  7  8  1  0
  8  9  2  0
  7 14  1  0
 10 15  1  0
 15 16  1  0
 20 22  1  0
 22 23  2  0
 22 24  1  0
 18 25  1  0
 28 31  1  0
 31 32  1  0
 32 33  1  0
 25 26  2  0
 26 27  1  0
 27 28  2  0
 28 29  1  0
 29 30  2  0
 30 25  1  0
  1  2  2  0
  2  3  1  0
  3  6  2  0
  5  4  2  0
  4  1  1  0
  5  6  1  0
  6 13  1  0
 13 12  2  0
 12 11  1  0
 11 10  2  0
 10  5  1  0
 33 34  2  0
 34 35  1  0
 35 36  2  0
 36 37  1  0
 37 38  2  0
 38 33  1  0
 16 17  2  0
 17 18  1  0
 18 19  2  0
 19 21  1  0
 21 20  2  0
 20 16  1  0
M  END
$$$$
