No_2246-complexes_sdf/6BKW-FPZ/2024-09-17-14-21-01/
     RDKit          3D

 40 45  0  0  0  0  0  0  0  0999 V2000
   -7.7129    4.2099   27.0854 C   0  0  0  0  0  0  0  0  0  0  0  0
   -8.9133    4.4736   27.0998 C   0  0  0  0  0  0  0  0  0  0  0  0
   -9.4643    5.5426   27.7628 C   0  0  0  0  0  0  0  0  0  0  0  0
   -9.8091    3.6358   26.2841 C   0  0  0  0  0  0  0  0  0  0  0  0
  -10.3717    2.5594   26.9241 C   0  0  0  0  0  0  0  0  0  0  0  0
  -10.3040    2.3353   28.2164 C   0  0  0  0  0  0  0  0  0  0  0  0
   -6.8256    4.9273   28.0591 C   0  0  0  0  0  0  0  0  0  0  0  0
   -8.6286    6.4498   28.4781 C   0  0  0  0  0  0  0  0  0  0  0  0
   -7.2720    6.0303   28.5446 C   0  0  0  0  0  0  0  0  0  0  0  0
  -11.0086    1.4846   26.1192 C   0  0  0  0  0  0  0  0  0  0  0  0
  -11.4887    0.5056   26.5343 C   0  0  0  0  0  0  0  0  0  0  0  0
  -10.9930    1.2059   28.8596 C   0  0  0  0  0  0  0  0  0  0  0  0
  -11.5691    0.2774   28.0242 C   0  0  0  0  0  0  0  0  0  0  0  0
  -10.0604    3.9969   24.9451 C   0  0  0  0  0  0  0  0  0  0  0  0
   -9.6371    5.0356   24.4604 F   0  0  0  0  0  0  0  0  0  0  0  0
  -10.7430    3.1094   24.0881 C   0  0  0  0  0  0  0  0  0  0  0  0
  -11.1880    2.1144   24.5327 C   0  0  0  0  0  0  0  0  0  0  0  0
  -12.1482   -0.9360   28.6059 C   0  0  0  0  0  0  0  0  0  0  0  0
  -13.1736   -0.9744   29.3476 C   0  0  0  0  0  0  0  0  0  0  0  0
  -11.1131   -1.9397   28.8639 C   0  0  0  0  0  0  0  0  0  0  0  0
  -11.4262   -3.0217   29.5122 C   0  0  0  0  0  0  0  0  0  0  0  0
  -14.1963    0.1066   29.1953 C   0  0  0  0  0  0  0  0  0  0  0  0
  -12.6762   -3.1252   30.1682 C   0  0  0  0  0  0  0  0  0  0  0  0
  -13.6017   -2.0940   30.0915 C   0  0  0  0  0  0  0  0  0  0  0  0
  -14.3873    0.8305   30.2659 C   0  0  0  0  0  0  0  0  0  0  0  0
  -15.2926    1.9809   30.2552 C   0  0  0  0  0  0  0  0  0  0  0  0
  -15.4229    2.8345   31.3545 C   0  0  0  0  0  0  0  0  0  0  0  0
  -16.1747    4.0464   31.3142 C   0  0  0  0  0  0  0  0  0  0  0  0
  -16.1521    4.9878   32.3592 C   0  0  0  0  0  0  0  0  0  0  0  0
  -15.3293    4.7255   33.5053 C   0  0  0  0  0  0  0  0  0  0  0  0
  -14.5615    3.5874   33.5492 C   0  0  0  0  0  0  0  0  0  0  0  0
  -13.7060    3.3788   34.6650 C   0  0  0  0  0  0  0  0  0  0  0  0
  -14.5492    2.7386   32.4761 C   0  0  0  0  0  0  0  0  0  0  0  0
  -12.7520    4.2086   34.9419 N   0  0  0  0  0  0  0  0  0  0  0  0
  -12.5493    4.8412   36.1162 C   0  0  0  0  0  0  0  0  0  0  0  0
  -13.2433    5.0454   36.9951 C   0  0  0  0  0  0  0  0  0  0  0  0
  -12.8263    5.7339   38.2648 C   0  0  0  0  0  0  0  0  0  0  0  0
  -11.4749    6.1030   38.4143 C   0  0  0  0  0  0  0  0  0  0  0  0
  -11.0220    5.2095   36.2623 C   0  0  0  0  0  0  0  0  0  0  0  0
  -10.5971    5.7753   37.4491 C   0  0  0  0  0  0  0  0  0  0  0  0
  2  4  1  0
 14 15  1  0
 13 18  1  0
 19 22  1  0
 22 25  2  3
 25 26  1  0
 31 32  1  0
 32 34  1  0
 34 35  1  0
 26 27  1  0
  4  5  1  0
 10 17  1  0
 17 16  2  0
 16 14  1  0
 14  4  2  0
  1  2  2  0
  2  3  1  0
  3  8  2  0
  8  9  1  0
  9  7  2  0
  7  1  1  0
 27 28  2  0
 28 29  1  0
 29 30  2  0
 30 31  1  0
 31 33  2  0
 33 27  1  0
 18 19  2  0
 19 24  1  0
 24 23  2  0
 23 21  1  0
 21 20  2  0
 20 18  1  0
 35 36  2  0
 36 37  1  0
 37 38  2  0
 38 40  1  0
 40 39  2  0
 39 35  1  0
  5  6  2  0
  6 12  1  0
 12 13  2  0
 13 11  1  0
 11 10  2  0
 10  5  1  0
M  END
$$$$
