No_2386-complexes_sdf/6BKW-FPZ/2024-09-17-14-21-01/
     RDKit          3D

 18 19  0  0  0  0  0  0  0  0999 V2000
   -7.9040    3.9820   27.1177 C   0  0  0  0  0  0  0  0  0  0  0  0
   -8.2057    2.8231   26.8733 C   0  0  0  0  0  0  0  0  0  0  0  0
   -7.4766    1.7477   27.4593 C   0  0  0  0  0  0  0  0  0  0  0  0
   -8.7468    5.1251   26.6967 C   0  0  0  0  0  0  0  0  0  0  0  0
   -9.7234    4.8589   25.8202 C   0  0  0  0  0  0  0  0  0  0  0  0
   -9.9711    3.5858   25.4266 C   0  0  0  0  0  0  0  0  0  0  0  0
   -9.2266    2.4957   25.9600 C   0  0  0  0  0  0  0  0  0  0  0  0
   -7.8394    0.3721   27.3404 C   0  0  0  0  0  0  0  0  0  0  0  0
   -8.9869    0.1878   26.4476 C   0  0  0  0  0  0  0  0  0  0  0  0
   -9.6379    1.1710   25.7653 C   0  0  0  0  0  0  0  0  0  0  0  0
   -8.3911    6.5360   27.0721 C   0  0  0  0  0  0  0  0  0  0  0  0
   -8.0015    7.6163   27.1024 N   0  0  0  0  0  0  0  0  0  0  0  0
   -7.1524   -0.6701   27.9935 C   0  0  1  0  0  0  0  0  0  0  0  0
   -5.8592   -0.4850   28.4336 C   0  0  0  0  0  0  0  0  0  0  0  0
   -5.2581   -1.3647   29.3897 C   0  0  0  0  0  0  0  0  0  0  0  0
   -6.0372   -2.4566   29.7565 C   0  0  0  0  0  0  0  0  0  0  0  0
   -7.8006   -1.7415   28.6222 C   0  0  0  0  0  0  0  0  0  0  0  0
   -9.2171   -1.8741   28.2424 C   0  0  0  0  0  0  0  0  0  0  0  0
  4 11  1  0
 11 12  3  0
  8 13  1  0
 13 14  1  0
 14 15  2  3
 15 16  1  0
 13 17  1  1
 17 18  2  0
  1  2  2  0
  7  6  2  0
  6  5  1  0
  5  4  2  0
  4  1  1  0
  2  3  1  0
  3  8  2  0
  8  9  1  0
  9 10  2  0
 10  7  1  0
  7  2  1  0
M  END
$$$$
