No_2912-complexes_sdf/6BKW-FPZ/2024-09-17-14-21-01/
     RDKit          3D

 28 32  0  0  0  0  0  0  0  0999 V2000
   -7.7129    4.2099   27.0854 C   0  0  0  0  0  0  0  0  0  0  0  0
   -8.2112    3.0637   26.9225 C   0  0  0  0  0  0  0  0  0  0  0  0
   -8.5108    5.3904   26.9436 C   0  0  0  0  0  0  0  0  0  0  0  0
   -7.9752    6.6981   27.2112 C   0  0  0  0  0  0  0  0  0  0  0  0
   -9.5213    2.8208   26.4688 C   0  0  0  0  0  0  0  0  0  0  0  0
  -10.2979    3.9327   26.2378 C   0  0  0  0  0  0  0  0  0  0  0  0
   -9.7894    5.2123   26.4395 C   0  0  0  0  0  0  0  0  0  0  0  0
   -7.1925    1.6286   27.2384 Cl  0  0  0  0  0  0  0  0  0  0  0  0
   -6.9338    6.8511   27.8813 N   0  0  0  0  0  0  0  0  0  0  0  0
   -8.5442    7.8892   26.5802 C   0  0  0  0  0  0  0  0  0  0  0  0
  -10.1721    1.5218   26.2536 C   0  0  0  0  0  0  0  0  0  0  0  0
  -10.5661    1.1676   25.1048 C   0  0  0  0  0  0  0  0  0  0  0  0
  -11.1272   -0.1414   24.8558 C   0  0  0  0  0  0  0  0  0  0  0  0
  -11.1575   -1.0202   25.9598 C   0  0  0  0  0  0  0  0  0  0  0  0
  -10.6974   -0.6407   27.2025 C   0  0  0  0  0  0  0  0  0  0  0  0
  -10.1507    0.6276   27.4292 C   0  0  0  0  0  0  0  0  0  0  0  0
  -10.8530   -1.5583   28.3842 C   0  0  0  0  0  0  0  0  0  0  0  0
  -10.6796   -1.2356   29.3444 C   0  0  0  0  0  0  0  0  0  0  0  0
  -10.8225   -2.1959   30.5162 C   0  0  0  0  0  0  0  0  0  0  0  0
  -11.1031   -3.4700   30.2539 C   0  0  0  0  0  0  0  0  0  0  0  0
  -11.1631   -2.9151   28.1164 C   0  0  0  0  0  0  0  0  0  0  0  0
  -11.3035   -3.8154   29.0084 C   0  0  0  0  0  0  0  0  0  0  0  0
  -11.7289   -5.4235   28.5821 Cl  0  0  0  0  0  0  0  0  0  0  0  0
  -11.6092   -0.5199   23.6158 C   0  0  0  0  0  0  0  0  0  0  0  0
  -11.9819   -1.6409   23.3988 C   0  0  0  0  0  0  0  0  0  0  0  0
  -12.0391   -2.5809   24.5283 C   0  0  0  0  0  0  0  0  0  0  0  0
  -11.6312   -2.2635   25.7116 C   0  0  0  0  0  0  0  0  0  0  0  0
  -11.5717   -3.2312   26.6909 C   0  0  0  0  0  0  0  0  0  0  0  0
  3  4  1  0
  2  8  1  0
  4  9  2  0
  4 10  1  0
  5 11  1  0
 15 17  1  0
 22 23  1  0
 21 28  1  0
 27 28  1  0
 17 18  2  0
 18 19  1  0
 19 20  2  0
 20 22  1  0
 22 21  2  0
 21 17  1  0
  1  2  2  0
  2  5  1  0
  5  6  2  0
  6  7  1  0
  7  3  2  0
  3  1  1  0
 14 27  2  0
 27 26  1  0
 26 25  2  0
 25 24  1  0
 24 13  2  0
 11 12  2  0
 12 13  1  0
 13 14  1  0
 14 15  1  0
 15 16  2  0
 16 11  1  0
M  END
$$$$
