No_2423-complexes_sdf/6BKW-FPZ/2024-09-17-14-21-01/
     RDKit          3D

  7  7  0  0  0  0  0  0  0  0999 V2000
   -7.7129    4.2099   27.0854 C   0  0  0  0  0  0  0  0  0  0  0  0
   -8.9133    4.4736   27.0998 C   0  0  0  0  0  0  0  0  0  0  0  0
   -9.8363    3.8127   27.2418 C   0  0  0  0  0  0  0  0  0  0  0  0
   -6.5688    5.1503   27.2707 C   0  0  0  0  0  0  0  0  0  0  0  0
   -9.6233    2.3357   27.4033 C   0  0  0  0  0  0  0  0  0  0  0  0
   -8.2711    1.9262   27.4324 C   0  0  0  0  0  0  0  0  0  0  0  0
   -7.3066    2.9098   27.3736 C   0  0  0  0  0  0  0  0  0  0  0  0
  1  4  1  0
  1  2  2  0
  2  3  1  0
  3  5  2  0
  5  6  1  0
  6  7  2  0
  7  1  1  0
M  END
$$$$
