No_2772-complexes_sdf/6BKW-FPZ/2024-09-17-14-21-01/
     RDKit          3D

 16 17  0  0  0  0  0  0  0  0999 V2000
   -7.2496    3.8871   27.4508 C   0  0  0  0  0  0  0  0  0  0  0  0
   -8.5096    4.0291   27.2770 C   0  0  0  0  0  0  0  0  0  0  0  0
   -9.3502    2.8685   26.8763 C   0  0  0  0  0  0  0  0  0  0  0  0
   -6.6288    2.5513   27.4938 C   0  0  0  0  0  0  0  0  0  0  0  0
   -7.4365    1.4714   27.2032 C   0  0  0  0  0  0  0  0  0  0  0  0
   -8.7772    1.6579   26.9338 C   0  0  0  0  0  0  0  0  0  0  0  0
   -9.1078    5.3660   27.2249 C   0  0  0  0  0  0  0  0  0  0  0  0
   -8.3546    6.4796   26.8735 C   0  0  0  0  0  0  0  0  0  0  0  0
   -8.8296    7.8124   27.0217 C   0  0  0  0  0  0  0  0  0  0  0  0
   -6.8200    0.1582   27.2523 C   0  0  0  0  0  0  0  0  0  0  0  0
   -7.4553   -0.9223   27.1607 C   0  0  0  0  0  0  0  0  0  0  0  0
   -6.8483   -2.1571   27.2638 C   0  0  0  0  0  0  0  0  0  0  0  0
   -5.3856    0.0912   27.3963 C   0  0  0  0  0  0  0  0  0  0  0  0
   -4.7362   -1.1294   27.5030 C   0  0  0  0  0  0  0  0  0  0  0  0
   -5.4946   -2.2586   27.4240 C   0  0  0  0  0  0  0  0  0  0  0  0
  -10.4779    5.4664   27.5144 C   0  0  0  0  0  0  0  0  0  0  0  0
  2  7  1  0
  7  8  2  3
  8  9  1  0
  5 10  1  0
  7 16  1  0
  1  2  2  0
  2  3  1  0
  3  6  2  0
  6  5  1  0
  5  4  2  0
  4  1  1  0
 10 11  2  0
 11 12  1  0
 12 15  2  0
 15 14  1  0
 14 13  2  0
 13 10  1  0
M  END
$$$$
