No_221-complexes_sdf/6BKW-FPZ/2024-09-17-14-21-01/
     RDKit          3D

 13 13  0  0  0  0  0  0  0  0999 V2000
   -7.7129    4.2099   27.0854 C   0  0  1  0  0  0  0  0  0  0  0  0
   -8.9133    4.4736   27.0998 C   0  0  2  0  0  0  0  0  0  0  0  0
   -9.7135    3.9633   26.0300 C   0  0  0  0  0  0  0  0  0  0  0  0
   -6.8420    4.9760   28.0851 C   0  0  0  0  0  0  0  0  0  0  0  0
   -9.6552    4.2399   24.9004 C   0  0  0  0  0  0  0  0  0  0  0  0
  -10.3675    3.7380   23.7526 C   0  0  0  0  0  0  0  0  0  0  0  0
  -11.1614    2.6751   23.9753 C   0  0  0  0  0  0  0  0  0  0  0  0
  -10.6806    2.8936   26.3035 C   0  0  0  0  0  0  0  0  0  0  0  0
  -11.3855    2.2744   25.2833 C   0  0  0  0  0  0  0  0  0  0  0  0
   -9.5226    5.3615   28.0204 C   0  0  0  0  0  0  0  0  0  0  0  0
   -8.8734    3.5643   27.8911 C   0  0  1  0  0  0  0  0  0  0  0  0
   -9.5319    2.4520   28.0540 C   0  0  0  0  0  0  0  0  0  0  0  0
   -8.6924    4.1513   29.1933 F   0  0  0  0  0  0  0  0  0  0  0  0
  1  2  1  0
  2  3  1  0
  1  4  1  1
  2 10  1  6
  1 11  1  0
 11 12  1  1
 11 13  1  0
  3  5  2  0
  5  6  1  0
  6  7  2  0
  7  9  1  0
  9  8  2  0
  8  3  1  0
M  END
$$$$
