No_2701-complexes_sdf/6BKW-FPZ/2024-09-17-14-21-01/
     RDKit          3D

 24 26  0  0  0  0  0  0  0  0999 V2000
   -7.2496    3.8871   27.4508 C   0  0  0  0  0  0  0  0  0  0  0  0
   -7.9379    4.9063   27.8518 C   0  0  0  0  0  0  0  0  0  0  0  0
   -9.3460    4.8223   27.8695 C   0  0  0  0  0  0  0  0  0  0  0  0
   -7.8628    2.6163   27.1065 C   0  0  0  0  0  0  0  0  0  0  0  0
   -9.2787    2.5744   27.1970 C   0  0  0  0  0  0  0  0  0  0  0  0
  -10.0108    3.6770   27.6340 C   0  0  0  0  0  0  0  0  0  0  0  0
  -11.4834    3.5674   27.7432 C   0  0  0  0  0  0  0  0  0  0  0  0
  -11.9395    2.6434   28.4995 C   0  0  0  0  0  0  0  0  0  0  0  0
  -13.3550    2.4593   28.7913 C   0  0  0  0  0  0  0  0  0  0  0  0
  -14.1867    3.4420   28.2483 C   0  0  0  0  0  0  0  0  0  0  0  0
  -13.6865    4.4698   27.4825 C   0  0  0  0  0  0  0  0  0  0  0  0
  -12.3085    4.6362   27.2712 C   0  0  0  0  0  0  0  0  0  0  0  0
   -7.1243    1.1783   26.7555 Cl  0  0  0  0  0  0  0  0  0  0  0  0
   -7.3138    6.0698   28.0809 O   0  0  0  0  0  0  0  0  0  0  0  0
  -15.9007    3.3105   28.4751 Cl  0  0  0  0  0  0  0  0  0  0  0  0
  -13.9626    1.1714   29.7214 Cl  0  0  0  0  0  0  0  0  0  0  0  0
  -14.6484    5.4389   27.1440 O   0  0  0  0  0  0  0  0  0  0  0  0
  -14.8276    6.4243   27.1352 C   0  0  0  0  0  0  0  0  0  0  0  0
  -15.4627    6.8676   28.4252 C   0  0  0  0  0  0  0  0  0  0  0  0
  -15.3689    6.3152   29.5195 C   0  0  0  0  0  0  0  0  0  0  0  0
  -15.9369    6.8561   30.7399 C   0  0  0  0  0  0  0  0  0  0  0  0
  -16.7801    7.9572   30.6178 C   0  0  0  0  0  0  0  0  0  0  0  0
  -16.9417    8.6117   29.4082 C   0  0  0  0  0  0  0  0  0  0  0  0
  -16.2956    8.1289   28.2549 C   0  0  0  0  0  0  0  0  0  0  0  0
  6  7  1  0
  4 13  1  0
  2 14  1  0
 10 15  1  0
  9 16  1  0
 11 17  1  0
 17 18  1  0
 18 19  1  0
  1  2  2  0
  2  3  1  0
  3  6  2  0
  6  5  1  0
  5  4  2  0
  4  1  1  0
 19 20  2  0
 20 21  1  0
 21 22  2  0
 22 23  1  0
 23 24  2  0
 24 19  1  0
  7  8  2  0
  8  9  1  0
  9 10  2  0
 10 11  1  0
 11 12  2  0
 12  7  1  0
M  END
$$$$
