No_2796-complexes_sdf/6BKW-FPZ/2024-09-17-14-21-01/
     RDKit          3D

 15 15  0  0  0  0  0  0  0  0999 V2000
   -7.9040    3.9820   27.1177 C   0  0  0  0  0  0  0  0  0  0  0  0
   -8.2057    2.8231   26.8733 C   0  0  0  0  0  0  0  0  0  0  0  0
   -9.2962    2.4021   26.1155 C   0  0  0  0  0  0  0  0  0  0  0  0
   -8.7358    5.0662   26.5917 C   0  0  0  0  0  0  0  0  0  0  0  0
   -9.7618    4.7023   25.7546 C   0  0  0  0  0  0  0  0  0  0  0  0
  -10.0066    3.4105   25.4922 C   0  0  0  0  0  0  0  0  0  0  0  0
   -8.3943    6.4760   26.8801 C   0  0  0  0  0  0  0  0  0  0  0  0
   -8.6599    6.8011   28.0203 F   0  0  0  0  0  0  0  0  0  0  0  0
   -9.0760    7.3183   25.9822 F   0  0  0  0  0  0  0  0  0  0  0  0
   -7.0701    6.7350   26.8066 F   0  0  0  0  0  0  0  0  0  0  0  0
   -7.2272    1.5010   27.6077 Cl  0  0  0  0  0  0  0  0  0  0  0  0
  -11.1188    3.1478   24.5721 C   0  0  0  0  0  0  0  0  0  0  0  0
  -12.6168    2.7201   24.9972 Cl  0  0  0  0  0  0  0  0  0  0  0  0
  -10.8668    3.3189   23.1548 C   0  0  0  0  0  0  0  0  0  0  0  0
  -10.8650    4.4351   22.4999 C   0  0  0  0  0  0  0  0  0  0  0  0
  4  7  1  0
  7  8  1  0
  7  9  1  0
  7 10  1  0
  2 11  1  0
  6 12  1  0
 12 13  1  0
 12 14  1  0
 14 15  2  0
  1  2  2  0
  2  3  1  0
  3  6  2  0
  6  5  1  0
  5  4  2  0
  4  1  1  0
M  END
$$$$
