No_2379-complexes_sdf/6BKW-FPZ/2024-09-17-14-21-01/
     RDKit          3D

 18 21  0  0  0  0  0  0  0  0999 V2000
   -7.2496    3.8871   27.4508 C   0  0  0  0  0  0  0  0  0  0  0  0
   -8.5096    4.0291   27.2770 C   0  0  0  0  0  0  0  0  0  0  0  0
   -9.3451    2.8786   26.9046 C   0  0  0  0  0  0  0  0  0  0  0  0
  -10.6709    3.0505   26.6789 C   0  0  0  0  0  0  0  0  0  0  0  0
   -6.6581    2.5721   27.5327 C   0  0  0  0  0  0  0  0  0  0  0  0
   -7.4631    1.4726   27.2657 C   0  0  0  0  0  0  0  0  0  0  0  0
   -8.8003    1.6549   26.9477 C   0  0  0  0  0  0  0  0  0  0  0  0
  -11.5551    2.4670   27.1860 C   0  0  0  0  0  0  0  0  0  0  0  0
  -12.7591    2.4951   27.3922 C   0  0  0  0  0  0  0  0  0  0  0  0
  -13.6784    1.6580   28.2136 C   0  0  0  0  0  0  0  0  0  0  0  0
  -13.0590    0.5482   28.7745 C   0  0  0  0  0  0  0  0  0  0  0  0
  -11.7418    0.2856   28.6549 C   0  0  0  0  0  0  0  0  0  0  0  0
  -10.9724    1.1541   28.0546 C   0  0  0  0  0  0  0  0  0  0  0  0
   -9.5619    0.8395   27.8357 C   0  0  0  0  0  0  0  0  0  0  0  0
   -9.0432    5.4180   27.1976 C   0  0  0  0  0  0  0  0  0  0  0  0
   -8.3968    6.5327   27.4886 C   0  0  0  0  0  0  0  0  0  0  0  0
   -7.0048    6.4972   27.4256 C   0  0  0  0  0  0  0  0  0  0  0  0
   -6.4187    5.1343   27.7158 C   0  0  0  0  0  0  0  0  0  0  0  0
  2  3  1  0
  7  6  1  0
  6  5  2  0
  5  1  1  0
  3  4  2  0
  4  8  1  0
 13 14  1  0
 14  7  2  0
  7  3  1  0
  8  9  2  0
  9 10  1  0
 10 11  2  0
 11 12  1  0
 12 13  2  0
 13  8  1  0
  1  2  2  0
  2 15  1  0
 15 16  2  0
 16 17  1  0
 17 18  2  0
 18  1  1  0
M  END
$$$$
