No_2490-complexes_sdf/6BKW-FPZ/2024-09-17-14-21-01/
     RDKit          3D

 12 13  0  0  0  0  0  0  0  0999 V2000
   -7.9040    3.9820   27.1177 C   0  0  0  0  0  0  0  0  0  0  0  0
   -7.8663    4.8694   27.9238 C   0  0  0  0  0  0  0  0  0  0  0  0
   -7.4698    2.6989   27.4277 C   0  0  0  0  0  0  0  0  0  0  0  0
   -7.9683    1.5964   26.8266 C   0  0  0  0  0  0  0  0  0  0  0  0
   -8.9447    1.7923   25.8533 C   0  0  0  0  0  0  0  0  0  0  0  0
   -9.4405    2.9988   25.5757 C   0  0  0  0  0  0  0  0  0  0  0  0
  -10.4397    3.2630   24.6146 C   0  0  0  0  0  0  0  0  0  0  0  0
   -8.9100    4.1245   26.1959 C   0  0  0  0  0  0  0  0  0  0  0  0
   -8.1485    6.2235   27.6749 O   0  0  0  0  0  0  0  0  0  0  0  0
  -10.7256    2.3680   23.6174 C   0  0  0  0  0  0  0  0  0  0  0  0
  -10.1232    1.0584   23.8866 C   0  0  0  0  0  0  0  0  0  0  0  0
   -9.3062    0.7597   24.9404 C   0  0  0  0  0  0  0  0  0  0  0  0
  1  2  2  0
  1  3  1  0
  3  4  1  0
  4  5  1  0
  1  8  1  0
  6  8  1  0
  2  9  2  0
  5  6  2  0
  6  7  1  0
  7 10  2  0
 10 11  1  0
 11 12  2  0
 12  5  1  0
M  END
$$$$
