No_2477-complexes_sdf/6BKW-FPZ/2024-09-17-14-21-01/
     RDKit          3D

 17 18  0  0  0  0  0  0  0  0999 V2000
   -7.9040    3.9820   27.1177 C   0  0  0  0  0  0  0  0  0  0  0  0
   -7.8663    4.8694   27.9238 C   0  0  0  0  0  0  0  0  0  0  0  0
   -9.0501    3.8017   26.2617 C   0  0  0  0  0  0  0  0  0  0  0  0
  -10.0189    4.7608   26.3707 C   0  0  0  0  0  0  0  0  0  0  0  0
   -8.6973    5.9722   27.8968 C   0  0  0  0  0  0  0  0  0  0  0  0
   -9.8216    5.8946   27.1241 C   0  0  0  0  0  0  0  0  0  0  0  0
   -9.1313    2.7565   25.4802 F   0  0  0  0  0  0  0  0  0  0  0  0
   -6.9976    2.9125   27.1125 O   0  0  0  0  0  0  0  0  0  0  0  0
   -7.3891    1.5787   27.0957 C   0  0  0  0  0  0  0  0  0  0  0  0
   -6.2840    0.7117   27.2359 C   0  0  0  0  0  0  0  0  0  0  0  0
   -6.4696   -0.6597   27.2442 C   0  0  0  0  0  0  0  0  0  0  0  0
   -5.3914   -1.5028   27.4238 C   0  0  0  0  0  0  0  0  0  0  0  0
   -4.0938   -0.9597   27.6767 C   0  0  0  0  0  0  0  0  0  0  0  0
   -3.9546    0.4559   27.7043 C   0  0  0  0  0  0  0  0  0  0  0  0
   -5.0101    1.2627   27.5693 C   0  0  0  0  0  0  0  0  0  0  0  0
   -2.6027   -2.0552   27.9312 Br  0  0  0  0  0  0  0  0  0  0  0  0
   -8.4800    1.1449   26.9218 O   0  0  0  0  0  0  0  0  0  0  0  0
  3  7  1  0
  1  8  1  0
  8  9  1  0
  9 10  1  0
 13 16  1  0
  9 17  2  0
  1  2  2  0
  2  5  1  0
  5  6  2  0
  6  4  1  0
  4  3  2  0
  3  1  1  0
 10 11  2  0
 11 12  1  0
 12 13  2  0
 13 14  1  0
 14 15  2  0
 15 10  1  0
M  END
$$$$
