No_293-complexes_sdf/6BKW-FPZ/2024-09-17-14-21-01/
     RDKit          3D

 19 21  0  0  0  0  0  0  0  0999 V2000
   -7.7129    4.2099   27.0854 C   0  0  0  0  0  0  0  0  0  0  0  0
   -8.9133    4.4736   27.0998 C   0  0  0  0  0  0  0  0  0  0  0  0
   -9.4643    5.5426   27.7628 C   0  0  0  0  0  0  0  0  0  0  0  0
   -6.8373    4.9942   27.9785 C   0  0  0  0  0  0  0  0  0  0  0  0
   -7.3877    5.9975   28.6412 N   0  0  0  0  0  0  0  0  0  0  0  0
   -8.6539    6.3468   28.4764 C   0  0  0  0  0  0  0  0  0  0  0  0
   -9.8040    3.5872   26.2258 C   0  0  0  0  0  0  0  0  0  0  0  0
  -10.0230    3.9955   24.8454 C   0  0  0  0  0  0  0  0  0  0  0  0
  -10.6439    3.2487   23.9393 C   0  0  0  0  0  0  0  0  0  0  0  0
  -10.7807    3.7144   22.5896 C   0  0  0  0  0  0  0  0  0  0  0  0
  -11.2231    2.9019   21.5745 C   0  0  0  0  0  0  0  0  0  0  0  0
  -11.4389    1.5506   21.8503 C   0  0  0  0  0  0  0  0  0  0  0  0
  -11.2809    1.0716   23.1019 C   0  0  0  0  0  0  0  0  0  0  0  0
  -10.7648    1.8501   24.1373 C   0  0  0  0  0  0  0  0  0  0  0  0
  -10.3466    2.4333   26.7383 C   0  0  0  0  0  0  0  0  0  0  0  0
  -10.6194    1.3130   25.6847 C   0  0  0  0  0  0  0  0  0  0  0  0
  -10.7648   -0.0367   25.9166 C   0  0  0  0  0  0  0  0  0  0  0  0
   -9.6990   -0.6269   26.2319 C   0  0  0  0  0  0  0  0  0  0  0  0
   -9.7882   -2.0508   26.6744 C   0  0  0  0  0  0  0  0  0  0  0  0
  2  7  1  0
 16 17  1  0
 17 18  2  3
 18 19  1  0
  1  2  2  0
  2  3  1  0
  3  6  2  0
  6  5  1  0
  5  4  2  0
  4  1  1  0
  9 10  2  0
 10 11  1  0
 11 12  2  0
 12 13  1  0
 13 14  2  0
  7  8  2  0
  8  9  1  0
  9 14  1  0
 14 16  1  0
 16 15  2  0
 15  7  1  0
M  END
$$$$
