No_2307-complexes_sdf/6BKW-FPZ/2024-09-17-14-21-01/
     RDKit          3D

 18 19  0  0  0  0  0  0  0  0999 V2000
   -7.2496    3.8871   27.4508 C   0  0  0  0  0  0  0  0  0  0  0  0
   -7.6161    2.7143   27.1523 C   0  0  0  0  0  0  0  0  0  0  0  0
   -8.8302    2.4659   26.5056 C   0  0  0  0  0  0  0  0  0  0  0  0
   -8.1584    5.0090   27.3234 C   0  0  0  0  0  0  0  0  0  0  0  0
   -9.3788    4.7965   26.7695 C   0  0  0  0  0  0  0  0  0  0  0  0
   -9.7028    3.5649   26.3276 C   0  0  0  0  0  0  0  0  0  0  0  0
   -6.7182    1.5519   27.3631 C   0  0  0  0  0  0  0  0  0  0  0  0
   -5.5596    1.7410   28.0262 N   0  0  0  0  0  0  0  0  0  0  0  0
   -7.0052    0.2404   26.9845 C   0  0  0  0  0  0  0  0  0  0  0  0
   -4.7541    0.6608   28.2284 C   0  0  0  0  0  0  0  0  0  0  0  0
   -6.2085   -0.8074   27.2232 C   0  0  0  0  0  0  0  0  0  0  0  0
   -4.9327   -0.4596   27.9682 C   0  0  0  0  0  0  0  0  0  0  0  0
   -7.7916    6.6062   27.9284 Cl  0  0  0  0  0  0  0  0  0  0  0  0
   -3.5282    1.0875   28.9609 N   0  0  0  0  0  0  0  0  0  0  0  0
  -10.9920    3.3662   25.6318 C   0  0  0  0  0  0  0  0  0  0  0  0
  -11.0052    3.6307   24.2812 C   0  0  0  0  0  0  0  0  0  0  0  0
  -10.1415    4.1779   23.6064 C   0  0  0  0  0  0  0  0  0  0  0  0
  -10.2453    4.5507   22.1906 C   0  0  0  0  0  0  0  0  0  0  0  0
  2  7  1  0
  4 13  1  0
 10 14  1  0
  6 15  1  0
 15 16  1  0
 16 17  2  3
 17 18  1  0
  1  2  2  0
  2  3  1  0
  3  6  2  0
  6  5  1  0
  5  4  2  0
  4  1  1  0
  7  8  2  0
  8 10  1  0
 10 12  2  0
 12 11  1  0
 11  9  2  0
  9  7  1  0
M  END
$$$$
