No_2552-complexes_sdf/6BKW-FPZ/2024-09-17-14-21-01/
     RDKit          3D

 12 12  0  0  0  0  0  0  0  0999 V2000
   -7.2496    3.8871   27.4508 C   0  0  0  0  0  0  0  0  0  0  0  0
   -7.9379    4.9063   27.8518 C   0  0  0  0  0  0  0  0  0  0  0  0
   -7.5112    6.1898   27.6280 C   0  0  0  0  0  0  0  0  0  0  0  0
   -9.4044    4.7330   27.8015 C   0  0  0  0  0  0  0  0  0  0  0  0
   -7.6918    2.5968   27.9026 C   0  0  0  0  0  0  0  0  0  0  0  0
   -9.9687    3.4784   28.1557 C   0  0  0  0  0  0  0  0  0  0  0  0
  -11.3719    3.3133   28.4053 C   0  0  0  0  0  0  0  0  0  0  0  0
   -9.1091    2.3730   28.0453 C   0  0  0  0  0  0  0  0  0  0  0  0
  -12.2259    3.0156   27.5747 C   0  0  0  0  0  0  0  0  0  0  0  0
  -11.9161    2.6962   26.2781 C   0  0  0  0  0  0  0  0  0  0  0  0
  -12.9145    2.4289   25.2936 C   0  0  0  0  0  0  0  0  0  0  0  0
  -14.2183    2.5794   25.6119 C   0  0  0  0  0  0  0  0  0  0  0  0
  2  3  1  0
  6  7  1  0
  7  9  2  3
  9 10  1  0
 10 11  2  3
 11 12  1  0
  1  2  2  0
  2  4  1  0
  4  6  2  0
  6  8  1  0
  8  5  2  0
  5  1  1  0
M  END
$$$$
