No_2344-complexes_sdf/6BKW-FPZ/2024-09-17-14-21-01/
     RDKit          3D

 16 16  0  0  0  0  0  0  0  0999 V2000
   -7.9040    3.9820   27.1177 C   0  0  0  0  0  0  0  0  0  0  0  0
   -9.0711    4.3164   27.0630 C   0  0  0  0  0  0  0  0  0  0  0  0
   -9.5294    5.4517   27.7215 C   0  0  0  0  0  0  0  0  0  0  0  0
   -9.9845    3.5634   26.2189 C   0  0  0  0  0  0  0  0  0  0  0  0
  -10.7684    4.0785   25.5182 C   0  0  0  0  0  0  0  0  0  0  0  0
   -7.4478    2.6253   26.8734 C   0  0  0  0  0  0  0  0  0  0  0  0
   -8.3462    1.8107   26.1906 C   0  0  0  0  0  0  0  0  0  0  0  0
   -9.5143    2.3373   25.7549 C   0  0  0  0  0  0  0  0  0  0  0  0
   -7.8480    0.4241   25.9365 C   0  0  2  0  0  0  0  0  0  0  0  0
   -7.9913   -0.2621   24.8921 C   0  0  0  0  0  0  0  0  0  0  0  0
   -7.3288   -0.2827   27.1326 C   0  0  0  0  0  0  0  0  0  0  0  0
   -6.2718   -0.0251   27.6935 C   0  0  0  0  0  0  0  0  0  0  0  0
   -5.6943   -0.7649   28.7883 C   0  0  0  0  0  0  0  0  0  0  0  0
   -4.4550   -0.3737   29.4174 C   0  0  0  0  0  0  0  0  0  0  0  0
   -3.8656    0.8566   28.9686 C   0  0  0  0  0  0  0  0  0  0  0  0
   -4.4095    1.6034   27.9610 C   0  0  0  0  0  0  0  0  0  0  0  0
  2  3  1  0
  4  5  1  0
  7  9  1  0
  9 10  1  1
  9 11  1  0
 11 12  2  3
 12 13  1  0
 13 14  2  3
 14 15  1  0
 15 16  2  0
  1  2  2  0
  2  4  1  0
  4  8  2  0
  8  7  1  0
  7  6  2  0
  6  1  1  0
M  END
$$$$
