No_2320-complexes_sdf/6BKW-FPZ/2024-09-17-14-21-01/
     RDKit          3D

  9  9  0  0  0  0  0  0  0  0999 V2000
   -7.7129    4.2099   27.0854 C   0  0  0  0  0  0  0  0  0  0  0  0
   -7.7814    5.1722   27.8972 C   0  0  0  0  0  0  0  0  0  0  0  0
   -8.7889    3.2468   27.2220 C   0  0  0  0  0  0  0  0  0  0  0  0
   -9.8671    3.4455   28.0317 C   0  0  0  0  0  0  0  0  0  0  0  0
   -8.9592    5.6476   28.6200 C   0  0  0  0  0  0  0  0  0  0  0  0
   -9.9658    4.7049   28.7257 C   0  0  0  0  0  0  0  0  0  0  0  0
   -8.6765    1.9196   26.5405 C   0  0  0  0  0  0  0  0  0  0  0  0
   -7.8364    0.9544   27.0012 C   0  0  0  0  0  0  0  0  0  0  0  0
   -7.7146   -0.2919   26.4029 C   0  0  0  0  0  0  0  0  0  0  0  0
  3  7  1  0
  7  8  2  3
  8  9  1  0
  1  2  2  0
  2  5  1  0
  5  6  2  0
  6  4  1  0
  4  3  2  0
  3  1  1  0
M  END
$$$$
