No_2256-complexes_sdf/6BKW-FPZ/2024-09-17-14-21-01/
     RDKit          3D

 40 45  0  0  0  0  0  0  0  0999 V2000
   -7.2496    3.8871   27.4508 C   0  0  1  0  0  0  0  0  0  0  0  0
   -8.5096    4.0291   27.2770 C   0  0  0  0  0  0  0  0  0  0  0  0
   -9.2669    5.1645   27.5845 C   0  0  0  0  0  0  0  0  0  0  0  0
  -10.6621    5.2321   27.4284 C   0  0  0  0  0  0  0  0  0  0  0  0
   -9.4015    2.8584   27.0493 C   0  0  0  0  0  0  0  0  0  0  0  0
  -10.7403    2.9034   26.9017 C   0  0  0  0  0  0  0  0  0  0  0  0
  -11.4138    4.1390   27.1285 C   0  0  0  0  0  0  0  0  0  0  0  0
   -6.6420    2.6491   27.3213 N   0  0  0  0  0  0  0  0  0  0  0  0
   -5.3621    2.4933   27.8109 C   0  0  0  0  0  0  0  0  0  0  0  0
   -7.2420    1.5633   26.8124 C   0  0  0  0  0  0  0  0  0  0  0  0
   -8.6835    1.6457   26.7714 C   0  0  0  0  0  0  0  0  0  0  0  0
   -5.0793    1.6930   28.4976 O   0  0  0  0  0  0  0  0  0  0  0  0
   -4.4866    3.3860   27.2494 O   0  0  0  0  0  0  0  0  0  0  0  0
   -8.5365    6.4735   27.7764 C   0  0  0  0  0  0  0  0  0  0  0  0
   -7.1878    6.4602   27.3235 C   0  0  0  0  0  0  0  0  0  0  0  0
   -6.5048    5.1581   27.5122 C   0  0  0  0  0  0  0  0  0  0  0  0
  -11.5672    1.7402   26.7013 C   0  0  0  0  0  0  0  0  0  0  0  0
  -12.5023    1.5269   27.5648 C   0  0  0  0  0  0  0  0  0  0  0  0
  -12.7007    0.7960   28.2914 C   0  0  0  0  0  0  0  0  0  0  0  0
  -13.8867    0.5950   29.2662 C   0  0  0  0  0  0  0  0  0  0  0  0
  -14.8171    1.5975   29.1983 C   0  0  0  0  0  0  0  0  0  0  0  0
  -14.6497    2.6070   28.3375 C   0  0  0  0  0  0  0  0  0  0  0  0
  -13.5659    2.6973   27.5541 C   0  0  0  0  0  0  0  0  0  0  0  0
  -11.6229   -0.6350   28.5368 Cl  0  0  0  0  0  0  0  0  0  0  0  0
  -15.6836    3.7277   28.3525 C   0  0  1  0  0  0  0  0  0  0  0  0
  -15.6038    4.5865   29.3222 C   0  0  0  0  0  0  0  0  0  0  0  0
  -15.4181    5.5762   29.5566 C   0  0  0  0  0  0  0  0  0  0  0  0
  -15.0546    6.6026   28.4837 C   0  0  0  0  0  0  0  0  0  0  0  0
  -15.1909    5.9395   27.2290 C   0  0  2  0  0  0  0  0  0  0  0  0
  -15.1098    6.5928   25.9788 C   0  0  0  0  0  0  0  0  0  0  0  0
  -15.5253    4.5499   27.0617 C   0  0  0  0  0  0  0  0  0  0  0  0
  -15.9653    6.5352   25.0485 C   0  0  0  0  0  0  0  0  0  0  0  0
  -17.0422    7.2686   25.1497 C   0  0  0  0  0  0  0  0  0  0  0  0
  -18.0499    7.2121   24.1181 C   0  0  0  0  0  0  0  0  0  0  0  0
  -15.7788    5.7187   23.9201 C   0  0  0  0  0  0  0  0  0  0  0  0
  -16.6833    5.6777   22.8692 C   0  0  0  0  0  0  0  0  0  0  0  0
  -17.8170    6.5056   22.9875 C   0  0  0  0  0  0  0  0  0  0  0  0
  -17.0573    3.0436   28.1653 C   0  0  0  0  0  0  0  0  0  0  0  0
  -17.5228    2.6185   27.0157 C   0  0  0  0  0  0  0  0  0  0  0  0
  -17.1189    2.7711   25.9818 C   0  0  0  0  0  0  0  0  0  0  0  0
  1  8  1  0
  8  9  1  0
  8 10  1  0
  5 11  1  0
  9 12  2  0
  9 13  1  0
  3 14  1  0
 14 15  1  0
  1 16  1  6
 15 16  1  0
  6 17  1  0
 17 18  1  0
 19 24  1  0
 22 25  1  0
 25 26  1  0
 27 28  1  0
 29 30  1  6
 25 31  1  0
 29 31  1  0
 30 32  1  0
 25 38  1  6
 38 39  1  0
 39 40  1  0
  1  2  1  0
 11 10  1  0
 26 27  1  0
 28 29  1  0
 18 19  2  0
 19 20  1  0
 20 21  2  0
 21 22  1  0
 22 23  2  0
 23 18  1  0
  2  3  1  0
  3  4  2  0
  4  7  1  0
  7  6  2  0
  6  5  1  0
  5  2  2  0
 32 33  2  0
 33 34  1  0
 34 37  2  0
 37 36  1  0
 36 35  2  0
 35 32  1  0
M  END
$$$$
