No_2871-complexes_sdf/6BKW-FPZ/2024-09-17-14-21-01/
     RDKit          3D

 24 26  0  0  0  0  0  0  0  0999 V2000
   -7.9040    3.9820   27.1177 C   0  0  0  0  0  0  0  0  0  0  0  0
   -8.2057    2.8231   26.8733 C   0  0  0  0  0  0  0  0  0  0  0  0
   -8.7695    5.0740   26.7916 C   0  0  0  0  0  0  0  0  0  0  0  0
   -8.4785    6.4289   27.2922 C   0  0  0  0  0  0  0  0  0  0  0  0
   -7.4254    1.6839   27.4940 C   0  0  0  0  0  0  0  0  0  0  0  0
   -6.0713    2.0530   27.8458 C   0  0  0  0  0  0  0  0  0  0  0  0
   -5.6850    3.4082   27.9616 C   0  0  0  0  0  0  0  0  0  0  0  0
   -6.5728    4.3655   27.6585 C   0  0  0  0  0  0  0  0  0  0  0  0
  -10.2072    4.6846   26.9246 C   0  0  0  0  0  0  0  0  0  0  0  0
   -5.1655    0.9571   28.2524 C   0  0  0  0  0  0  0  0  0  0  0  0
   -4.5688    0.3425   27.5622 N   0  0  0  0  0  0  0  0  0  0  0  0
   -3.4254   -0.1965   27.7893 C   0  0  0  0  0  0  0  0  0  0  0  0
   -2.5031   -0.5140   26.7057 C   0  0  0  0  0  0  0  0  0  0  0  0
   -2.8916   -0.5025   29.1434 C   0  0  0  0  0  0  0  0  0  0  0  0
   -4.9549    1.0368   29.5935 O   0  0  0  0  0  0  0  0  0  0  0  0
   -1.6474   -1.1460   29.2894 C   0  0  0  0  0  0  0  0  0  0  0  0
   -1.2553   -1.1466   26.9626 C   0  0  0  0  0  0  0  0  0  0  0  0
   -0.8245   -1.3861   28.2391 C   0  0  0  0  0  0  0  0  0  0  0  0
  -10.9155    4.2299   25.8644 C   0  0  0  0  0  0  0  0  0  0  0  0
  -12.2313    3.8892   25.8621 C   0  0  0  0  0  0  0  0  0  0  0  0
  -12.9123    4.1083   27.1350 C   0  0  0  0  0  0  0  0  0  0  0  0
  -12.1908    4.5560   28.2721 C   0  0  0  0  0  0  0  0  0  0  0  0
  -10.8816    4.8529   28.1924 C   0  0  0  0  0  0  0  0  0  0  0  0
   -8.6358    5.2503   25.1878 C   0  0  0  0  0  0  0  0  0  0  0  0
  1  3  1  0
  3  4  1  0
  3  9  1  0
  6 10  1  0
 10 11  1  0
 11 12  1  0
 10 15  2  0
  3 24  1  0
 12 13  2  0
 13 17  1  0
 17 18  2  0
 18 16  1  0
 16 14  2  0
 14 12  1  0
  1  2  2  0
  2  5  1  0
  5  6  2  0
  6  7  1  0
  7  8  2  0
  8  1  1  0
  9 19  2  0
 19 20  1  0
 20 21  2  0
 21 22  1  0
 22 23  2  0
 23  9  1  0
M  END
$$$$
