No_2378-complexes_sdf/6BKW-FPZ/2024-09-17-14-21-01/
     RDKit          3D

 15 16  0  0  0  0  0  0  0  0999 V2000
   -7.7129    4.2099   27.0854 C   0  0  0  0  0  0  0  0  0  0  0  0
   -8.9133    4.4736   27.0998 C   0  0  0  0  0  0  0  0  0  0  0  0
   -9.7135    3.9633   26.0300 C   0  0  0  0  0  0  0  0  0  0  0  0
   -6.8420    4.9760   28.0851 C   0  0  0  0  0  0  0  0  0  0  0  0
  -10.9164    3.4776   26.1173 C   0  0  0  0  0  0  0  0  0  0  0  0
  -11.6897    3.8137   27.2914 C   0  0  0  0  0  0  0  0  0  0  0  0
  -10.9876    4.2901   28.4232 C   0  0  0  0  0  0  0  0  0  0  0  0
   -9.6492    4.5388   28.3533 C   0  0  0  0  0  0  0  0  0  0  0  0
  -13.1233    3.4856   27.4111 C   0  0  0  0  0  0  0  0  0  0  0  0
  -13.7486    3.2723   26.6067 C   0  0  0  0  0  0  0  0  0  0  0  0
  -15.2281    2.9901   26.6993 C   0  0  0  0  0  0  0  0  0  0  0  0
  -13.6269    3.3850   28.7980 C   0  0  0  0  0  0  0  0  0  0  0  0
  -14.9567    3.1107   29.0442 C   0  0  0  0  0  0  0  0  0  0  0  0
  -15.7485    2.9092   27.9599 C   0  0  0  0  0  0  0  0  0  0  0  0
   -7.4856    6.0876   28.5988 C   0  0  0  0  0  0  0  0  0  0  0  0
  1  2  1  0
  1  4  1  0
  6  9  1  0
  4 15  1  0
  9 10  2  0
 10 11  1  0
 11 14  2  0
 14 13  1  0
 13 12  2  0
 12  9  1  0
  2  3  2  0
  3  5  1  0
  5  6  2  0
  6  7  1  0
  7  8  2  0
  8  2  1  0
M  END
$$$$
