No_2047-complexes_sdf/6BKW-FPZ/2024-09-17-14-21-01/
     RDKit          3D

  9  9  0  0  0  0  0  0  0  0999 V2000
   -7.2496    3.8871   27.4508 C   0  0  0  0  0  0  0  0  0  0  0  0
   -8.5096    4.0291   27.2770 C   0  0  0  0  0  0  0  0  0  0  0  0
   -9.3502    2.8685   26.8763 C   0  0  0  0  0  0  0  0  0  0  0  0
   -6.6288    2.5513   27.4938 C   0  0  0  0  0  0  0  0  0  0  0  0
   -7.4365    1.4714   27.2032 C   0  0  0  0  0  0  0  0  0  0  0  0
  -10.6956    3.0464   26.6122 C   0  0  0  0  0  0  0  0  0  0  0  0
   -8.7780    1.6365   26.9046 C   0  0  0  0  0  0  0  0  0  0  0  0
  -11.4709    2.2497   26.6900 C   0  0  0  0  0  0  0  0  0  0  0  0
  -10.9767    0.8087   26.8870 C   0  0  0  0  0  0  0  0  0  0  0  0
  3  6  1  0
  6  8  2  3
  8  9  1  0
  1  2  2  0
  2  3  1  0
  3  7  2  0
  7  5  1  0
  5  4  2  0
  4  1  1  0
M  END
$$$$
