No_2787-complexes_sdf/6BKW-FPZ/2024-09-17-14-21-01/
     RDKit          3D

 22 23  0  0  0  0  0  0  0  0999 V2000
   -7.7129    4.2099   27.0854 C   0  0  0  0  0  0  0  0  0  0  0  0
   -8.9133    4.4736   27.0998 C   0  0  0  0  0  0  0  0  0  0  0  0
   -9.8363    3.8127   27.2418 C   0  0  0  0  0  0  0  0  0  0  0  0
   -7.2995    2.8520   27.3808 C   0  0  0  0  0  0  0  0  0  0  0  0
   -8.3404    1.9507   27.4989 C   0  0  0  0  0  0  0  0  0  0  0  0
   -9.6166    2.3791   27.4719 C   0  0  0  0  0  0  0  0  0  0  0  0
   -9.3607    5.8924   26.9701 N   0  0  0  0  0  0  0  0  0  0  0  0
   -8.5195    6.8228   26.3296 C   0  0  0  0  0  0  0  0  0  0  0  0
   -8.0013    0.5168   27.7053 C   0  0  0  0  0  0  0  0  0  0  0  0
   -7.8342   -0.2665   26.7700 C   0  0  0  0  0  0  0  0  0  0  0  0
   -7.4355   -1.6448   26.9821 C   0  0  0  0  0  0  0  0  0  0  0  0
   -7.2347   -2.0241   28.3162 C   0  0  0  0  0  0  0  0  0  0  0  0
   -6.8889   -3.3641   28.5831 C   0  0  0  0  0  0  0  0  0  0  0  0
   -6.7869   -4.1974   27.5434 C   0  0  0  0  0  0  0  0  0  0  0  0
   -6.9699   -3.8509   26.2577 C   0  0  0  0  0  0  0  0  0  0  0  0
   -7.2872   -2.5040   25.9338 C   0  0  0  0  0  0  0  0  0  0  0  0
   -8.0569    0.0855   25.3749 C   0  0  0  0  0  0  0  0  0  0  0  0
   -7.0663    0.1600   24.7485 F   0  0  0  0  0  0  0  0  0  0  0  0
   -8.7119    1.3305   25.3920 F   0  0  0  0  0  0  0  0  0  0  0  0
   -8.9054   -0.7938   24.7398 F   0  0  0  0  0  0  0  0  0  0  0  0
   -9.5800    6.5245   28.3873 C   0  0  0  0  0  0  0  0  0  0  0  0
   -6.3785   -5.8730   27.8689 Cl  0  0  0  0  0  0  0  0  0  0  0  0
  2  7  1  0
  7  8  1  0
  5  9  1  0
  9 10  2  3
 10 11  1  0
 10 17  1  0
 17 18  1  0
 17 19  1  0
 17 20  1  0
  7 21  1  0
 14 22  1  0
 11 12  2  0
 12 13  1  0
 13 14  2  0
 14 15  1  0
 15 16  2  0
 16 11  1  0
  1  2  2  0
  2  3  1  0
  3  6  2  0
  6  5  1  0
  5  4  2  0
  4  1  1  0
M  END
$$$$
