No_2-complexes_sdf/6BKW-FPZ/2024-09-17-14-21-01/
     RDKit          3D

 20 21  0  0  0  0  0  0  0  0999 V2000
   -7.2496    3.8871   27.4508 C   0  0  0  0  0  0  0  0  0  0  0  0
   -7.6161    2.7143   27.1523 C   0  0  0  0  0  0  0  0  0  0  0  0
   -8.6212    2.2239   26.4074 C   0  0  0  0  0  0  0  0  0  0  0  0
   -8.2540    4.9237   27.1711 C   0  0  0  0  0  0  0  0  0  0  0  0
   -9.3729    4.5806   26.4433 C   0  0  0  0  0  0  0  0  0  0  0  0
   -9.5830    3.2969   26.1026 C   0  0  0  0  0  0  0  0  0  0  0  0
   -7.7429    6.2681   27.5726 C   0  0  0  0  0  0  0  0  0  0  0  0
  -10.7703    3.1494   25.2244 C   0  0  0  0  0  0  0  0  0  0  0  0
  -10.7010    2.1429   24.3156 C   0  0  0  0  0  0  0  0  0  0  0  0
  -10.2245    2.3816   23.2613 C   0  0  0  0  0  0  0  0  0  0  0  0
   -9.9858    1.3441   22.1602 C   0  0  0  0  0  0  0  0  0  0  0  0
  -10.2752    0.0489   22.4870 C   0  0  0  0  0  0  0  0  0  0  0  0
  -10.8331   -0.1886   23.7263 C   0  0  0  0  0  0  0  0  0  0  0  0
  -10.9679    0.7751   24.6219 C   0  0  0  0  0  0  0  0  0  0  0  0
   -6.5679    1.5339   27.4962 C   0  0  0  0  0  0  0  0  0  0  0  0
   -5.4198    1.8414   28.0750 N   0  0  0  0  0  0  0  0  0  0  0  0
   -4.5393    0.8156   28.3590 C   0  0  0  0  0  0  0  0  0  0  0  0
   -3.2503    1.1177   28.8798 C   0  0  0  0  0  0  0  0  0  0  0  0
   -4.9991   -0.5094   28.3307 C   0  0  0  0  0  0  0  0  0  0  0  0
   -7.0700    0.2935   27.4454 O   0  0  0  0  0  0  0  0  0  0  0  0
  4  7  1  0
  6  8  1  0
  8  9  1  0
  2 15  1  0
 15 16  1  0
 16 17  2  3
 17 18  1  0
 17 19  1  0
 15 20  2  0
  1  2  2  0
  2  3  1  0
  3  6  2  0
  6  5  1  0
  5  4  2  0
  4  1  1  0
  9 10  2  0
 10 11  1  0
 11 12  2  0
 12 13  1  0
 13 14  2  0
 14  9  1  0
M  END
$$$$
