No_2571-complexes_sdf/6BKW-FPZ/2024-09-17-14-21-01/
     RDKit          3D

 18 19  0  0  0  0  0  0  0  0999 V2000
   -7.2496    3.8871   27.4508 C   0  0  0  0  0  0  0  0  0  0  0  0
   -7.9379    4.9063   27.8518 C   0  0  0  0  0  0  0  0  0  0  0  0
   -9.3376    4.8647   27.7795 C   0  0  0  0  0  0  0  0  0  0  0  0
   -7.7973    2.6523   27.3001 C   0  0  0  0  0  0  0  0  0  0  0  0
   -9.2321    2.6051   27.2406 C   0  0  0  0  0  0  0  0  0  0  0  0
   -9.9831    3.7083   27.5769 C   0  0  0  0  0  0  0  0  0  0  0  0
   -7.0433    1.4906   26.9408 C   0  0  0  0  0  0  0  0  0  0  0  0
   -7.5017    0.4913   26.2502 N   0  0  0  0  0  0  0  0  0  0  0  0
   -8.3165    0.5941   25.3091 C   0  0  0  0  0  0  0  0  0  0  0  0
   -9.1740   -0.2527   25.0816 C   0  0  0  0  0  0  0  0  0  0  0  0
   -5.8462    1.4395   27.5360 O   0  0  0  0  0  0  0  0  0  0  0  0
  -10.1773   -0.0347   24.0601 C   0  0  0  0  0  0  0  0  0  0  0  0
  -10.1616    1.1726   23.2993 C   0  0  0  0  0  0  0  0  0  0  0  0
   -9.2536    2.1585   23.6321 C   0  0  0  0  0  0  0  0  0  0  0  0
   -8.3924    1.9579   24.6808 C   0  0  0  0  0  0  0  0  0  0  0  0
  -11.4652    3.6451   27.6612 C   0  0  0  0  0  0  0  0  0  0  0  0
  -12.1971    4.2472   26.9344 C   0  0  0  0  0  0  0  0  0  0  0  0
  -13.5270    4.1154   26.7135 C   0  0  0  0  0  0  0  0  0  0  0  0
  4  7  1  0
  7  8  1  0
  8  9  1  0
  7 11  2  0
  6 16  1  0
 16 17  2  3
 17 18  1  0
  9 10  2  0
 10 12  1  0
 12 13  2  0
 13 14  1  0
 14 15  2  0
 15  9  1  0
  1  2  2  0
  2  3  1  0
  3  6  2  0
  6  5  1  0
  5  4  2  0
  4  1  1  0
M  END
$$$$
