No_2466-complexes_sdf/6BKW-FPZ/2024-09-17-14-21-01/
     RDKit          3D

 16 17  0  0  0  0  0  0  0  0999 V2000
   -7.9040    3.9820   27.1177 C   0  0  0  0  0  0  0  0  0  0  0  0
   -8.2057    2.8231   26.8733 C   0  0  0  0  0  0  0  0  0  0  0  0
   -8.7695    5.0740   26.7916 C   0  0  0  0  0  0  0  0  0  0  0  0
   -9.9618    4.7598   26.1630 C   0  0  0  0  0  0  0  0  0  0  0  0
   -9.4200    2.4524   26.2850 C   0  0  0  0  0  0  0  0  0  0  0  0
  -10.2590    3.4815   25.9250 C   0  0  0  0  0  0  0  0  0  0  0  0
   -8.3840    6.4693   27.0829 C   0  0  0  0  0  0  0  0  0  0  0  0
   -8.3637    6.7809   28.2310 F   0  0  0  0  0  0  0  0  0  0  0  0
   -9.3076    7.3337   26.4322 F   0  0  0  0  0  0  0  0  0  0  0  0
   -7.1477    6.7467   26.5862 F   0  0  0  0  0  0  0  0  0  0  0  0
   -7.2850    1.6786   27.3225 C   0  0  0  0  0  0  0  0  0  0  0  0
   -5.9880    1.9350   27.7976 C   0  0  0  0  0  0  0  0  0  0  0  0
   -5.1193    0.8772   28.1916 C   0  0  0  0  0  0  0  0  0  0  0  0
   -5.5372   -0.4201   28.1005 C   0  0  0  0  0  0  0  0  0  0  0  0
   -7.6316    0.3197   27.2345 C   0  0  0  0  0  0  0  0  0  0  0  0
   -6.8456   -0.6666   27.6643 C   0  0  0  0  0  0  0  0  0  0  0  0
  3  7  1  0
  7  8  1  0
  7  9  1  0
  7 10  1  0
  2 11  1  0
 11 12  2  0
 12 13  1  0
 13 14  2  0
 14 16  1  0
 16 15  2  0
 15 11  1  0
  1  2  2  0
  2  5  1  0
  5  6  2  0
  6  4  1  0
  4  3  2  0
  3  1  1  0
M  END
$$$$
