No_2305-complexes_sdf/6BKW-FPZ/2024-09-17-14-21-01/
     RDKit          3D

 27 30  0  0  0  0  0  0  0  0999 V2000
   -7.9040    3.9820   27.1177 C   0  0  0  0  0  0  0  0  0  0  0  0
   -9.0711    4.3164   27.0630 C   0  0  0  0  0  0  0  0  0  0  0  0
   -9.9692    3.7224   26.1073 C   0  0  0  0  0  0  0  0  0  0  0  0
   -6.9787    4.6761   28.1003 C   0  0  0  0  0  0  0  0  0  0  0  0
  -11.1978    4.2793   25.7845 C   0  0  0  0  0  0  0  0  0  0  0  0
   -7.5998    5.7639   28.6199 N   0  0  0  0  0  0  0  0  0  0  0  0
   -8.8859    5.6276   27.8686 C   0  0  0  0  0  0  0  0  0  0  0  0
   -9.8052    2.4222   25.8494 C   0  0  0  0  0  0  0  0  0  0  0  0
  -10.4676    1.7581   24.8233 C   0  0  0  0  0  0  0  0  0  0  0  0
  -11.9834    3.7276   24.7804 C   0  0  0  0  0  0  0  0  0  0  0  0
  -11.6640    2.4383   24.3788 C   0  0  0  0  0  0  0  0  0  0  0  0
  -10.2036    0.4244   24.3590 C   0  0  0  0  0  0  0  0  0  0  0  0
   -9.9890   -0.5260   25.0410 N   0  0  0  0  0  0  0  0  0  0  0  0
   -9.4227   -1.5497   24.8088 C   0  0  0  0  0  0  0  0  0  0  0  0
  -10.0076    0.3851   23.0736 O   0  0  0  0  0  0  0  0  0  0  0  0
   -5.7667    4.2236   28.2931 N   0  0  0  0  0  0  0  0  0  0  0  0
   -9.0553   -2.6262   25.7845 C   0  0  0  0  0  0  0  0  0  0  0  0
   -8.2142   -3.4334   25.6525 C   0  0  0  0  0  0  0  0  0  0  0  0
   -7.5624   -3.6493   24.3626 C   0  0  0  0  0  0  0  0  0  0  0  0
   -7.7936   -2.7078   23.3484 C   0  0  0  0  0  0  0  0  0  0  0  0
   -8.5536   -1.6487   23.6042 C   0  0  0  0  0  0  0  0  0  0  0  0
   -9.7621   -2.4089   27.1003 C   0  0  0  0  0  0  0  0  0  0  0  0
  -10.3744   -2.9813   27.7606 C   0  0  0  0  0  0  0  0  0  0  0  0
  -11.0211   -2.9593   28.6541 C   0  0  0  0  0  0  0  0  0  0  0  0
  -11.0571   -1.6049   29.3464 C   0  0  0  0  0  0  0  0  0  0  0  0
  -10.3579   -0.6076   28.7075 C   0  0  0  0  0  0  0  0  0  0  0  0
   -9.7138   -0.8759   27.6150 C   0  0  0  0  0  0  0  0  0  0  0  0
  1  2  2  0
  2  3  1  0
  1  4  1  0
  4  6  2  0
  2  7  1  0
  6  7  1  0
  9 12  1  0
 12 13  1  0
 12 15  2  0
  4 16  1  0
 17 22  1  0
 13 14  1  0
 14 17  1  0
 17 18  2  0
 18 19  1  0
 19 20  2  0
 20 21  1  0
 21 14  2  0
  3  5  2  0
  5 10  1  0
 10 11  2  0
 11  9  1  0
  9  8  2  0
  8  3  1  0
 22 23  2  0
 23 24  1  0
 24 25  2  0
 25 26  1  0
 26 27  2  0
 27 22  1  0
M  END
$$$$
