No_2476-complexes_sdf/6BKW-FPZ/2024-09-17-14-21-01/
     RDKit          3D

 20 23  0  0  0  0  0  0  0  0999 V2000
   -7.9040    3.9820   27.1177 C   0  0  0  0  0  0  0  0  0  0  0  0
   -7.8663    4.8694   27.9238 C   0  0  0  0  0  0  0  0  0  0  0  0
   -9.0501    3.8017   26.2617 C   0  0  0  0  0  0  0  0  0  0  0  0
  -10.0189    4.7608   26.3707 C   0  0  0  0  0  0  0  0  0  0  0  0
   -8.6770    5.9780   27.9222 C   0  0  0  0  0  0  0  0  0  0  0  0
   -9.8040    5.8752   27.0958 C   0  0  0  0  0  0  0  0  0  0  0  0
   -8.9569    2.5720   25.4465 C   0  0  0  0  0  0  0  0  0  0  0  0
   -9.7060    2.5614   24.3319 C   0  0  0  0  0  0  0  0  0  0  0  0
   -9.7539    1.4154   23.4968 C   0  0  0  0  0  0  0  0  0  0  0  0
   -8.8800    0.3304   23.8280 C   0  0  0  0  0  0  0  0  0  0  0  0
   -8.1484    0.3672   24.9865 C   0  0  0  0  0  0  0  0  0  0  0  0
   -8.1744    1.5098   25.8390 C   0  0  0  0  0  0  0  0  0  0  0  0
   -8.8507   -0.8475   22.9395 C   0  0  0  0  0  0  0  0  0  0  0  0
   -9.6119   -0.9144   21.8595 C   0  0  0  0  0  0  0  0  0  0  0  0
   -9.5854   -2.0262   21.0279 C   0  0  0  0  0  0  0  0  0  0  0  0
   -8.6086   -3.0040   21.2401 C   0  0  0  0  0  0  0  0  0  0  0  0
   -7.8348   -1.8662   23.0843 C   0  0  0  0  0  0  0  0  0  0  0  0
   -6.9011   -1.6875   24.2632 C   0  0  0  0  0  0  0  0  0  0  0  0
   -7.7117   -2.9318   22.2303 C   0  0  0  0  0  0  0  0  0  0  0  0
   -7.1037   -0.6934   25.1575 C   0  0  0  0  0  0  0  0  0  0  0  0
  3  7  1  0
 13 14  2  0
 14 15  1  0
 15 16  2  0
 16 19  1  0
 19 17  2  0
 11 20  1  0
 20 18  2  0
 18 17  1  0
 17 13  1  0
 13 10  1  0
  1  2  2  0
  2  5  1  0
  5  6  2  0
  6  4  1  0
  4  3  2  0
  3  1  1  0
  7  8  2  0
  8  9  1  0
  9 10  2  0
 10 11  1  0
 11 12  2  0
 12  7  1  0
M  END
$$$$
