No_2365-complexes_sdf/6BKW-FPZ/2024-09-17-14-21-01/
     RDKit          3D

 40 46  0  0  0  0  0  0  0  0999 V2000
   -7.9040    3.9820   27.1177 C   0  0  0  0  0  0  0  0  0  0  0  0
   -7.8663    4.8694   27.9238 C   0  0  0  0  0  0  0  0  0  0  0  0
   -9.0806    3.1428   27.1220 C   0  0  0  0  0  0  0  0  0  0  0  0
  -10.1072    3.3606   27.8219 C   0  0  0  0  0  0  0  0  0  0  0  0
   -6.6635    5.8014   27.8958 C   0  0  0  0  0  0  0  0  0  0  0  0
  -10.1022    4.6241   28.6708 C   0  0  0  0  0  0  0  0  0  0  0  0
   -9.0061    5.4280   28.6627 C   0  0  0  0  0  0  0  0  0  0  0  0
   -9.0175    1.8327   26.3062 C   0  0  0  0  0  0  0  0  0  0  0  0
   -8.5553    0.6453   26.7668 C   0  0  0  0  0  0  0  0  0  0  0  0
   -8.0779    0.5511   28.1734 C   0  0  0  0  0  0  0  0  0  0  0  0
   -7.5664   -0.7249   28.6008 C   0  0  0  0  0  0  0  0  0  0  0  0
   -8.2858   -0.5297   26.0833 C   0  0  0  0  0  0  0  0  0  0  0  0
   -8.7148   -0.3991   24.6186 C   0  0  0  0  0  0  0  0  0  0  0  0
   -9.2858    1.9983   24.9071 C   0  0  0  0  0  0  0  0  0  0  0  0
   -9.1301    0.8351   24.0884 C   0  0  0  0  0  0  0  0  0  0  0  0
   -7.5482   -1.8252   27.7163 C   0  0  0  0  0  0  0  0  0  0  0  0
   -7.8515   -1.7237   26.4184 C   0  0  0  0  0  0  0  0  0  0  0  0
  -11.3435    2.5665   27.9452 C   0  0  2  0  0  0  0  0  0  0  0  0
  -12.5384    3.0258   27.3829 C   0  0  0  0  0  0  0  0  0  0  0  0
  -12.6937    4.1210   26.9571 C   0  0  0  0  0  0  0  0  0  0  0  0
  -13.9014    4.6711   26.2722 C   0  0  0  0  0  0  0  0  0  0  0  0
  -14.1230    5.7683   25.9232 C   0  0  0  0  0  0  0  0  0  0  0  0
  -14.7831    3.5680   25.8636 C   0  0  0  0  0  0  0  0  0  0  0  0
  -14.5592    2.2648   26.2396 C   0  0  0  0  0  0  0  0  0  0  0  0
  -13.3966    1.9371   26.9899 C   0  0  0  0  0  0  0  0  0  0  0  0
  -15.4342    6.1693   25.9761 C   0  0  0  0  0  0  0  0  0  0  0  0
  -16.4414    5.4248   25.4170 C   0  0  0  0  0  0  0  0  0  0  0  0
  -16.1532    3.9934   25.6419 C   0  0  0  0  0  0  0  0  0  0  0  0
  -11.2782    1.4306   28.8290 C   0  0  0  0  0  0  0  0  0  0  0  0
   -9.8007    3.2171   24.3189 C   0  0  0  0  0  0  0  0  0  0  0  0
  -10.4306    3.2473   23.0402 C   0  0  0  0  0  0  0  0  0  0  0  0
  -11.1426    4.4108   22.7324 C   0  0  0  0  0  0  0  0  0  0  0  0
  -10.7448    5.5967   23.5337 C   0  0  0  0  0  0  0  0  0  0  0  0
  -10.0211    5.4733   24.6587 C   0  0  0  0  0  0  0  0  0  0  0  0
   -9.5832    4.3652   25.0984 C   0  0  0  0  0  0  0  0  0  0  0  0
  -12.0406    0.2138   28.4285 C   0  0  0  0  0  0  0  0  0  0  0  0
  -13.3371    0.5543   27.7605 C   0  0  2  0  0  0  0  0  0  0  0  0
  -13.6582   -0.5578   26.7509 C   0  0  0  0  0  0  0  0  0  0  0  0
  -14.3603    0.5638   28.8733 C   0  0  0  0  0  0  0  0  0  0  0  0
  -15.4624   -0.0561   28.8134 C   0  0  0  0  0  0  0  0  0  0  0  0
  2  5  1  0
  3  8  1  0
 18  4  1  1
 18 19  1  0
 18 29  1  0
 14 30  1  0
 29 36  1  0
 25 37  1  0
 36 37  1  0
 37 38  1  6
 37 39  1  0
 39 40  2  0
  9 10  2  0
 10 11  1  0
 11 16  2  0
 16 17  1  0
 17 12  2  0
 30 31  2  0
 31 32  1  0
 32 33  2  0
 33 34  1  0
 34 35  2  0
 35 30  1  0
 19 20  2  0
 20 21  1  0
 23 24  1  0
 24 25  2  0
 25 19  1  0
  8  9  1  0
  9 12  1  0
 12 13  1  0
 13 15  2  0
 15 14  1  0
 14  8  2  0
  1  2  2  0
  2  7  1  0
  7  6  2  0
  6  4  1  0
  4  3  2  0
  3  1  1  0
 21 22  2  0
 22 26  1  0
 26 27  2  0
 27 28  1  0
 28 23  2  0
 23 21  1  0
M  END
$$$$
