No_254-complexes_sdf/6BKW-FPZ/2024-09-17-14-21-01/
     RDKit          3D

 27 29  0  0  0  0  0  0  0  0999 V2000
   -7.7129    4.2099   27.0854 C   0  0  0  0  0  0  0  0  0  0  0  0
   -7.7814    5.1722   27.8972 C   0  0  0  0  0  0  0  0  0  0  0  0
   -8.8255    3.2789   27.1191 C   0  0  0  0  0  0  0  0  0  0  0  0
   -9.9209    3.4734   27.9101 C   0  0  0  0  0  0  0  0  0  0  0  0
   -9.9736    4.7085   28.6831 C   0  0  0  0  0  0  0  0  0  0  0  0
   -8.8840    5.5441   28.6612 C   0  0  0  0  0  0  0  0  0  0  0  0
   -8.7102    2.0171   26.3293 C   0  0  0  0  0  0  0  0  0  0  0  0
   -9.2831    1.9661   25.0865 C   0  0  0  0  0  0  0  0  0  0  0  0
   -9.9818    3.1287   24.5934 C   0  0  0  0  0  0  0  0  0  0  0  0
  -10.5193    3.1611   23.2887 C   0  0  0  0  0  0  0  0  0  0  0  0
  -10.2969    2.0683   22.4761 C   0  0  0  0  0  0  0  0  0  0  0  0
   -9.6053    0.9216   22.9382 C   0  0  0  0  0  0  0  0  0  0  0  0
   -9.0712    0.9302   24.2004 C   0  0  0  0  0  0  0  0  0  0  0  0
   -8.0022    0.9135   26.8862 C   0  0  0  0  0  0  0  0  0  0  0  0
   -7.0636    0.4267   27.1850 C   0  0  0  0  0  0  0  0  0  0  0  0
   -6.7190   -0.7592   27.8972 C   0  0  0  0  0  0  0  0  0  0  0  0
   -7.8243   -1.6008   28.1113 C   0  0  0  0  0  0  0  0  0  0  0  0
   -9.1066   -0.2045   27.2548 C   0  0  0  0  0  0  0  0  0  0  0  0
   -8.9746   -1.2421   27.8842 C   0  0  0  0  0  0  0  0  0  0  0  0
  -11.2397    4.3210   22.7728 C   0  0  1  0  0  0  0  0  0  0  0  0
  -11.2854    5.5713   23.8246 Cl  0  0  0  0  0  0  0  0  0  0  0  0
  -11.7395    4.3782   21.4939 C   0  0  0  0  0  0  0  0  0  0  0  0
  -10.1633   -2.1149   28.2133 C   0  0  0  0  0  0  0  0  0  0  0  0
  -11.3508   -1.5813   28.3647 C   0  0  0  0  0  0  0  0  0  0  0  0
  -12.5123   -2.3528   28.6930 C   0  0  0  0  0  0  0  0  0  0  0  0
  -13.7548   -1.7552   28.7554 C   0  0  0  0  0  0  0  0  0  0  0  0
  -14.8699   -2.4556   29.1134 C   0  0  0  0  0  0  0  0  0  0  0  0
  3  7  1  0
  7 14  1  0
 10 20  1  0
 20 21  1  0
 20 22  1  6
 19 23  1  0
 23 24  2  3
 24 25  1  0
 25 26  2  3
 26 27  1  0
  7  8  1  0
  1  2  2  0
  2  6  1  0
  6  5  2  0
  5  4  1  0
  4  3  2  0
  3  1  1  0
 14 15  2  0
 15 16  1  0
 16 17  2  0
 17 19  1  0
 19 18  2  0
 18 14  1  0
  8  9  2  0
  9 10  1  0
 10 11  2  0
 11 12  1  0
 12 13  2  0
 13  8  1  0
M  END
$$$$
