No_2008-complexes_sdf/6BKW-FPZ/2024-09-17-14-21-01/
     RDKit          3D

 40 44  0  0  0  0  0  0  0  0999 V2000
   -7.9040    3.9820   27.1177 C   0  0  0  0  0  0  0  0  0  0  0  0
   -7.8663    4.8694   27.9238 C   0  0  0  0  0  0  0  0  0  0  0  0
   -9.0501    3.8017   26.2617 C   0  0  0  0  0  0  0  0  0  0  0  0
   -9.1826    2.7026   25.3575 C   0  0  0  0  0  0  0  0  0  0  0  0
   -8.6940    6.0131   27.8614 C   0  0  0  0  0  0  0  0  0  0  0  0
   -9.9755    4.8547   26.2361 C   0  0  0  0  0  0  0  0  0  0  0  0
   -9.7463    5.9398   27.0364 C   0  0  0  0  0  0  0  0  0  0  0  0
   -8.7079    1.4615   25.7719 C   0  0  0  0  0  0  0  0  0  0  0  0
   -9.8679    2.8075   24.1351 C   0  0  0  0  0  0  0  0  0  0  0  0
   -8.6966    0.3747   24.9258 C   0  0  0  0  0  0  0  0  0  0  0  0
   -9.9629    1.7105   23.2993 C   0  0  0  0  0  0  0  0  0  0  0  0
   -9.3802    0.5004   23.7227 C   0  0  0  0  0  0  0  0  0  0  0  0
   -9.4687   -0.6712   22.7687 C   0  0  0  0  0  0  0  0  0  0  0  0
  -10.4019   -1.5967   23.1272 C   0  0  0  0  0  0  0  0  0  0  0  0
  -10.5133   -2.6353   22.4049 C   0  0  0  0  0  0  0  0  0  0  0  0
   -9.7467   -2.8358   21.1694 C   0  0  0  0  0  0  0  0  0  0  0  0
   -8.8267   -1.8702   20.8005 C   0  0  0  0  0  0  0  0  0  0  0  0
   -8.6290   -0.7158   21.6184 C   0  0  0  0  0  0  0  0  0  0  0  0
   -8.0935   -0.8938   25.3088 C   0  0  0  0  0  0  0  0  0  0  0  0
   -7.2007   -0.8707   26.1235 C   0  0  0  0  0  0  0  0  0  0  0  0
   -6.5171   -2.0828   26.5771 C   0  0  0  0  0  0  0  0  0  0  0  0
   -5.5080   -1.9502   27.6015 C   0  0  0  0  0  0  0  0  0  0  0  0
   -4.9966   -1.0531   27.8317 C   0  0  0  0  0  0  0  0  0  0  0  0
   -5.4827    0.3506   27.4506 C   0  0  0  0  0  0  0  0  0  0  0  0
   -6.5355    0.3084   26.5931 C   0  0  0  0  0  0  0  0  0  0  0  0
   -5.0924    1.7626   28.2136 Cl  0  0  0  0  0  0  0  0  0  0  0  0
  -10.6664    1.8544   22.0425 C   0  0  0  0  0  0  0  0  0  0  0  0
  -11.6975    1.9094   21.8681 C   0  0  0  0  0  0  0  0  0  0  0  0
  -12.3566    2.0300   20.5355 C   0  0  0  0  0  0  0  0  0  0  0  0
  -11.4788    2.1439   19.4739 C   0  0  0  0  0  0  0  0  0  0  0  0
  -10.1528    2.2237   19.7169 C   0  0  0  0  0  0  0  0  0  0  0  0
   -9.6279    2.1370   20.9390 C   0  0  0  0  0  0  0  0  0  0  0  0
   -7.0493   -3.3543   26.0929 C   0  0  0  0  0  0  0  0  0  0  0  0
   -7.7073   -3.3908   25.2727 F   0  0  0  0  0  0  0  0  0  0  0  0
   -5.9710   -4.2699   25.8266 F   0  0  0  0  0  0  0  0  0  0  0  0
   -7.7054   -3.9678   27.1251 F   0  0  0  0  0  0  0  0  0  0  0  0
  -13.8045    1.9054   20.2817 C   0  0  0  0  0  0  0  0  0  0  0  0
  -14.6796    1.9576   20.9603 O   0  0  0  0  0  0  0  0  0  0  0  0
  -14.1355    1.3716   18.9618 N   0  0  0  0  0  0  0  0  0  0  0  0
  -15.4512    1.1486   18.6012 C   0  0  0  0  0  0  0  0  0  0  0  0
  3  4  1  0
 12 13  1  0
 10 19  1  0
 24 26  1  0
 11 27  1  0
 21 33  1  0
 33 34  1  0
 33 35  1  0
 33 36  1  0
 29 37  1  0
 37 38  1  0
 37 39  2  3
 39 40  1  0
 19 20  1  0
  4  8  2  0
  8 10  1  0
 10 12  2  0
 12 11  1  0
 11  9  2  0
  9  4  1  0
 27 28  2  0
 28 29  1  0
 29 30  2  0
 30 31  1  0
 31 32  2  0
 32 27  1  0
 20 21  2  0
 21 22  1  0
 22 23  2  0
 23 24  1  0
 24 25  2  0
 25 20  1  0
 13 14  2  0
 14 15  1  0
 15 16  2  0
 16 17  1  0
 17 18  2  0
 18 13  1  0
  1  2  2  0
  2  5  1  0
  5  7  2  0
  7  6  1  0
  6  3  2  0
  3  1  1  0
M  END
$$$$
