No_2404-complexes_sdf/6BKW-FPZ/2024-09-17-14-21-01/
     RDKit          3D

 13 13  0  0  0  0  0  0  0  0999 V2000
   -7.2496    3.8871   27.4508 C   0  0  0  0  0  0  0  0  0  0  0  0
   -7.9379    4.9063   27.8518 C   0  0  0  0  0  0  0  0  0  0  0  0
   -7.5112    6.1898   27.6280 C   0  0  0  0  0  0  0  0  0  0  0  0
   -7.8078    2.6331   27.2522 C   0  0  0  0  0  0  0  0  0  0  0  0
   -9.1846    2.4724   27.5426 C   0  0  0  0  0  0  0  0  0  0  0  0
   -9.9168    3.5155   28.0405 C   0  0  0  0  0  0  0  0  0  0  0  0
   -9.3366    4.7963   28.1727 C   0  0  0  0  0  0  0  0  0  0  0  0
  -11.3251    3.2741   28.4031 C   0  0  0  0  0  0  0  0  0  0  0  0
  -12.2439    3.1527   27.5432 C   0  0  0  0  0  0  0  0  0  0  0  0
  -12.0060    3.1051   26.2279 C   0  0  0  0  0  0  0  0  0  0  0  0
  -10.8532    3.2118   25.7140 C   0  0  0  0  0  0  0  0  0  0  0  0
  -10.0849    3.3783   24.9699 C   0  0  0  0  0  0  0  0  0  0  0  0
   -9.7230    2.7446   23.8511 C   0  0  0  0  0  0  0  0  0  0  0  0
  1  2  1  0
  2  3  2  0
  1  4  1  0
  4  5  1  0
  5  6  1  0
  2  7  1  0
  6  7  1  0
  6  8  1  0
  8  9  2  3
  9 10  1  0
 10 11  2  3
 11 12  1  0
 12 13  1  0
M  END
$$$$
