No_2473-complexes_sdf/6BKW-FPZ/2024-09-17-14-21-01/
     RDKit          3D

 23 26  0  0  0  0  0  0  0  0999 V2000
   -7.9040    3.9820   27.1177 C   0  0  0  0  0  0  0  0  0  0  0  0
   -9.0711    4.3164   27.0630 C   0  0  0  0  0  0  0  0  0  0  0  0
   -9.9692    3.7224   26.1073 C   0  0  0  0  0  0  0  0  0  0  0  0
   -6.9787    4.6761   28.1003 C   0  0  0  0  0  0  0  0  0  0  0  0
   -9.4538    2.6801   25.3673 C   0  0  0  0  0  0  0  0  0  0  0  0
   -8.1927    2.1957   25.6621 C   0  0  0  0  0  0  0  0  0  0  0  0
   -7.4333    2.8255   26.6299 C   0  0  0  0  0  0  0  0  0  0  0  0
  -10.3181    2.0008   24.3846 C   0  0  0  0  0  0  0  0  0  0  0  0
   -9.7183    1.2105   23.5031 C   0  0  0  0  0  0  0  0  0  0  0  0
  -10.4449    0.6689   22.4496 C   0  0  0  0  0  0  0  0  0  0  0  0
   -9.8257   -0.2450   21.5070 C   0  0  0  0  0  0  0  0  0  0  0  0
   -8.5030   -0.6332   21.7375 C   0  0  0  0  0  0  0  0  0  0  0  0
   -7.7696   -0.1226   22.7768 C   0  0  0  0  0  0  0  0  0  0  0  0
   -8.3152    0.7015   23.6855 C   0  0  0  0  0  0  0  0  0  0  0  0
   -7.6199    1.2295   24.8069 N   0  0  0  0  0  0  0  0  0  0  0  0
   -7.4844    5.8150   28.6631 N   0  0  0  0  0  0  0  0  0  0  0  0
   -5.7334    4.3252   28.2829 N   0  0  0  0  0  0  0  0  0  0  0  0
  -11.6214    2.4934   24.1566 C   0  0  0  0  0  0  0  0  0  0  0  0
  -12.6531    1.9242   24.7713 C   0  0  0  0  0  0  0  0  0  0  0  0
  -11.8957    3.2361   22.9548 C   0  0  0  0  0  0  0  0  0  0  0  0
  -13.0768    3.7108   22.7116 C   0  0  0  0  0  0  0  0  0  0  0  0
  -13.9814    2.4276   24.6043 C   0  0  0  0  0  0  0  0  0  0  0  0
  -14.1640    3.3576   23.5137 C   0  0  0  0  0  0  0  0  0  0  0  0
  1  4  1  0
  4 16  2  0
  4 17  1  0
  8 18  1  0
 18 19  2  0
 19 22  1  0
 22 23  2  0
 23 21  1  0
 21 20  2  0
 20 18  1  0
  9 10  1  0
 10 11  2  0
 11 12  1  0
 12 13  2  0
 13 14  1  0
  6 15  1  0
 15 14  2  0
 14  9  1  0
  9  8  2  0
  8  5  1  0
  1  2  2  0
  2  3  1  0
  3  5  2  0
  5  6  1  0
  6  7  2  0
  7  1  1  0
M  END
$$$$
