No_2189-complexes_sdf/6BKW-FPZ/2024-09-17-14-21-01/
     RDKit          3D

 17 18  0  0  0  0  0  0  0  0999 V2000
   -7.7129    4.2099   27.0854 C   0  0  0  0  0  0  0  0  0  0  0  0
   -8.9133    4.4736   27.0998 C   0  0  0  0  0  0  0  0  0  0  0  0
   -9.7937    3.7368   26.2091 C   0  0  0  0  0  0  0  0  0  0  0  0
   -7.2496    2.8647   26.8496 C   0  0  0  0  0  0  0  0  0  0  0  0
   -8.1891    1.9790   26.3454 C   0  0  0  0  0  0  0  0  0  0  0  0
   -9.4252    2.4603   26.0121 C   0  0  0  0  0  0  0  0  0  0  0  0
   -9.1309    6.0199   27.2260 C   0  0  0  0  0  0  0  0  0  0  0  0
   -7.9943    0.5413   26.1728 C   0  0  0  0  0  0  0  0  0  0  0  0
   -8.4289   -0.0966   25.2764 C   0  0  0  0  0  0  0  0  0  0  0  0
   -9.5898    0.4821   24.5583 C   0  0  0  0  0  0  0  0  0  0  0  0
  -10.1093    1.6769   25.0155 C   0  0  0  0  0  0  0  0  0  0  0  0
   -8.5465    6.8661   26.6755 F   0  0  0  0  0  0  0  0  0  0  0  0
   -9.1115    6.3069   28.7113 F   0  0  0  0  0  0  0  0  0  0  0  0
  -10.5734    6.1716   27.2005 F   0  0  0  0  0  0  0  0  0  0  0  0
  -11.2888    2.2299   24.2589 C   0  0  0  0  0  0  0  0  0  0  0  0
  -11.3729    3.1768   23.8376 C   0  0  0  0  0  0  0  0  0  0  0  0
  -12.5698    3.7586   23.1559 C   0  0  0  0  0  0  0  0  0  0  0  0
  2  7  1  0
  7 12  1  0
  7 13  1  0
  7 14  1  0
 11 15  1  0
 15 16  2  3
 16 17  1  0
  6 11  1  0
 11 10  2  0
 10  9  1  0
  9  8  2  0
  8  5  1  0
  1  2  2  0
  2  3  1  0
  3  6  2  0
  6  5  1  0
  5  4  2  0
  4  1  1  0
M  END
$$$$
