No_2082-complexes_sdf/6BKW-FPZ/2024-09-17-14-21-01/
     RDKit          3D

 26 28  0  0  0  0  0  0  0  0999 V2000
   -7.9040    3.9820   27.1177 C   0  0  0  0  0  0  0  0  0  0  0  0
   -8.2057    2.8231   26.8733 C   0  0  0  0  0  0  0  0  0  0  0  0
   -9.2962    2.4021   26.1155 C   0  0  0  0  0  0  0  0  0  0  0  0
   -8.7358    5.0662   26.5917 C   0  0  0  0  0  0  0  0  0  0  0  0
   -9.7618    4.7023   25.7546 C   0  0  0  0  0  0  0  0  0  0  0  0
  -10.0066    3.4105   25.4922 C   0  0  0  0  0  0  0  0  0  0  0  0
   -8.3943    6.4761   26.8801 C   0  0  2  0  0  0  0  0  0  0  0  0
   -8.5947    7.4080   26.1130 N   0  0  0  0  0  0  0  0  0  0  0  0
   -7.7044    6.5229   27.9911 F   0  0  0  0  0  0  0  0  0  0  0  0
   -7.3496    1.6564   27.4730 C   0  0  0  0  0  0  0  0  0  0  0  0
   -7.7245    0.3275   27.3832 C   0  0  0  0  0  0  0  0  0  0  0  0
   -6.8285   -0.6270   27.7676 C   0  0  0  0  0  0  0  0  0  0  0  0
   -5.5541   -0.2549   28.2628 C   0  0  0  0  0  0  0  0  0  0  0  0
   -5.1554    1.0941   28.2266 C   0  0  0  0  0  0  0  0  0  0  0  0
   -5.9609    2.0201   27.7950 C   0  0  0  0  0  0  0  0  0  0  0  0
   -4.6077   -1.2992   28.7689 C   0  0  0  0  0  0  0  0  0  0  0  0
   -4.7184   -2.0055   29.6071 C   0  0  0  0  0  0  0  0  0  0  0  0
   -3.6598   -2.9171   30.1257 C   0  0  0  0  0  0  0  0  0  0  0  0
   -3.7562   -3.7134   31.2435 C   0  0  0  0  0  0  0  0  0  0  0  0
   -3.2420   -1.2458   28.1317 C   0  0  0  0  0  0  0  0  0  0  0  0
   -2.2124   -2.0218   28.4514 C   0  0  0  0  0  0  0  0  0  0  0  0
   -2.3764   -2.7817   29.5097 C   0  0  0  0  0  0  0  0  0  0  0  0
   -3.3152   -4.6650   31.3739 C   0  0  0  0  0  0  0  0  0  0  0  0
   -3.5167   -5.5293   32.5585 C   0  0  0  0  0  0  0  0  0  0  0  0
   -4.4203   -5.1049   33.5227 C   0  0  0  0  0  0  0  0  0  0  0  0
   -5.0841   -3.9117   33.3659 C   0  0  0  0  0  0  0  0  0  0  0  0
  4  7  1  0
  7  8  1  6
  7  9  1  0
  2 10  1  0
 13 16  1  0
 19 23  1  0
 23 24  2  3
 24 25  1  0
 25 26  2  0
 19 18  1  0
  1  2  2  0
  2  3  1  0
  3  6  2  0
  6  5  1  0
  5  4  2  0
  4  1  1  0
 10 11  2  0
 11 12  1  0
 12 13  2  0
 13 14  1  0
 14 15  2  0
 15 10  1  0
 16 17  2  0
 17 18  1  0
 18 22  2  0
 22 21  1  0
 21 20  2  0
 20 16  1  0
M  END
$$$$
