No_2211-complexes_sdf/6BKW-FPZ/2024-09-17-14-21-01/
     RDKit          3D

 35 37  0  0  0  0  0  0  0  0999 V2000
   -7.9040    3.9820   27.1177 C   0  0  0  0  0  0  0  0  0  0  0  0
   -8.2057    2.8231   26.8733 C   0  0  0  0  0  0  0  0  0  0  0  0
   -9.2962    2.4021   26.1155 C   0  0  0  0  0  0  0  0  0  0  0  0
   -8.7358    5.0662   26.5917 C   0  0  0  0  0  0  0  0  0  0  0  0
   -9.7618    4.7023   25.7546 C   0  0  0  0  0  0  0  0  0  0  0  0
  -10.0066    3.4105   25.4922 C   0  0  0  0  0  0  0  0  0  0  0  0
   -8.3943    6.4760   26.8801 C   0  0  0  0  0  0  0  0  0  0  0  0
   -8.0394    6.8605   28.0789 N   0  0  0  0  0  0  0  0  0  0  0  0
   -8.6521    7.3455   25.9749 O   0  0  0  0  0  0  0  0  0  0  0  0
   -7.4482    1.7885   27.4827 F   0  0  0  0  0  0  0  0  0  0  0  0
  -11.0041    3.1062   24.6698 F   0  0  0  0  0  0  0  0  0  0  0  0
   -9.5521    1.0105   25.7668 C   0  0  2  0  0  0  0  0  0  0  0  0
  -10.1483    0.2350   26.6623 C   0  0  0  0  0  0  0  0  0  0  0  0
  -10.6838    0.8299   27.9389 C   0  0  0  0  0  0  0  0  0  0  0  0
  -11.4427    0.0485   28.8436 C   0  0  0  0  0  0  0  0  0  0  0  0
  -11.5136   -1.3187   28.6161 C   0  0  0  0  0  0  0  0  0  0  0  0
  -10.9901   -1.9086   27.5150 C   0  0  0  0  0  0  0  0  0  0  0  0
  -10.3050   -1.1618   26.5606 C   0  0  0  0  0  0  0  0  0  0  0  0
  -12.2883   -2.1084   29.6469 C   0  0  0  0  0  0  0  0  0  0  0  0
  -11.8510   -3.0503   29.7945 F   0  0  0  0  0  0  0  0  0  0  0  0
  -13.5776   -2.1389   29.1956 F   0  0  0  0  0  0  0  0  0  0  0  0
  -12.3160   -1.3802   30.8282 F   0  0  0  0  0  0  0  0  0  0  0  0
   -9.1004    0.4941   24.5253 C   0  0  0  0  0  0  0  0  0  0  0  0
   -9.8672    0.2668   23.4123 C   0  0  0  0  0  0  0  0  0  0  0  0
   -9.2376   -0.1902   22.2310 C   0  0  0  0  0  0  0  0  0  0  0  0
   -7.8643   -0.5129   22.2272 C   0  0  0  0  0  0  0  0  0  0  0  0
   -7.0804   -0.3378   23.3835 C   0  0  0  0  0  0  0  0  0  0  0  0
   -7.6467    0.1439   24.5365 C   0  0  0  0  0  0  0  0  0  0  0  0
   -5.8269   -0.6600   23.5766 O   0  0  0  0  0  0  0  0  0  0  0  0
   -5.3854   -1.7256   24.3731 C   0  0  0  0  0  0  0  0  0  0  0  0
   -4.5779   -1.3061   25.4515 C   0  0  0  0  0  0  0  0  0  0  0  0
   -4.6973   -0.3503   26.1075 N   0  0  0  0  0  0  0  0  0  0  0  0
   -4.3569   -0.1948   27.5066 C   0  0  0  0  0  0  0  0  0  0  0  0
   -3.4895    0.4052   28.0194 C   0  0  0  0  0  0  0  0  0  0  0  0
   -3.2502    0.5053   29.4984 C   0  0  0  0  0  0  0  0  0  0  0  0
  4  7  1  0
  7  8  1  0
  7  9  2  0
  2 10  1  0
  6 11  1  0
 12  3  1  1
 16 19  1  0
 19 20  1  0
 19 21  1  0
 19 22  1  0
 12 23  1  0
 27 29  1  0
 29 30  1  0
 30 31  1  0
 31 32  1  0
 32 33  1  0
 33 34  2  3
 34 35  1  0
 12 13  1  0
 13 14  2  0
 14 15  1  0
 15 16  2  0
 16 17  1  0
 17 18  2  0
 18 13  1  0
  1  2  2  0
  2  3  1  0
  3  6  2  0
  6  5  1  0
  5  4  2  0
  4  1  1  0
 23 24  2  0
 24 25  1  0
 25 26  2  0
 26 27  1  0
 27 28  2  0
 28 23  1  0
M  END
$$$$
