No_2217-complexes_sdf/6BKW-FPZ/2024-09-17-14-21-01/
     RDKit          3D

 14 14  0  0  0  0  0  0  0  0999 V2000
   -7.7129    4.2099   27.0854 C   0  0  0  0  0  0  0  0  0  0  0  0
   -8.9133    4.4736   27.0998 C   0  0  0  0  0  0  0  0  0  0  0  0
   -9.4616    5.6470   27.6290 C   0  0  0  0  0  0  0  0  0  0  0  0
   -7.2326    2.9175   26.7557 C   0  0  0  0  0  0  0  0  0  0  0  0
   -8.1546    1.9086   26.5054 C   0  0  0  0  0  0  0  0  0  0  0  0
   -7.6739    0.6359   26.2014 C   0  0  0  0  0  0  0  0  0  0  0  0
   -9.4630    2.3473   26.4144 C   0  0  0  0  0  0  0  0  0  0  0  0
   -9.8686    3.5233   26.7564 C   0  0  0  0  0  0  0  0  0  0  0  0
   -7.0443   -0.0764   26.9964 O   0  0  0  0  0  0  0  0  0  0  0  0
   -8.0034    0.1061   25.0401 O   0  0  0  0  0  0  0  0  0  0  0  0
   -8.4234    7.1020   27.4636 P   0  0  0  0  0  0  0  0  0  0  0  0
   -9.1276    8.2125   26.8542 O   0  0  0  0  0  0  0  0  0  0  0  0
   -7.6895    7.3518   28.5675 O   0  0  0  0  0  0  0  0  0  0  0  0
   -7.3962    6.6256   26.2659 O   0  0  0  0  0  0  0  0  0  0  0  0
  2  3  1  0
  5  6  1  0
  6  9  2  0
  6 10  1  0
  3 11  1  0
 11 12  2  0
 11 13  1  0
 11 14  1  0
  1  2  2  0
  2  8  1  0
  8  7  2  0
  7  5  1  0
  5  4  2  0
  4  1  1  0
M  END
$$$$
