No_2583-complexes_sdf/6BKW-FPZ/2024-09-17-14-21-01/
     RDKit          3D

 17 18  0  0  0  0  0  0  0  0999 V2000
   -7.7129    4.2099   27.0854 C   0  0  0  0  0  0  0  0  0  0  0  0
   -7.7814    5.1722   27.8972 C   0  0  0  0  0  0  0  0  0  0  0  0
   -8.7889    3.2468   27.2220 C   0  0  0  0  0  0  0  0  0  0  0  0
   -9.8367    3.4196   26.6050 C   0  0  0  0  0  0  0  0  0  0  0  0
   -8.7675    6.1035   27.7079 C   0  0  0  0  0  0  0  0  0  0  0  0
  -10.2040    5.8269   27.3562 C   0  0  0  0  0  0  0  0  0  0  0  0
  -10.6169    4.6207   26.8493 C   0  0  0  0  0  0  0  0  0  0  0  0
   -8.1733    1.7804   27.0802 C   0  0  0  0  0  0  0  0  0  0  0  0
   -9.0683    0.6987   27.1149 C   0  0  0  0  0  0  0  0  0  0  0  0
   -8.6291   -0.5500   27.4543 C   0  0  0  0  0  0  0  0  0  0  0  0
   -7.2388   -0.7410   27.6282 C   0  0  0  0  0  0  0  0  0  0  0  0
   -6.3492    0.2861   27.6009 C   0  0  0  0  0  0  0  0  0  0  0  0
   -6.8035    1.5539   27.4649 C   0  0  0  0  0  0  0  0  0  0  0  0
   -4.9058    0.0742   27.8793 C   0  0  0  0  0  0  0  0  0  0  0  0
   -4.4283    0.7292   28.9430 C   0  0  0  0  0  0  0  0  0  0  0  0
   -4.1455   -0.7559   27.0793 C   0  0  0  0  0  0  0  0  0  0  0  0
   -3.1257    0.5997   29.2987 O   0  0  0  0  0  0  0  0  0  0  0  0
  1  2  1  0
  1  3  1  0
  3  4  2  0
  2  5  1  0
  5  6  2  0
  4  7  1  0
  6  7  1  0
  3  8  1  0
 12 14  1  0
 14 15  1  0
 14 16  1  0
 15 17  2  0
  8  9  2  0
  9 10  1  0
 10 11  2  0
 11 12  1  0
 12 13  2  0
 13  8  1  0
M  END
$$$$
