No_281-complexes_sdf/6BKW-FPZ/2024-09-17-14-21-01/
     RDKit          3D

 18 18  0  0  0  0  0  0  0  0999 V2000
   -7.7129    4.2099   27.0854 C   0  0  0  0  0  0  0  0  0  0  0  0
   -8.2112    3.0637   26.9225 C   0  0  0  0  0  0  0  0  0  0  0  0
   -9.4446    2.8304   26.1868 C   0  0  0  0  0  0  0  0  0  0  0  0
   -8.4697    5.3956   26.7238 C   0  0  0  0  0  0  0  0  0  0  0  0
   -8.0091    6.7588   26.9904 C   0  0  0  0  0  0  0  0  0  0  0  0
  -10.1208    3.9213   25.7408 C   0  0  0  0  0  0  0  0  0  0  0  0
   -9.5939    5.2027   25.9665 C   0  0  0  0  0  0  0  0  0  0  0  0
   -8.6060    7.8403   26.5809 N   0  0  0  0  0  0  0  0  0  0  0  0
   -6.9928    6.7841   27.8675 O   0  0  0  0  0  0  0  0  0  0  0  0
   -7.4701    1.8110   27.3734 C   0  0  0  0  0  0  0  0  0  0  0  0
   -6.8449    0.9936   26.6164 C   0  0  0  0  0  0  0  0  0  0  0  0
   -6.8380   -0.1419   27.0119 C   0  0  0  0  0  0  0  0  0  0  0  0
   -5.7819   -0.9469   26.8215 C   0  0  0  0  0  0  0  0  0  0  0  0
   -4.8552   -0.5436   25.8995 C   0  0  0  0  0  0  0  0  0  0  0  0
   -3.6974   -1.3854   25.6401 C   0  0  0  0  0  0  0  0  0  0  0  0
   -3.5647   -2.5550   26.2856 C   0  0  0  0  0  0  0  0  0  0  0  0
   -4.4798   -2.9852   27.2027 C   0  0  0  0  0  0  0  0  0  0  0  0
   -5.5984   -2.1862   27.4858 C   0  0  0  0  0  0  0  0  0  0  0  0
  4  5  1  0
  5  8  1  0
  5  9  2  0
  2 10  1  0
 10 11  1  0
 11 12  1  0
 12 13  2  3
 13 14  1  0
 14 15  2  3
 15 16  1  0
 16 17  2  3
 17 18  1  0
  1  2  2  0
  2  3  1  0
  3  6  2  0
  6  7  1  0
  7  4  2  0
  4  1  1  0
M  END
$$$$
