No_2183-complexes_sdf/6BKW-FPZ/2024-09-17-14-21-01/
     RDKit          3D

 12 13  0  0  0  0  0  0  0  0999 V2000
   -7.9040    3.9820   27.1177 C   0  0  0  0  0  0  0  0  0  0  0  0
   -7.8663    4.8694   27.9238 C   0  0  0  0  0  0  0  0  0  0  0  0
   -9.0491    3.8523   26.2542 C   0  0  0  0  0  0  0  0  0  0  0  0
   -8.7661    5.9491   27.9690 C   0  0  0  0  0  0  0  0  0  0  0  0
   -9.9295    4.8502   26.2323 C   0  0  0  0  0  0  0  0  0  0  0  0
   -9.8077    5.9288   27.0933 C   0  0  0  0  0  0  0  0  0  0  0  0
   -7.0120    2.8934   27.1747 N   0  0  0  0  0  0  0  0  0  0  0  0
   -5.9584    2.9314   27.9624 C   0  0  0  0  0  0  0  0  0  0  0  0
   -5.1075    1.6948   27.9648 C   0  0  0  0  0  0  0  0  0  0  0  0
   -7.4214    1.5986   26.7170 C   0  0  0  0  0  0  0  0  0  0  0  0
   -6.7532    0.6232   27.3405 C   0  0  0  0  0  0  0  0  0  0  0  0
   -5.4959    0.6274   27.7650 C   0  0  0  0  0  0  0  0  0  0  0  0
  1  7  1  0
  7  8  1  0
  7 10  1  0
  9 12  1  0
 11 12  1  0
  8  9  1  0
 11 10  1  0
  1  2  2  0
  2  4  1  0
  4  6  2  0
  6  5  1  0
  5  3  2  0
  3  1  1  0
M  END
$$$$
