No_2262-complexes_sdf/6BKW-FPZ/2024-09-17-14-21-01/
     RDKit          3D

 22 25  0  0  0  0  0  0  0  0999 V2000
   -7.9040    3.9820   27.1177 C   0  0  0  0  0  0  0  0  0  0  0  0
   -7.8663    4.8694   27.9238 C   0  0  0  0  0  0  0  0  0  0  0  0
   -7.4547    2.7080   27.4594 C   0  0  0  0  0  0  0  0  0  0  0  0
   -7.9337    1.5946   26.8372 C   0  0  0  0  0  0  0  0  0  0  0  0
   -8.9032    1.7881   25.8510 C   0  0  0  0  0  0  0  0  0  0  0  0
   -9.3787    2.9871   25.5530 C   0  0  0  0  0  0  0  0  0  0  0  0
   -8.9781    4.0300   26.2200 C   0  0  0  0  0  0  0  0  0  0  0  0
   -7.9493    6.0343   27.8952 N   0  0  0  0  0  0  0  0  0  0  0  0
  -10.3836    3.1260   24.4284 C   0  0  0  0  0  0  0  0  0  0  0  0
  -11.0143    4.2995   24.2247 C   0  0  0  0  0  0  0  0  0  0  0  0
  -11.9404    4.5088   23.1892 C   0  0  0  0  0  0  0  0  0  0  0  0
  -12.1530    3.5162   22.2905 C   0  0  0  0  0  0  0  0  0  0  0  0
  -10.7533    2.1356   23.5101 C   0  0  0  0  0  0  0  0  0  0  0  0
  -11.5267    2.3097   22.4663 C   0  0  0  0  0  0  0  0  0  0  0  0
   -8.5632    6.6264   26.8518 C   0  0  0  0  0  0  0  0  0  0  0  0
   -9.1076    5.7479   25.9864 N   0  0  0  0  0  0  0  0  0  0  0  0
   -7.3759    0.2435   27.0960 C   0  0  0  0  0  0  0  0  0  0  0  0
   -8.0102   -0.8817   27.0165 C   0  0  0  0  0  0  0  0  0  0  0  0
   -7.5053   -2.0702   27.4683 C   0  0  0  0  0  0  0  0  0  0  0  0
   -6.0462    0.2080   27.6695 C   0  0  0  0  0  0  0  0  0  0  0  0
   -5.4718   -0.9349   28.1210 C   0  0  0  0  0  0  0  0  0  0  0  0
   -6.2272   -2.0932   28.0595 C   0  0  0  0  0  0  0  0  0  0  0  0
  6  9  1  0
  4 17  1  0
 17 18  2  0
 18 19  1  0
 19 22  2  0
 22 21  1  0
 21 20  2  0
 20 17  1  0
  1  2  2  0
  2  8  1  0
  8 15  2  0
 15 16  1  0
 16  7  2  0
  9 10  2  0
 10 11  1  0
 11 12  2  0
 12 14  1  0
 14 13  2  0
 13  9  1  0
  1  3  1  0
  3  4  2  0
  4  5  1  0
  5  6  2  0
  6  7  1  0
  7  1  1  0
M  END
$$$$
