No_2478-complexes_sdf/6BKW-FPZ/2024-09-17-14-21-01/
     RDKit          3D

 25 28  0  0  0  0  0  0  0  0999 V2000
   -7.9040    3.9820   27.1177 C   0  0  0  0  0  0  0  0  0  0  0  0
   -7.8663    4.8694   27.9238 C   0  0  0  0  0  0  0  0  0  0  0  0
   -7.4547    2.7080   27.4594 C   0  0  0  0  0  0  0  0  0  0  0  0
   -8.0927    6.2909   27.5184 C   0  0  0  0  0  0  0  0  0  0  0  0
   -8.9150    6.5640   26.4331 C   0  0  0  0  0  0  0  0  0  0  0  0
   -7.6563    1.4669   26.7412 C   0  0  0  0  0  0  0  0  0  0  0  0
   -8.5677    4.0888   25.8550 C   0  0  0  0  0  0  0  0  0  0  0  0
   -9.1571    5.4200   25.5546 C   0  0  0  0  0  0  0  0  0  0  0  0
   -7.0894    0.3178   27.1107 C   0  0  0  0  0  0  0  0  0  0  0  0
   -7.5549   -0.8633   26.5852 C   0  0  0  0  0  0  0  0  0  0  0  0
   -8.5633   -0.8161   25.6160 C   0  0  0  0  0  0  0  0  0  0  0  0
   -9.1422    0.3458   25.2497 C   0  0  0  0  0  0  0  0  0  0  0  0
   -8.6938    1.5457   25.8494 C   0  0  0  0  0  0  0  0  0  0  0  0
   -9.0987    2.9734   25.2482 N   0  0  0  0  0  0  0  0  0  0  0  0
   -9.9854    2.9688   24.1771 C   0  0  0  0  0  0  0  0  0  0  0  0
  -11.2107    3.5337   24.4171 C   0  0  0  0  0  0  0  0  0  0  0  0
  -12.1218    3.5854   23.3721 C   0  0  0  0  0  0  0  0  0  0  0  0
  -11.7468    3.1271   22.1112 C   0  0  0  0  0  0  0  0  0  0  0  0
  -10.5016    2.5211   21.9408 C   0  0  0  0  0  0  0  0  0  0  0  0
   -9.6110    2.4391   22.9793 C   0  0  0  0  0  0  0  0  0  0  0  0
   -6.2090    0.2801   28.1170 F   0  0  0  0  0  0  0  0  0  0  0  0
   -8.9988   -2.0685   24.9611 C   0  0  0  0  0  0  0  0  0  0  0  0
   -9.8660   -2.0479   24.0940 C   0  0  0  0  0  0  0  0  0  0  0  0
  -10.5024   -0.7655   23.7876 C   0  0  0  0  0  0  0  0  0  0  0  0
  -11.5912   -0.6623   22.8675 C   0  0  0  0  0  0  0  0  0  0  0  0
  1  3  1  0
  7 14  1  0
 13 14  1  0
 14 15  1  0
  9 21  1  0
 11 22  1  0
 22 23  2  3
 23 24  1  0
 24 25  1  0
  3  6  1  0
 15 16  2  0
 16 17  1  0
 17 18  2  0
 18 19  1  0
 19 20  2  0
 20 15  1  0
  1  2  2  0
  2  4  1  0
  4  5  2  0
  5  8  1  0
  8  7  2  0
  7  1  1  0
  6  9  2  0
  9 10  1  0
 10 11  2  0
 11 12  1  0
 12 13  2  0
 13  6  1  0
M  END
$$$$
