No_2832-complexes_sdf/6BKW-FPZ/2024-09-17-14-21-01/
     RDKit          3D

 13 14  0  0  0  0  0  0  0  0999 V2000
   -7.9040    3.9820   27.1177 C   0  0  0  0  0  0  0  0  0  0  0  0
   -8.2057    2.8231   26.8733 C   0  0  0  0  0  0  0  0  0  0  0  0
   -8.7695    5.0740   26.7916 C   0  0  0  0  0  0  0  0  0  0  0  0
   -9.9618    4.7598   26.1630 C   0  0  0  0  0  0  0  0  0  0  0  0
   -9.4200    2.4524   26.2850 C   0  0  0  0  0  0  0  0  0  0  0  0
  -10.2590    3.4815   25.9250 C   0  0  0  0  0  0  0  0  0  0  0  0
   -8.4259    6.3307   27.0704 F   0  0  0  0  0  0  0  0  0  0  0  0
   -7.2639    1.6678   27.2836 C   0  0  0  0  0  0  0  0  0  0  0  0
   -6.0282    1.9876   27.8531 C   0  0  0  0  0  0  0  0  0  0  0  0
   -5.1265    0.9126   28.2071 C   0  0  0  0  0  0  0  0  0  0  0  0
   -5.5068   -0.3770   28.0753 C   0  0  0  0  0  0  0  0  0  0  0  0
   -7.3896    0.2761   27.2310 C   0  0  0  0  0  0  0  0  0  0  0  0
   -6.6899   -0.6521   27.6104 C   0  0  0  0  0  0  0  0  0  0  0  0
  3  7  1  0
  2  8  1  0
  1  2  2  0
  2  5  1  0
  5  6  2  0
  6  4  1  0
  4  3  2  0
  3  1  1  0
  8  9  2  0
  9 10  1  0
 10 11  2  0
 11 13  1  0
 13 12  2  0
 12  8  1  0
M  END
$$$$
