No_2245-complexes_sdf/6BKW-FPZ/2024-09-17-14-21-01/
     RDKit          3D

 10 10  0  0  0  0  0  0  0  0999 V2000
   -7.7129    4.2099   27.0854 C   0  0  0  0  0  0  0  0  0  0  0  0
   -8.9133    4.4736   27.0998 C   0  0  1  0  0  0  0  0  0  0  0  0
   -9.4643    5.5426   27.7628 C   0  0  0  0  0  0  0  0  0  0  0  0
   -9.8091    3.6358   26.2841 C   0  0  0  0  0  0  0  0  0  0  0  0
  -10.5514    4.0993   25.5100 C   0  0  0  0  0  0  0  0  0  0  0  0
   -6.9699    4.5961   28.3750 C   0  0  0  0  0  0  0  0  0  0  0  0
  -10.6055    3.8467   24.3313 C   0  0  0  0  0  0  0  0  0  0  0  0
   -9.9073    2.7371   23.7863 C   0  0  0  0  0  0  0  0  0  0  0  0
   -9.2239    1.9548   24.7007 C   0  0  0  0  0  0  0  0  0  0  0  0
   -9.1102    2.4566   25.9316 C   0  0  0  0  0  0  0  0  0  0  0  0
  1  2  1  0
  2  3  1  6
  2  4  1  0
  1  6  1  0
  4  5  2  0
  5  7  1  0
  7  8  2  0
  8  9  1  0
  9 10  2  0
 10  4  1  0
M  END
$$$$
