No_2861-complexes_sdf/6BKW-FPZ/2024-09-17-14-21-01/
     RDKit          3D

 29 31  0  0  0  0  0  0  0  0999 V2000
   -7.9040    3.9820   27.1177 C   0  0  0  0  0  0  0  0  0  0  0  0
   -8.2057    2.8231   26.8733 C   0  0  0  0  0  0  0  0  0  0  0  0
   -8.7695    5.0740   26.7916 C   0  0  0  0  0  0  0  0  0  0  0  0
   -9.9618    4.7598   26.1630 C   0  0  0  0  0  0  0  0  0  0  0  0
   -7.3763    1.7038   27.3414 C   0  0  0  0  0  0  0  0  0  0  0  0
   -9.4134    2.4504   26.3004 C   0  0  0  0  0  0  0  0  0  0  0  0
  -10.2558    3.4522   25.9218 C   0  0  0  0  0  0  0  0  0  0  0  0
   -6.0952    1.9614   27.8767 C   0  0  0  0  0  0  0  0  0  0  0  0
   -5.2264    0.8847   28.2576 C   0  0  0  0  0  0  0  0  0  0  0  0
   -5.6636   -0.3998   28.1689 C   0  0  0  0  0  0  0  0  0  0  0  0
   -7.6448    0.3341   27.2818 C   0  0  0  0  0  0  0  0  0  0  0  0
   -6.8996   -0.6409   27.7229 C   0  0  0  0  0  0  0  0  0  0  0  0
   -8.4003    6.4960   27.0355 C   0  0  0  0  0  0  0  0  0  0  0  0
   -8.1165    7.0665   28.0927 N   0  0  0  0  0  0  0  0  0  0  0  0
   -8.5262    7.3627   25.9493 N   0  0  0  0  0  0  0  0  0  0  0  0
   -3.9807    1.2544   28.7656 O   0  0  0  0  0  0  0  0  0  0  0  0
   -7.8052    6.2776   29.0080 N   0  0  0  0  0  0  0  0  0  0  0  0
   -2.9743    0.6937   28.2454 C   0  0  0  0  0  0  0  0  0  0  0  0
   -2.7146   -0.6802   28.8205 C   0  0  0  0  0  0  0  0  0  0  0  0
   -2.8905   -0.9246   30.0069 O   0  0  0  0  0  0  0  0  0  0  0  0
   -2.2070   -1.6076   28.0423 N   0  0  0  0  0  0  0  0  0  0  0  0
   -1.9264   -1.4900   26.6285 C   0  0  0  0  0  0  0  0  0  0  0  0
   -1.7297   -2.5648   25.9797 C   0  0  0  0  0  0  0  0  0  0  0  0
   -1.3100   -3.5555   26.5749 C   0  0  0  0  0  0  0  0  0  0  0  0
   -1.3287   -3.7386   27.9517 C   0  0  0  0  0  0  0  0  0  0  0  0
   -1.8124   -2.7620   28.6979 C   0  0  0  0  0  0  0  0  0  0  0  0
   -7.3653   -2.0458   27.6435 C   0  0  0  0  0  0  0  0  0  0  0  0
   -6.9489   -2.9497   27.8186 N   0  0  0  0  0  0  0  0  0  0  0  0
   -7.5281   -4.2119   27.7402 C   0  0  0  0  0  0  0  0  0  0  0  0
  2  5  1  0
  3 13  1  0
 13 14  2  3
 13 15  1  0
  9 16  1  0
 14 17  1  0
 16 18  1  0
 18 19  1  0
 19 20  2  0
 19 21  1  0
 21 22  1  0
 23 24  1  0
 21 26  1  0
 25 26  1  0
 12 27  1  0
 27 28  2  3
 28 29  1  0
 22 23  1  0
 24 25  1  0
  1  2  2  0
  2  6  1  0
  6  7  2  0
  7  4  1  0
  4  3  2  0
  3  1  1  0
  5  8  2  0
  8  9  1  0
  9 10  2  0
 10 12  1  0
 12 11  2  0
 11  5  1  0
M  END
$$$$
