No_2007-complexes_sdf/6BKW-FPZ/2024-09-17-14-21-01/
     RDKit          3D

 10 10  0  0  0  0  0  0  0  0999 V2000
   -7.9040    3.9820   27.1177 C   0  0  0  0  0  0  0  0  0  0  0  0
   -8.2057    2.8231   26.8733 C   0  0  0  0  0  0  0  0  0  0  0  0
   -7.4766    1.7477   27.4593 C   0  0  0  0  0  0  0  0  0  0  0  0
   -8.7468    5.1251   26.6967 C   0  0  0  0  0  0  0  0  0  0  0  0
   -8.4775    6.4967   27.1056 C   0  0  0  0  0  0  0  0  0  0  0  0
   -7.7864    0.3940   27.2703 C   0  0  0  0  0  0  0  0  0  0  0  0
   -9.0432    0.1469   26.6888 C   0  0  0  0  0  0  0  0  0  0  0  0
   -9.7844    1.1626   26.1270 C   0  0  0  0  0  0  0  0  0  0  0  0
   -9.3875    2.4789   26.2654 C   0  0  0  0  0  0  0  0  0  0  0  0
   -7.2437    6.7131   27.7634 C   0  0  0  0  0  0  0  0  0  0  0  0
  1  4  1  0
  4  5  2  3
  5 10  1  0
  1  2  1  0
  2  3  2  0
  3  6  1  0
  6  7  2  0
  7  8  1  0
  8  9  2  0
  9  2  1  0
M  END
$$$$
