No_2527-complexes_sdf/6BKW-FPZ/2024-09-17-14-21-01/
     RDKit          3D

 25 28  0  0  0  0  0  0  0  0999 V2000
   -7.7129    4.2099   27.0854 C   0  0  0  0  0  0  0  0  0  0  0  0
   -8.9133    4.4736   27.0998 C   0  0  0  0  0  0  0  0  0  0  0  0
   -9.7937    3.7368   26.2091 C   0  0  0  0  0  0  0  0  0  0  0  0
   -7.2496    2.8647   26.8496 C   0  0  0  0  0  0  0  0  0  0  0  0
   -8.1891    1.9790   26.3454 C   0  0  0  0  0  0  0  0  0  0  0  0
   -9.4252    2.4603   26.0121 C   0  0  0  0  0  0  0  0  0  0  0  0
   -9.3121    5.9663   27.2474 C   0  0  0  0  0  0  0  0  0  0  0  0
   -7.7466    0.5946   26.1401 C   0  0  0  0  0  0  0  0  0  0  0  0
   -8.0852    0.0018   24.9819 C   0  0  0  0  0  0  0  0  0  0  0  0
   -7.6073   -1.3168   24.7009 C   0  0  0  0  0  0  0  0  0  0  0  0
   -6.8329   -1.9903   25.6777 C   0  0  0  0  0  0  0  0  0  0  0  0
   -6.8819   -0.1006   27.0655 C   0  0  0  0  0  0  0  0  0  0  0  0
   -6.4756   -1.3261   26.8823 C   0  0  0  0  0  0  0  0  0  0  0  0
   -8.4328    7.0379   26.8918 C   0  0  0  0  0  0  0  0  0  0  0  0
   -7.1171    6.7300   26.4802 C   0  0  0  0  0  0  0  0  0  0  0  0
   -6.6373    5.3460   26.9319 C   0  0  0  0  0  0  0  0  0  0  0  0
  -11.1469    4.1626   25.8870 C   0  0  1  0  0  0  0  0  0  0  0  0
  -11.5702    4.0362   24.5985 C   0  0  0  0  0  0  0  0  0  0  0  0
  -10.7819    4.3075   23.5240 C   0  0  0  0  0  0  0  0  0  0  0  0
  -11.1529    4.2059   22.1824 C   0  0  0  0  0  0  0  0  0  0  0  0
  -12.4179    3.7799   21.9211 C   0  0  0  0  0  0  0  0  0  0  0  0
  -12.8633    3.6680   24.2853 C   0  0  0  0  0  0  0  0  0  0  0  0
  -13.2974    3.5658   22.9509 C   0  0  0  0  0  0  0  0  0  0  0  0
  -12.0638    4.4873   26.9827 C   0  0  0  0  0  0  0  0  0  0  0  0
  -11.7323    4.6551   28.2968 C   0  0  0  0  0  0  0  0  0  0  0  0
  5  8  1  0
  3 17  1  0
 17 18  1  0
 17 24  1  1
 24 25  1  0
 18 19  2  0
 19 20  1  0
 20 21  2  0
 21 23  1  0
 23 22  2  0
 22 18  1  0
  2  3  1  0
  3  6  2  0
  6  5  1  0
  5  4  2  0
  4  1  1  0
  8  9  2  0
  9 10  1  0
 10 11  2  0
 11 13  1  0
 13 12  2  0
 12  8  1  0
  1  2  2  0
  2  7  1  0
  7 14  2  0
 14 15  1  0
 15 16  2  0
 16  1  1  0
M  END
$$$$
