No_2108-complexes_sdf/6BKW-FPZ/2024-09-17-14-21-01/
     RDKit          3D

 17 17  0  0  0  0  0  0  0  0999 V2000
   -7.9040    3.9820   27.1177 C   0  0  0  0  0  0  0  0  0  0  0  0
   -8.2057    2.8231   26.8733 C   0  0  0  0  0  0  0  0  0  0  0  0
   -9.2962    2.4021   26.1155 C   0  0  0  0  0  0  0  0  0  0  0  0
   -8.7358    5.0662   26.5917 C   0  0  0  0  0  0  0  0  0  0  0  0
   -8.4603    6.4492   26.8781 C   0  0  0  0  0  0  0  0  0  0  0  0
  -10.1146    3.3815   25.6105 C   0  0  0  0  0  0  0  0  0  0  0  0
   -9.8194    4.7235   25.8263 C   0  0  0  0  0  0  0  0  0  0  0  0
   -8.0989    7.5398   27.0611 N   0  0  0  0  0  0  0  0  0  0  0  0
   -9.5383    0.9649   25.9178 C   0  0  0  0  0  0  0  0  0  0  0  0
   -8.8115    0.1364   26.0291 N   0  0  0  0  0  0  0  0  0  0  0  0
   -7.7478    0.0948   26.5249 C   0  0  0  0  0  0  0  0  0  0  0  0
   -6.9046   -1.1216   26.5856 C   0  0  0  0  0  0  0  0  0  0  0  0
   -5.6316   -0.9486   26.8597 C   0  0  0  0  0  0  0  0  0  0  0  0
   -5.1051   -0.2442   27.5074 C   0  0  0  0  0  0  0  0  0  0  0  0
   -3.7030    0.0001   27.9105 C   0  0  0  0  0  0  0  0  0  0  0  0
   -2.8327   -0.7917   27.2169 C   0  0  0  0  0  0  0  0  0  0  0  0
   -3.2843   -1.7088   26.3577 C   0  0  0  0  0  0  0  0  0  0  0  0
  4  5  1  0
  5  8  3  0
  3  9  1  0
  9 10  1  0
 10 11  1  0
 11 12  2  3
 12 13  1  0
 13 14  2  3
 14 15  1  0
 15 16  2  3
 16 17  1  0
  1  2  2  0
  2  3  1  0
  3  6  2  0
  6  7  1  0
  7  4  2  0
  4  1  1  0
M  END
$$$$
