No_2355-complexes_sdf/6BKW-FPZ/2024-09-17-14-21-01/
     RDKit          3D

 15 16  0  0  0  0  0  0  0  0999 V2000
   -7.9040    3.9820   27.1177 C   0  0  0  0  0  0  0  0  0  0  0  0
   -8.2057    2.8231   26.8733 C   0  0  0  0  0  0  0  0  0  0  0  0
   -9.2962    2.4021   26.1155 C   0  0  0  0  0  0  0  0  0  0  0  0
   -8.7358    5.0662   26.5917 C   0  0  0  0  0  0  0  0  0  0  0  0
   -9.7618    4.7023   25.7546 C   0  0  0  0  0  0  0  0  0  0  0  0
  -10.0066    3.4105   25.4922 C   0  0  0  0  0  0  0  0  0  0  0  0
   -8.3943    6.4760   26.8801 C   0  0  0  0  0  0  0  0  0  0  0  0
   -8.0394    6.8605   28.0789 N   0  0  0  0  0  0  0  0  0  0  0  0
   -8.6644    7.7518   25.5424 Br  0  0  0  0  0  0  0  0  0  0  0  0
   -7.3448    1.6841   27.4828 C   0  0  0  0  0  0  0  0  0  0  0  0
   -6.0053    1.9760   27.8211 C   0  0  0  0  0  0  0  0  0  0  0  0
   -5.1670    0.9266   28.3348 C   0  0  0  0  0  0  0  0  0  0  0  0
   -5.6415   -0.3686   28.3767 C   0  0  0  0  0  0  0  0  0  0  0  0
   -7.6896    0.3441   27.4812 C   0  0  0  0  0  0  0  0  0  0  0  0
   -6.9079   -0.6206   28.0107 C   0  0  0  0  0  0  0  0  0  0  0  0
  4  7  1  0
  7  8  2  0
  7  9  1  0
  2 10  1  0
  1  2  2  0
  2  3  1  0
  3  6  2  0
  6  5  1  0
  5  4  2  0
  4  1  1  0
 10 11  2  0
 11 12  1  0
 12 13  2  0
 13 15  1  0
 15 14  2  0
 14 10  1  0
M  END
$$$$
