No_2520-complexes_sdf/6BKW-FPZ/2024-09-17-14-21-01/
     RDKit          3D

 40 44  0  0  0  0  0  0  0  0999 V2000
   -7.7129    4.2099   27.0854 C   0  0  0  0  0  0  0  0  0  0  0  0
   -8.2112    3.0637   26.9225 C   0  0  0  0  0  0  0  0  0  0  0  0
   -9.4446    2.8304   26.1868 C   0  0  0  0  0  0  0  0  0  0  0  0
   -8.4697    5.3956   26.7238 C   0  0  0  0  0  0  0  0  0  0  0  0
   -9.6172    5.2111   25.9513 C   0  0  0  0  0  0  0  0  0  0  0  0
  -10.0424    3.9782   25.6873 C   0  0  0  0  0  0  0  0  0  0  0  0
   -7.7142    1.7268   27.3793 C   0  0  0  0  0  0  0  0  0  0  0  0
   -6.2947    1.6902   27.6953 C   0  0  0  0  0  0  0  0  0  0  0  0
   -5.6881    0.5271   28.0640 C   0  0  0  0  0  0  0  0  0  0  0  0
   -6.4066   -0.6332   28.1043 C   0  0  0  0  0  0  0  0  0  0  0  0
   -8.0954    0.4128   27.2608 C   0  0  0  0  0  0  0  0  0  0  0  0
   -7.6655   -0.6436   27.7064 C   0  0  0  0  0  0  0  0  0  0  0  0
   -7.9449    6.7218   27.0587 C   0  0  0  0  0  0  0  0  0  0  0  0
   -8.5460    7.8415   26.6357 N   0  0  0  0  0  0  0  0  0  0  0  0
   -7.2262    6.8255   28.2222 N   0  0  0  0  0  0  0  0  0  0  0  0
   -4.2432    0.5857   28.5326 C   0  0  0  0  0  0  0  0  0  0  0  0
   -3.8089   -0.0417   29.5759 N   0  0  0  0  0  0  0  0  0  0  0  0
   -4.1021    0.2690   30.8262 C   0  0  0  0  0  0  0  0  0  0  0  0
   -3.7889   -0.6588   31.8556 C   0  0  0  0  0  0  0  0  0  0  0  0
   -2.9128   -1.1043   29.4460 C   0  0  0  0  0  0  0  0  0  0  0  0
   -2.4810   -1.9095   30.4232 C   0  0  0  0  0  0  0  0  0  0  0  0
   -2.8490   -1.5889   31.7434 C   0  0  0  0  0  0  0  0  0  0  0  0
   -3.4275    1.2267   27.7561 O   0  0  0  0  0  0  0  0  0  0  0  0
  -11.4219    3.8000   24.6899 Cl  0  0  0  0  0  0  0  0  0  0  0  0
   -2.3814   -2.3787   32.8957 C   0  0  0  0  0  0  0  0  0  0  0  0
   -2.8777   -2.2007   33.9276 C   0  0  0  0  0  0  0  0  0  0  0  0
   -3.9340   -1.1088   34.1744 C   0  0  0  0  0  0  0  0  0  0  0  0
   -4.3328   -0.3418   33.2004 C   0  0  0  0  0  0  0  0  0  0  0  0
   -4.5542   -0.8621   35.5687 C   0  0  0  0  0  0  0  0  0  0  0  0
   -3.9649   -0.1163   36.4598 N   0  0  0  0  0  0  0  0  0  0  0  0
   -4.5936    0.1741   37.6664 C   0  0  0  0  0  0  0  0  0  0  0  0
   -4.0963    1.1918   38.5600 C   0  0  0  0  0  0  0  0  0  0  0  0
   -4.7517    1.6618   39.6866 C   0  0  0  0  0  0  0  0  0  0  0  0
   -5.7772   -0.4142   38.1048 C   0  0  0  0  0  0  0  0  0  0  0  0
   -6.4454    0.0039   39.2590 C   0  0  0  0  0  0  0  0  0  0  0  0
   -5.9458    0.9990   40.0459 C   0  0  0  0  0  0  0  0  0  0  0  0
   -5.6079   -1.5458   35.7564 O   0  0  0  0  0  0  0  0  0  0  0  0
   -7.7195   -0.6559   39.6101 C   0  0  0  0  0  0  0  0  0  0  0  0
   -7.6923   -1.5687   40.3451 N   0  0  0  0  0  0  0  0  0  0  0  0
   -8.6970   -2.3128   40.7220 C   0  0  0  0  0  0  0  0  0  0  0  0
  2  7  1  0
  4 13  1  0
 13 14  2  0
 13 15  1  0
  9 16  1  0
 16 17  1  0
 17 18  1  0
 17 20  1  0
 21 22  1  0
 16 23  2  0
  6 24  1  0
 27 29  1  0
 29 30  1  0
 29 37  2  0
 35 38  1  0
 38 39  1  0
 39 40  1  0
 30 31  1  0
 18 19  1  0
 21 20  1  0
  1  2  2  0
  2  3  1  0
  3  6  2  0
  6  5  1  0
  5  4  2  0
  4  1  1  0
 31 32  2  0
 32 33  1  0
 33 36  2  0
 36 35  1  0
 35 34  2  0
 34 31  1  0
  7  8  2  0
  8  9  1  0
  9 10  2  0
 10 12  1  0
 12 11  2  0
 11  7  1  0
 19 22  2  0
 22 25  1  0
 25 26  2  0
 26 27  1  0
 27 28  2  0
 28 19  1  0
M  END
$$$$
