No_287-complexes_sdf/6BKW-FPZ/2024-09-17-14-21-01/
     RDKit          3D

 15 16  0  0  0  0  0  0  0  0999 V2000
   -7.2496    3.8871   27.4508 C   0  0  0  0  0  0  0  0  0  0  0  0
   -7.6161    2.7143   27.1523 C   0  0  0  0  0  0  0  0  0  0  0  0
   -8.6212    2.2239   26.4073 C   0  0  0  0  0  0  0  0  0  0  0  0
   -8.2540    4.9237   27.1711 C   0  0  0  0  0  0  0  0  0  0  0  0
   -9.3729    4.5806   26.4432 C   0  0  0  0  0  0  0  0  0  0  0  0
   -9.5830    3.2969   26.1026 C   0  0  0  0  0  0  0  0  0  0  0  0
   -8.1513    6.3337   27.5484 C   0  0  0  0  0  0  0  0  0  0  0  0
   -9.0250    7.2325   27.1448 N   0  0  0  0  0  0  0  0  0  0  0  0
   -8.8581    0.8888   26.0366 C   0  0  0  0  0  0  0  0  0  0  0  0
   -9.0987   -0.0732   26.9191 C   0  0  0  0  0  0  0  0  0  0  0  0
   -9.2533   -1.3835   26.7388 C   0  0  0  0  0  0  0  0  0  0  0  0
   -8.7706    0.4945   24.7062 C   0  0  0  0  0  0  0  0  0  0  0  0
   -8.8953   -0.8421   24.3064 C   0  0  0  0  0  0  0  0  0  0  0  0
   -9.1896   -1.7613   25.3573 C   0  0  0  0  0  0  0  0  0  0  0  0
   -6.9026    6.7205   27.9047 O   0  0  0  0  0  0  0  0  0  0  0  0
  4  7  1  0
  7  8  1  0
  3  9  1  0
  7 15  2  0
  9 10  2  0
 10 11  1  0
 11 14  2  0
 14 13  1  0
 13 12  2  0
 12  9  1  0
  1  2  2  0
  2  3  1  0
  3  6  2  0
  6  5  1  0
  5  4  2  0
  4  1  1  0
M  END
$$$$
