No_2950-complexes_sdf/6BKW-FPZ/2024-09-17-14-21-01/
     RDKit          3D

 11 12  0  0  0  0  0  0  0  0999 V2000
   -7.7129    4.2099   27.0854 C   0  0  0  0  0  0  0  0  0  0  0  0
   -8.9133    4.4736   27.0998 C   0  0  2  0  0  0  0  0  0  0  0  0
   -9.7135    3.9633   26.0300 C   0  0  0  0  0  0  0  0  0  0  0  0
   -6.8420    4.9760   28.0851 C   0  0  0  0  0  0  0  0  0  0  0  0
  -10.9164    3.4776   26.1172 C   0  0  0  0  0  0  0  0  0  0  0  0
  -11.6177    2.9631   24.9548 C   0  0  0  0  0  0  0  0  0  0  0  0
  -11.0306    3.1350   23.7073 C   0  0  0  0  0  0  0  0  0  0  0  0
   -9.8361    3.8101   23.5777 C   0  0  0  0  0  0  0  0  0  0  0  0
   -9.1538    4.2829   24.6900 C   0  0  0  0  0  0  0  0  0  0  0  0
   -7.7171    5.7528   28.7937 N   0  0  0  0  0  0  0  0  0  0  0  0
   -8.9863    5.5087   28.0583 C   0  0  0  0  0  0  0  0  0  0  0  0
  1  2  1  0
  2  3  1  6
  1  4  1  0
  4 10  1  0
  2 11  1  0
 10 11  1  0
  3  5  2  0
  5  6  1  0
  6  7  2  0
  7  8  1  0
  8  9  2  0
  9  3  1  0
M  END
$$$$
