No_2702-complexes_sdf/6BKW-FPZ/2024-09-17-14-21-01/
     RDKit          3D

 12 13  0  0  0  0  0  0  0  0999 V2000
   -7.7129    4.2099   27.0854 C   0  0  0  0  0  0  0  0  0  0  0  0
   -7.7814    5.1722   27.8972 C   0  0  0  0  0  0  0  0  0  0  0  0
   -8.7889    3.2468   27.2220 C   0  0  0  0  0  0  0  0  0  0  0  0
   -9.8927    3.4443   27.8449 C   0  0  0  0  0  0  0  0  0  0  0  0
   -9.0268    5.6720   28.5154 C   0  0  0  0  0  0  0  0  0  0  0  0
  -10.0572    4.7324   28.5632 C   0  0  0  0  0  0  0  0  0  0  0  0
   -8.6015    1.8826   26.5580 C   0  0  0  0  0  0  0  0  0  0  0  0
   -9.2628    1.5236   25.5427 C   0  0  0  0  0  0  0  0  0  0  0  0
   -8.9816    0.4112   24.8011 C   0  0  0  0  0  0  0  0  0  0  0  0
   -7.5772    1.0508   27.0927 C   0  0  0  0  0  0  0  0  0  0  0  0
   -7.2452   -0.1284   26.4666 C   0  0  0  0  0  0  0  0  0  0  0  0
   -7.9708   -0.4291   25.3111 C   0  0  0  0  0  0  0  0  0  0  0  0
  3  7  1  0
  1  2  2  0
  2  5  1  0
  5  6  2  0
  6  4  1  0
  4  3  2  0
  3  1  1  0
  7  8  2  0
  8  9  1  0
  9 12  2  0
 12 11  1  0
 11 10  2  0
 10  7  1  0
M  END
$$$$
