No_2111-complexes_sdf/6BKW-FPZ/2024-09-17-14-21-01/
     RDKit          3D

 18 20  0  0  0  0  0  0  0  0999 V2000
   -7.2496    3.8871   27.4508 C   0  0  0  0  0  0  0  0  0  0  0  0
   -7.9379    4.9063   27.8518 C   0  0  1  0  0  0  0  0  0  0  0  0
   -7.5112    6.1898   27.6280 C   0  0  0  0  0  0  0  0  0  0  0  0
   -9.3085    4.6933   28.2930 C   0  0  1  0  0  0  0  0  0  0  0  0
   -7.7804    2.5137   27.6845 C   0  0  2  0  0  0  0  0  0  0  0  0
   -7.0499    1.4112   27.1570 C   0  0  0  0  0  0  0  0  0  0  0  0
   -7.7147    0.4723   26.3729 C   0  0  0  0  0  0  0  0  0  0  0  0
   -8.5480    0.9704   25.4250 C   0  0  0  0  0  0  0  0  0  0  0  0
   -9.5848    1.7242   25.7410 C   0  0  0  0  0  0  0  0  0  0  0  0
  -10.5712    2.2287   24.8114 C   0  0  0  0  0  0  0  0  0  0  0  0
  -10.5445    2.1170   23.7440 C   0  0  0  0  0  0  0  0  0  0  0  0
   -9.5704    1.0920   23.1722 C   0  0  0  0  0  0  0  0  0  0  0  0
   -8.6165    0.4962   24.0228 C   0  0  0  0  0  0  0  0  0  0  0  0
  -10.2741    5.6976   28.2671 C   0  0  0  0  0  0  0  0  0  0  0  0
   -9.8357    3.3051   27.8229 C   0  0  1  0  0  0  0  0  0  0  0  0
   -9.0146    2.1815   28.0347 C   0  0  1  0  0  0  0  0  0  0  0  0
   -9.8873    2.1149   26.9291 N   0  0  0  0  0  0  0  0  0  0  0  0
  -11.2968    3.6905   27.8651 C   0  0  0  0  0  0  0  0  0  0  0  0
  1  2  1  0
  2  3  1  6
  2  4  1  0
  5  1  1  6
  5  6  1  0
  6  7  1  0
  7  8  1  0
  4 14  1  6
  4 15  1  0
  5 16  1  0
 15 16  1  0
  9 17  1  0
 16 17  1  6
 15 18  1  1
  8  9  2  0
  9 10  1  0
 10 11  2  0
 11 12  1  0
 12 13  2  0
 13  8  1  0
M  END
$$$$
