No_2704-complexes_sdf/6BKW-FPZ/2024-09-17-14-21-01/
     RDKit          3D

 14 15  0  0  0  0  0  0  0  0999 V2000
   -7.2496    3.8871   27.4508 C   0  0  0  0  0  0  0  0  0  0  0  0
   -7.6161    2.7143   27.1523 C   0  0  0  0  0  0  0  0  0  0  0  0
   -8.6212    2.2239   26.4073 C   0  0  0  0  0  0  0  0  0  0  0  0
   -8.2540    4.9237   27.1711 C   0  0  0  0  0  0  0  0  0  0  0  0
   -9.3729    4.5806   26.4432 C   0  0  0  0  0  0  0  0  0  0  0  0
   -9.5830    3.2969   26.1026 C   0  0  0  0  0  0  0  0  0  0  0  0
   -7.9304    6.3207   27.5389 C   0  0  0  0  0  0  0  0  0  0  0  0
   -8.8114    7.3691   27.0321 C   0  0  0  0  0  0  0  0  0  0  0  0
   -6.6015    1.5438   27.5679 C   0  0  0  0  0  0  0  0  0  0  0  0
   -5.3560    1.8778   28.1368 C   0  0  0  0  0  0  0  0  0  0  0  0
   -4.4472    0.8504   28.4622 C   0  0  0  0  0  0  0  0  0  0  0  0
   -4.8239   -0.4673   28.4420 C   0  0  0  0  0  0  0  0  0  0  0  0
   -6.9109    0.2077   27.5031 C   0  0  0  0  0  0  0  0  0  0  0  0
   -6.0671   -0.7573   27.9391 C   0  0  0  0  0  0  0  0  0  0  0  0
  4  7  1  0
  7  8  2  0
  2  9  1  0
  1  2  2  0
  2  3  1  0
  3  6  2  0
  6  5  1  0
  5  4  2  0
  4  1  1  0
  9 10  2  0
 10 11  1  0
 11 12  2  0
 12 14  1  0
 14 13  2  0
 13  9  1  0
M  END
$$$$
