No_2040-complexes_sdf/6BKW-FPZ/2024-09-17-14-21-01/
     RDKit          3D

 26 28  0  0  0  0  0  0  0  0999 V2000
   -7.7129    4.2099   27.0854 C   0  0  0  0  0  0  0  0  0  0  0  0
   -8.2112    3.0637   26.9225 C   0  0  0  0  0  0  0  0  0  0  0  0
   -9.5629    2.7997   27.0678 C   0  0  0  0  0  0  0  0  0  0  0  0
   -8.5911    5.3704   27.2036 C   0  0  0  0  0  0  0  0  0  0  0  0
   -9.9544    5.1489   27.1401 C   0  0  0  0  0  0  0  0  0  0  0  0
  -10.4577    3.9280   27.0818 C   0  0  0  0  0  0  0  0  0  0  0  0
   -8.0077    6.7251   27.2943 C   0  0  0  0  0  0  0  0  0  0  0  0
  -10.0661    1.3994   26.9567 C   0  0  0  0  0  0  0  0  0  0  0  0
  -11.1066    1.0306   27.6224 C   0  0  0  0  0  0  0  0  0  0  0  0
  -11.5277   -0.3679   27.6762 C   0  0  0  0  0  0  0  0  0  0  0  0
  -10.7005   -1.2757   27.0548 C   0  0  0  0  0  0  0  0  0  0  0  0
   -9.3296    0.2810   26.5784 C   0  0  0  0  0  0  0  0  0  0  0  0
   -9.5982   -0.9461   26.5318 C   0  0  0  0  0  0  0  0  0  0  0  0
   -7.9562    7.8941   26.9037 N   0  0  0  0  0  0  0  0  0  0  0  0
  -11.2422   -2.7336   27.1270 C   0  0  0  0  0  0  0  0  0  0  0  0
  -12.2827   -3.0406   27.3000 C   0  0  0  0  0  0  0  0  0  0  0  0
  -13.2283   -1.9919   27.8887 C   0  0  0  0  0  0  0  0  0  0  0  0
  -12.8759   -0.6800   28.1274 C   0  0  0  0  0  0  0  0  0  0  0  0
  -14.4711   -2.4187   28.3603 F   0  0  0  0  0  0  0  0  0  0  0  0
   -8.4042   -2.1825   25.8149 Br  0  0  0  0  0  0  0  0  0  0  0  0
  -13.9174    0.4804   28.7608 Cl  0  0  0  0  0  0  0  0  0  0  0  0
  -12.8078   -4.2976   27.3876 O   0  0  0  0  0  0  0  0  0  0  0  0
  -12.3192   -5.2052   26.6789 C   0  0  0  0  0  0  0  0  0  0  0  0
  -12.5984   -5.3782   25.3784 C   0  0  0  0  0  0  0  0  0  0  0  0
  -13.7975   -5.0501   24.9107 C   0  0  0  0  0  0  0  0  0  0  0  0
  -14.1010   -5.1218   23.5053 C   0  0  0  0  0  0  0  0  0  0  0  0
  4  7  1  0
  3  8  1  0
  7 14  3  0
 17 19  1  0
 13 20  1  0
 18 21  1  0
 16 22  1  0
 22 23  1  0
 23 24  1  0
 24 25  2  3
 25 26  1  0
 11 15  2  0
 15 16  1  0
 16 17  2  0
 17 18  1  0
 18 10  2  0
  1  2  2  0
  2  3  1  0
  3  6  2  0
  6  5  1  0
  5  4  2  0
  4  1  1  0
  8  9  2  0
  9 10  1  0
 10 11  1  0
 11 13  1  0
 13 12  2  0
 12  8  1  0
M  END
$$$$
