No_2413-complexes_sdf/6BKW-FPZ/2024-09-17-14-21-01/
     RDKit          3D

 13 13  0  0  0  0  0  0  0  0999 V2000
   -7.2496    3.8871   27.4508 C   0  0  0  0  0  0  0  0  0  0  0  0
   -8.5096    4.0291   27.2770 C   0  0  0  0  0  0  0  0  0  0  0  0
   -9.3451    2.8786   26.9046 C   0  0  0  0  0  0  0  0  0  0  0  0
   -8.7138    1.7135   26.7541 C   0  0  0  0  0  0  0  0  0  0  0  0
   -6.6024    2.6286   27.4581 C   0  0  0  0  0  0  0  0  0  0  0  0
   -7.3557    1.5598   27.1381 C   0  0  0  0  0  0  0  0  0  0  0  0
   -9.1549    5.3630   27.3415 C   0  0  0  0  0  0  0  0  0  0  0  0
   -8.3364    6.5089   27.1416 C   0  0  0  0  0  0  0  0  0  0  0  0
   -8.8589    7.8170   26.9714 C   0  0  0  0  0  0  0  0  0  0  0  0
   -6.6984    0.2568   27.0332 C   0  0  2  0  0  0  0  0  0  0  0  0
   -7.0131   -0.7823   26.8828 Cl  0  0  0  0  0  0  0  0  0  0  0  0
   -5.1465    0.5358   27.3709 C   0  0  0  0  0  0  0  0  0  0  0  0
   -4.7676   -0.0597   28.2856 O   0  0  0  0  0  0  0  0  0  0  0  0
  2  7  1  0
  7  8  2  3
  8  9  1  0
  6 10  1  0
 10 11  1  1
 10 12  1  0
 12 13  2  0
  1  2  2  0
  2  3  1  0
  3  4  2  0
  4  6  1  0
  6  5  2  0
  5  1  1  0
M  END
$$$$
