No_2058-complexes_sdf/6BKW-FPZ/2024-09-17-14-21-01/
     RDKit          3D

 10 10  0  0  0  0  0  0  0  0999 V2000
   -7.2496    3.8871   27.4508 C   0  0  0  0  0  0  0  0  0  0  0  0
   -7.6161    2.7143   27.1523 C   0  0  0  0  0  0  0  0  0  0  0  0
   -8.8302    2.4659   26.5056 C   0  0  0  0  0  0  0  0  0  0  0  0
   -8.1584    5.0090   27.3234 C   0  0  0  0  0  0  0  0  0  0  0  0
   -7.8138    6.3406   27.7108 C   0  0  0  0  0  0  0  0  0  0  0  0
   -9.7360    3.4989   26.3531 C   0  0  0  0  0  0  0  0  0  0  0  0
   -9.3942    4.8432   26.7521 C   0  0  0  0  0  0  0  0  0  0  0  0
   -9.3661    1.1481   26.1403 C   0  0  0  0  0  0  0  0  0  0  0  0
  -10.0544    0.9504   25.2802 C   0  0  0  0  0  0  0  0  0  0  0  0
  -10.3644   -0.3841   24.8705 C   0  0  0  0  0  0  0  0  0  0  0  0
  4  5  1  0
  3  8  1  0
  8  9  2  3
  9 10  1  0
  1  2  2  0
  2  3  1  0
  3  6  2  0
  6  7  1  0
  7  4  2  0
  4  1  1  0
M  END
$$$$
