No_2990-complexes_sdf/6BKW-FPZ/2024-09-17-14-21-01/
     RDKit          3D

 23 26  0  0  0  0  0  0  0  0999 V2000
   -7.7129    4.2099   27.0854 C   0  0  0  0  0  0  0  0  0  0  0  0
   -7.7814    5.1722   27.8972 C   0  0  0  0  0  0  0  0  0  0  0  0
   -7.3155    2.9700   27.6145 C   0  0  0  0  0  0  0  0  0  0  0  0
   -7.6814    1.8188   26.9581 C   0  0  0  0  0  0  0  0  0  0  0  0
   -8.6377    1.9131   25.9324 C   0  0  0  0  0  0  0  0  0  0  0  0
   -9.1866    3.0673   25.6037 C   0  0  0  0  0  0  0  0  0  0  0  0
   -8.8394    4.1752   26.2513 C   0  0  0  0  0  0  0  0  0  0  0  0
   -8.2486    6.4747   27.5719 N   0  0  0  0  0  0  0  0  0  0  0  0
   -9.0953    6.6391   26.5260 C   0  0  0  0  0  0  0  0  0  0  0  0
   -9.4505    5.4775   25.8556 C   0  0  0  0  0  0  0  0  0  0  0  0
   -6.8820    0.6109   27.3836 C   0  0  0  0  0  0  0  0  0  0  0  0
   -5.5824    0.6476   27.7951 C   0  0  0  0  0  0  0  0  0  0  0  0
   -4.9196   -0.4937   28.2345 C   0  0  0  0  0  0  0  0  0  0  0  0
   -5.6175   -1.6790   28.2646 C   0  0  0  0  0  0  0  0  0  0  0  0
   -7.4115   -0.7057   27.5211 C   0  0  0  0  0  0  0  0  0  0  0  0
   -8.8954   -0.7355   27.1619 C   0  0  0  0  0  0  0  0  0  0  0  0
   -6.8556   -1.7705   27.9874 C   0  0  0  0  0  0  0  0  0  0  0  0
   -9.2716   -1.0487   26.0213 C   0  0  0  0  0  0  0  0  0  0  0  0
  -10.6546   -1.2071   25.7005 C   0  0  0  0  0  0  0  0  0  0  0  0
  -11.5980   -0.9159   26.7042 C   0  0  0  0  0  0  0  0  0  0  0  0
  -11.1832   -0.5283   27.9927 C   0  0  0  0  0  0  0  0  0  0  0  0
   -9.8368   -0.4244   28.3018 C   0  0  0  0  0  0  0  0  0  0  0  0
   -3.6061   -0.3753   28.6043 F   0  0  0  0  0  0  0  0  0  0  0  0
  4 11  1  0
 15 16  1  0
 13 23  1  0
  1  2  2  0
  2  8  1  0
  8  9  2  0
  9 10  1  0
 10  7  2  0
 16 18  2  0
 18 19  1  0
 19 20  2  0
 20 21  1  0
 21 22  2  0
 22 16  1  0
 11 12  2  0
 12 13  1  0
 13 14  2  0
 14 17  1  0
 17 15  2  0
 15 11  1  0
  1  3  1  0
  3  4  2  0
  4  5  1  0
  5  6  2  0
  6  7  1  0
  7  1  1  0
M  END
$$$$
