No_2755-complexes_sdf/6BKW-FPZ/2024-09-17-14-21-01/
     RDKit          3D

 11 12  0  0  0  0  0  0  0  0999 V2000
   -7.2496    3.8871   27.4508 C   0  0  0  0  0  0  0  0  0  0  0  0
   -8.5096    4.0291   27.2770 C   0  0  0  0  0  0  0  0  0  0  0  0
   -9.3451    2.8786   26.9046 C   0  0  0  0  0  0  0  0  0  0  0  0
  -10.6709    3.0505   26.6789 C   0  0  0  0  0  0  0  0  0  0  0  0
   -6.6581    2.5721   27.5327 C   0  0  0  0  0  0  0  0  0  0  0  0
   -7.4631    1.4726   27.2657 C   0  0  0  0  0  0  0  0  0  0  0  0
   -8.8003    1.6549   26.9477 C   0  0  0  0  0  0  0  0  0  0  0  0
  -11.2007    4.2381   26.4875 C   0  0  0  0  0  0  0  0  0  0  0  0
  -10.3716    5.4608   26.6967 C   0  0  0  0  0  0  0  0  0  0  0  0
   -9.0965    5.3552   27.1483 C   0  0  0  0  0  0  0  0  0  0  0  0
   -8.1483    6.7413   27.3994 Cl  0  0  0  0  0  0  0  0  0  0  0  0
 10 11  1  0
  1  2  2  0
  3  7  2  0
  7  6  1  0
  6  5  2  0
  5  1  1  0
  2  3  1  0
  3  4  1  0
  4  8  2  0
  8  9  1  0
  9 10  2  0
 10  2  1  0
M  END
$$$$
