No_2663-complexes_sdf/6BKW-FPZ/2024-09-17-14-21-01/
     RDKit          3D

 16 17  0  0  0  0  0  0  0  0999 V2000
   -7.9040    3.9820   27.1177 C   0  0  0  0  0  0  0  0  0  0  0  0
   -7.8663    4.8694   27.9238 C   0  0  0  0  0  0  0  0  0  0  0  0
   -9.0953    3.1697   27.0532 C   0  0  0  0  0  0  0  0  0  0  0  0
   -9.1405    2.0104   26.1761 C   0  0  0  0  0  0  0  0  0  0  0  0
   -9.0299    5.5381   28.3948 C   0  0  0  0  0  0  0  0  0  0  0  0
  -10.2709    4.9222   28.1362 C   0  0  0  0  0  0  0  0  0  0  0  0
  -10.2487    3.7550   27.4045 C   0  0  0  0  0  0  0  0  0  0  0  0
   -8.6354    0.8334   26.7474 C   0  0  0  0  0  0  0  0  0  0  0  0
   -8.1433    0.7117   27.9452 C   0  0  0  0  0  0  0  0  0  0  0  0
   -8.6468   -0.3307   25.7895 C   0  0  0  0  0  0  0  0  0  0  0  0
   -8.0966   -1.4527   26.1524 C   0  0  0  0  0  0  0  0  0  0  0  0
   -7.5439   -0.5554   28.3386 C   0  0  0  0  0  0  0  0  0  0  0  0
   -7.5554   -1.6337   27.4825 C   0  0  0  0  0  0  0  0  0  0  0  0
   -9.5552    2.1404   24.8543 C   0  0  0  0  0  0  0  0  0  0  0  0
  -10.1911    3.6401   24.3482 S   0  0  0  0  0  0  0  0  0  0  0  0
  -10.6291    3.1403   22.8896 C   0  0  0  0  0  0  0  0  0  0  0  0
  3  4  1  0
  4  8  1  0
  4 14  1  0
 14 15  1  0
 15 16  1  0
  8  9  2  0
  9 12  1  0
 12 13  2  0
 13 11  1  0
 11 10  2  0
 10  8  1  0
  1  2  2  0
  2  5  1  0
  5  6  2  0
  6  7  1  0
  7  3  2  0
  3  1  1  0
M  END
$$$$
