No_201-complexes_sdf/6BKW-FPZ/2024-09-17-14-21-01/
     RDKit          3D

 39 43  0  0  0  0  0  0  0  0999 V2000
   -7.2496    3.8871   27.4508 C   0  0  0  0  0  0  0  0  0  0  0  0
   -8.5096    4.0291   27.2770 C   0  0  0  0  0  0  0  0  0  0  0  0
   -9.3451    2.8786   26.9046 C   0  0  0  0  0  0  0  0  0  0  0  0
  -10.6709    3.0505   26.6789 C   0  0  0  0  0  0  0  0  0  0  0  0
   -6.5987    2.6095   27.5132 C   0  0  0  0  0  0  0  0  0  0  0  0
   -7.3529    1.5121   27.2159 C   0  0  1  0  0  0  0  0  0  0  0  0
   -6.8123    0.2547   27.2645 C   0  0  0  0  0  0  0  0  0  0  0  0
   -8.6776    1.7225   26.9771 C   0  0  0  0  0  0  0  0  0  0  0  0
   -5.4516    0.1185   27.7451 C   0  0  0  0  0  0  0  0  0  0  0  0
   -4.8371   -1.1450   27.8490 C   0  0  0  0  0  0  0  0  0  0  0  0
  -11.4801    3.4243   27.7829 C   0  0  0  0  0  0  0  0  0  0  0  0
  -10.9493    3.8456   28.9400 C   0  0  0  0  0  0  0  0  0  0  0  0
  -12.9434    3.6826   27.5369 C   0  0  0  0  0  0  0  0  0  0  0  0
  -13.3733    4.1752   26.6603 C   0  0  0  0  0  0  0  0  0  0  0  0
  -14.8407    4.4320   26.3805 C   0  0  0  0  0  0  0  0  0  0  0  0
  -15.6511    4.1143   27.4318 C   0  0  0  0  0  0  0  0  0  0  0  0
  -13.8417    3.4315   28.7283 C   0  0  0  0  0  0  0  0  0  0  0  0
  -13.2274    2.8075   29.9240 C   0  0  0  0  0  0  0  0  0  0  0  0
  -15.1921    3.6172   28.6043 C   0  0  0  0  0  0  0  0  0  0  0  0
   -5.5155   -2.2009   27.3352 C   0  0  0  0  0  0  0  0  0  0  0  0
   -7.3079   -0.9522   26.8891 C   0  0  0  0  0  0  0  0  0  0  0  0
   -6.7482   -2.1392   26.8890 C   0  0  0  0  0  0  0  0  0  0  0  0
   -3.4279   -1.1654   28.3812 C   0  0  2  0  0  0  0  0  0  0  0  0
   -2.9488    0.0232   29.0048 C   0  0  0  0  0  0  0  0  0  0  0  0
   -3.6080    0.2953   30.1232 C   0  0  0  0  0  0  0  0  0  0  0  0
   -3.5307   -0.6360   31.2403 C   0  0  0  0  0  0  0  0  0  0  0  0
   -4.5856   -0.6936   32.1606 C   0  0  0  0  0  0  0  0  0  0  0  0
   -5.7252   -0.9405   31.9836 C   0  0  0  0  0  0  0  0  0  0  0  0
   -6.7044   -1.0992   33.0789 C   0  0  0  0  0  0  0  0  0  0  0  0
   -6.1141   -1.1597   34.4040 C   0  0  0  0  0  0  0  0  0  0  0  0
   -4.7392   -1.0259   34.6067 C   0  0  0  0  0  0  0  0  0  0  0  0
   -3.8951   -0.8473   33.5302 C   0  0  0  0  0  0  0  0  0  0  0  0
   -4.2177   -1.0226   35.9979 C   0  0  0  0  0  0  0  0  0  0  0  0
   -5.0162   -0.6855   36.7929 F   0  0  0  0  0  0  0  0  0  0  0  0
   -3.1873   -0.1112   36.0187 F   0  0  0  0  0  0  0  0  0  0  0  0
   -3.6807   -2.2048   36.1929 F   0  0  0  0  0  0  0  0  0  0  0  0
   -2.3928   -1.2920   31.3117 O   0  0  0  0  0  0  0  0  0  0  0  0
   -2.6505   -2.0549   27.4322 C   0  0  0  0  0  0  0  0  0  0  0  0
  -11.8375    2.9888   30.1519 C   0  0  0  0  0  0  0  0  0  0  0  0
  1  2  1  0
  2  3  1  0
  3  4  2  3
  1  5  1  0
  5  6  1  0
  6  7  1  1
  3  8  1  0
  6  8  1  0
  4 11  1  0
 10 23  1  0
 23 24  1  0
 24 25  1  0
 25 26  1  0
 26 27  1  0
 31 33  1  0
 33 34  1  0
 33 35  1  0
 33 36  1  0
 26 37  2  0
 23 38  1  6
  7  9  2  0
  9 10  1  0
 10 20  2  0
 20 22  1  0
 22 21  2  0
 21  7  1  0
 27 28  2  0
 28 29  1  0
 29 30  2  0
 30 31  1  0
 31 32  2  0
 32 27  1  0
 11 12  2  0
 12 39  1  0
 39 18  2  0
 18 17  1  0
 13 11  1  0
 13 14  2  0
 14 15  1  0
 15 16  2  0
 16 19  1  0
 19 17  2  0
 17 13  1  0
M  END
$$$$
