No_2206-complexes_sdf/6BKW-FPZ/2024-09-17-14-21-01/
     RDKit          3D

 19 21  0  0  0  0  0  0  0  0999 V2000
   -7.7129    4.2099   27.0854 C   0  0  0  0  0  0  0  0  0  0  0  0
   -8.9133    4.4736   27.0998 C   0  0  0  0  0  0  0  0  0  0  0  0
   -9.4616    5.6470   27.6290 C   0  0  0  0  0  0  0  0  0  0  0  0
   -6.8722    5.1130   27.9248 C   0  0  0  0  0  0  0  0  0  0  0  0
   -7.3801    6.2535   28.4126 C   0  0  0  0  0  0  0  0  0  0  0  0
   -8.6734    6.5530   28.2150 C   0  0  0  0  0  0  0  0  0  0  0  0
   -9.8786    3.5661   26.3056 C   0  0  0  0  0  0  0  0  0  0  0  0
  -10.1372    3.9012   25.0043 C   0  0  0  0  0  0  0  0  0  0  0  0
  -10.8593    3.1356   24.1206 C   0  0  0  0  0  0  0  0  0  0  0  0
  -11.0433    3.5748   22.7617 C   0  0  0  0  0  0  0  0  0  0  0  0
  -10.5940    4.8881   22.4636 C   0  0  0  0  0  0  0  0  0  0  0  0
  -10.0068    5.6775   23.4203 C   0  0  0  0  0  0  0  0  0  0  0  0
   -9.7964    5.3152   24.6643 C   0  0  0  0  0  0  0  0  0  0  0  0
   -9.2219    2.0901   26.3364 C   0  0  0  0  0  0  0  0  0  0  0  0
   -8.2439    1.6258   25.8075 C   0  0  0  0  0  0  0  0  0  0  0  0
   -7.7420    0.3427   25.8541 C   0  0  0  0  0  0  0  0  0  0  0  0
   -8.4327   -0.5230   26.7451 C   0  0  0  0  0  0  0  0  0  0  0  0
   -9.9940    1.1129   27.2085 C   0  0  0  0  0  0  0  0  0  0  0  0
   -9.5548   -0.1279   27.4396 C   0  0  0  0  0  0  0  0  0  0  0  0
  2  7  1  0
  7 14  1  0
  7  8  1  0
 14 15  2  0
 15 16  1  0
 16 17  2  0
 17 19  1  0
 19 18  2  0
 18 14  1  0
  1  2  2  0
  2  3  1  0
  3  6  2  0
  6  5  1  0
  5  4  2  0
  4  1  1  0
  8  9  2  0
  9 10  1  0
 10 11  2  0
 11 12  1  0
 12 13  2  0
 13  8  1  0
M  END
$$$$
