No_2253-complexes_sdf/6BKW-FPZ/2024-09-17-14-21-01/
     RDKit          3D

 38 41  0  0  0  0  0  0  0  0999 V2000
   -7.2496    3.8871   27.4508 C   0  0  0  0  0  0  0  0  0  0  0  0
   -7.6161    2.7143   27.1523 C   0  0  0  0  0  0  0  0  0  0  0  0
   -7.1618    1.8631   27.5233 C   0  0  0  0  0  0  0  0  0  0  0  0
   -8.0384    5.0866   27.3232 C   0  0  0  0  0  0  0  0  0  0  0  0
   -7.6403    6.3228   27.8917 C   0  0  0  0  0  0  0  0  0  0  0  0
   -5.7229    2.0528   27.9011 C   0  0  0  0  0  0  0  0  0  0  0  0
   -5.9389    3.7236   27.9540 C   0  0  0  0  0  0  0  0  0  0  0  0
   -9.1417    5.1490   26.4141 C   0  0  0  0  0  0  0  0  0  0  0  0
   -4.6522    1.4457   28.3418 C   0  0  0  0  0  0  0  0  0  0  0  0
   -4.7753    0.1096   28.7915 C   0  0  0  0  0  0  0  0  0  0  0  0
   -3.6265   -0.5499   29.3946 C   0  0  0  0  0  0  0  0  0  0  0  0
   -3.3303   -1.5830   29.5115 C   0  0  0  0  0  0  0  0  0  0  0  0
   -2.1190   -2.0202   30.1616 C   0  0  0  0  0  0  0  0  0  0  0  0
   -1.4836   -2.9980   29.9356 C   0  0  0  0  0  0  0  0  0  0  0  0
   -2.1123   -4.0361   29.1592 C   0  0  0  0  0  0  0  0  0  0  0  0
   -3.2736   -3.7741   28.5697 C   0  0  0  0  0  0  0  0  0  0  0  0
   -3.8643   -2.5373   28.6270 C   0  0  0  0  0  0  0  0  0  0  0  0
  -10.2368    4.3073   26.5358 C   0  0  2  0  0  0  0  0  0  0  0  0
  -10.5121    3.4335   25.4256 C   0  0  0  0  0  0  0  0  0  0  0  0
  -11.5975    3.6655   24.7288 C   0  0  2  0  0  0  0  0  0  0  0  0
  -12.7679    3.6651   25.0454 C   0  0  0  0  0  0  0  0  0  0  0  0
  -13.0829    3.3744   26.3314 C   0  0  0  0  0  0  0  0  0  0  0  0
  -12.3971    3.9281   27.5517 C   0  0  1  0  0  0  0  0  0  0  0  0
  -11.1197    4.4977   27.5947 C   0  0  0  0  0  0  0  0  0  0  0  0
  -11.3496    3.5902   23.1540 C   0  0  0  0  0  0  0  0  0  0  0  0
  -10.1727    3.3977   22.7039 C   0  0  0  0  0  0  0  0  0  0  0  0
  -12.3575    4.1281   22.3003 C   0  0  0  0  0  0  0  0  0  0  0  0
  -13.2214    4.0110   28.8314 C   0  0  0  0  0  0  0  0  0  0  0  0
  -13.9066    2.9423   29.2958 C   0  0  0  0  0  0  0  0  0  0  0  0
  -14.1859    2.8440   30.5574 C   0  0  0  0  0  0  0  0  0  0  0  0
  -15.0121    3.0374   31.1186 C   0  0  0  0  0  0  0  0  0  0  0  0
  -15.2312    2.9890   32.6367 C   0  0  0  0  0  0  0  0  0  0  0  0
  -14.1960    2.4459   33.3709 C   0  0  0  0  0  0  0  0  0  0  0  0
  -13.0066    2.1209   32.7226 C   0  0  0  0  0  0  0  0  0  0  0  0
  -12.9234    2.3223   31.3524 C   0  0  0  0  0  0  0  0  0  0  0  0
  -14.3966    1.9274   28.4553 C   0  0  0  0  0  0  0  0  0  0  0  0
  -14.4319    1.4873   27.5471 C   0  0  0  0  0  0  0  0  0  0  0  0
  -15.0300    0.3570   27.0363 C   0  0  0  0  0  0  0  0  0  0  0  0
  1  2  1  0
  2  3  1  0
  1  4  2  3
  4  5  1  0
  3  6  2  0
  1  7  1  0
  6  7  1  0
  4  8  1  0
  6  9  1  0
  9 10  2  3
 10 11  1  0
 18  8  1  6
 18 19  1  0
 19 20  1  0
 20 21  1  0
 21 22  2  0
 22 23  1  0
 18 24  1  0
 23 24  1  0
 20 25  1  6
 25 26  1  0
 25 27  1  0
 23 28  1  6
 28 29  1  0
 29 30  1  0
 29 36  1  0
 36 37  2  3
 37 38  1  0
 11 12  1  0
 12 13  2  0
 13 14  1  0
 14 15  2  0
 15 16  1  0
 16 17  2  0
 17 12  1  0
 30 31  2  0
 31 32  1  0
 32 33  2  0
 33 34  1  0
 34 35  2  0
 35 30  1  0
M  END
$$$$
