No_2339-complexes_sdf/6BKW-FPZ/2024-09-17-14-21-01/
     RDKit          3D

 12 12  0  0  0  0  0  0  0  0999 V2000
   -7.9040    3.9820   27.1177 C   0  0  0  0  0  0  0  0  0  0  0  0
   -9.0711    4.3164   27.0630 C   0  0  0  0  0  0  0  0  0  0  0  0
   -9.5294    5.4517   27.7215 C   0  0  0  0  0  0  0  0  0  0  0  0
   -6.9328    4.7309   27.8881 C   0  0  0  0  0  0  0  0  0  0  0  0
   -7.3377    5.8421   28.5537 C   0  0  0  0  0  0  0  0  0  0  0  0
   -8.6411    6.2609   28.3972 C   0  0  0  0  0  0  0  0  0  0  0  0
  -10.0493    3.4953   26.2711 C   0  0  1  0  0  0  0  0  0  0  0  0
  -10.5585    3.8087   25.3240 C   0  0  0  0  0  0  0  0  0  0  0  0
  -11.3842    3.1000   24.4004 C   0  0  0  0  0  0  0  0  0  0  0  0
  -11.9243    3.6723   23.2177 C   0  0  0  0  0  0  0  0  0  0  0  0
  -10.0204    2.0904   26.5757 C   0  0  0  0  0  0  0  0  0  0  0  0
   -9.3539    1.5715   27.6700 C   0  0  0  0  0  0  0  0  0  0  0  0
  2  7  1  0
  7  8  1  0
  8  9  2  3
  9 10  1  0
  7 11  1  6
 11 12  1  0
  1  2  2  0
  2  3  1  0
  3  6  2  0
  6  5  1  0
  5  4  2  0
  4  1  1  0
M  END
$$$$
