No_2592-complexes_sdf/6BKW-FPZ/2024-09-17-14-21-01/
     RDKit          3D

  9  9  0  0  0  0  0  0  0  0999 V2000
   -7.2496    3.8871   27.4508 C   0  0  0  0  0  0  0  0  0  0  0  0
   -7.6161    2.7143   27.1523 C   0  0  0  0  0  0  0  0  0  0  0  0
   -6.9719    1.5838   27.5324 C   0  0  0  0  0  0  0  0  0  0  0  0
   -7.4590    0.2827   27.2615 C   0  0  0  0  0  0  0  0  0  0  0  0
   -8.8629    2.3938   26.5063 C   0  0  0  0  0  0  0  0  0  0  0  0
   -9.3223    1.1948   26.1623 C   0  0  0  0  0  0  0  0  0  0  0  0
   -8.5899    0.0959   26.5930 C   0  0  0  0  0  0  0  0  0  0  0  0
   -8.0596    5.0751   27.2014 C   0  0  0  0  0  0  0  0  0  0  0  0
   -7.7062    6.3731   27.7591 C   0  0  0  0  0  0  0  0  0  0  0  0
  1  2  2  3
  2  3  1  0
  3  4  1  0
  2  5  1  0
  5  6  1  0
  4  7  1  0
  6  7  1  0
  1  8  1  0
  8  9  1  0
M  END
$$$$
