No_2488-complexes_sdf/6BKW-FPZ/2024-09-17-14-21-01/
     RDKit          3D

 38 42  0  0  0  0  0  0  0  0999 V2000
   -7.7129    4.2099   27.0854 C   0  0  0  0  0  0  0  0  0  0  0  0
   -7.7814    5.1722   27.8972 C   0  0  0  0  0  0  0  0  0  0  0  0
   -8.8998    3.8713   26.3707 C   0  0  0  0  0  0  0  0  0  0  0  0
   -9.9938    4.6774   26.5446 C   0  0  0  0  0  0  0  0  0  0  0  0
   -8.7789    6.1536   27.9256 C   0  0  0  0  0  0  0  0  0  0  0  0
   -9.9428    5.8398   27.2296 C   0  0  0  0  0  0  0  0  0  0  0  0
   -8.9208    2.6404   25.5721 C   0  0  0  0  0  0  0  0  0  0  0  0
   -8.3287    1.4696   26.1305 C   0  0  0  0  0  0  0  0  0  0  0  0
   -8.3547    0.2800   25.4520 C   0  0  0  0  0  0  0  0  0  0  0  0
   -7.6652   -0.7856   25.9841 C   0  0  0  0  0  0  0  0  0  0  0  0
   -7.0134   -0.7100   27.2419 C   0  0  0  0  0  0  0  0  0  0  0  0
   -6.9383    0.5324   27.8659 C   0  0  0  0  0  0  0  0  0  0  0  0
   -7.5378    1.6017   27.3813 C   0  0  0  0  0  0  0  0  0  0  0  0
  -11.2022    4.3607   25.7610 C   0  0  0  0  0  0  0  0  0  0  0  0
  -12.3182    3.8080   26.3251 C   0  0  0  0  0  0  0  0  0  0  0  0
  -13.4409    3.5056   25.6185 C   0  0  0  0  0  0  0  0  0  0  0  0
  -13.3921    3.7053   24.2053 C   0  0  0  0  0  0  0  0  0  0  0  0
  -11.3052    4.4982   24.3279 C   0  0  0  0  0  0  0  0  0  0  0  0
  -12.3122    4.2232   23.6136 C   0  0  0  0  0  0  0  0  0  0  0  0
   -6.6286    5.6149   28.5827 O   0  0  0  0  0  0  0  0  0  0  0  0
   -6.3579   -1.9114   27.8006 C   0  0  1  0  0  0  0  0  0  0  0  0
   -7.0280   -2.8584   28.1263 C   0  0  0  0  0  0  0  0  0  0  0  0
   -8.1721   -3.0103   28.3339 C   0  0  0  0  0  0  0  0  0  0  0  0
   -9.0741   -1.8374   28.3790 C   0  0  0  0  0  0  0  0  0  0  0  0
  -10.5164   -1.9593   28.8594 C   0  0  0  0  0  0  0  0  0  0  0  0
  -11.3519   -0.8580   28.7416 C   0  0  0  0  0  0  0  0  0  0  0  0
  -12.6766   -0.9375   29.1166 C   0  0  0  0  0  0  0  0  0  0  0  0
  -13.1240   -2.1517   29.6282 C   0  0  0  0  0  0  0  0  0  0  0  0
  -12.3332   -3.2071   29.7601 C   0  0  0  0  0  0  0  0  0  0  0  0
  -11.0032   -3.1425   29.3731 C   0  0  0  0  0  0  0  0  0  0  0  0
   -4.8876   -1.8030   27.5447 C   0  0  1  0  0  0  0  0  0  0  0  0
   -4.0456   -1.7446   28.2044 C   0  0  0  0  0  0  0  0  0  0  0  0
   -2.5740   -1.6172   27.8887 C   0  0  0  0  0  0  0  0  0  0  0  0
   -1.5573   -1.3118   28.8001 C   0  0  0  0  0  0  0  0  0  0  0  0
   -1.9488   -1.0452   30.1712 C   0  0  0  0  0  0  0  0  0  0  0  0
   -3.3094   -1.0234   30.5291 C   0  0  0  0  0  0  0  0  0  0  0  0
   -4.2686   -1.2904   29.5737 C   0  0  0  0  0  0  0  0  0  0  0  0
   -4.6025   -2.1685   26.0762 C   0  0  0  0  0  0  0  0  0  0  0  0
  3  7  1  0
  4 14  1  0
  2 20  1  0
 21 11  1  6
 21 22  1  0
 22 23  2  3
 23 24  1  0
 21 31  1  0
 31 38  1  6
 24 25  1  0
  7  8  1  0
 31 32  1  0
  1  2  2  0
  2  5  1  0
  5  6  2  0
  6  4  1  0
  4  3  2  0
  3  1  1  0
 32 33  2  0
 33 34  1  0
 34 35  2  0
 35 36  1  0
 36 37  2  0
 37 32  1  0
 25 26  2  0
 26 27  1  0
 27 28  2  0
 28 29  1  0
 29 30  2  0
 30 25  1  0
 14 15  2  0
 15 16  1  0
 16 17  2  0
 17 19  1  0
 19 18  2  0
 18 14  1  0
  8  9  2  0
  9 10  1  0
 10 11  2  0
 11 12  1  0
 12 13  2  0
 13  8  1  0
M  END
$$$$
