No_2606-complexes_sdf/6BKW-FPZ/2024-09-17-14-21-01/
     RDKit          3D

  9  9  0  0  0  0  0  0  0  0999 V2000
   -7.2496    3.8871   27.4508 C   0  0  0  0  0  0  0  0  0  0  0  0
   -8.5096    4.0291   27.2770 C   0  0  0  0  0  0  0  0  0  0  0  0
   -9.2669    5.1645   27.5845 C   0  0  0  0  0  0  0  0  0  0  0  0
   -8.4566    6.3212   27.8001 C   0  0  0  0  0  0  0  0  0  0  0  0
   -6.4921    5.0197   27.7961 C   0  0  0  0  0  0  0  0  0  0  0  0
   -7.1702    6.2351   27.9936 C   0  0  0  0  0  0  0  0  0  0  0  0
   -9.4921    2.9050   27.0139 C   0  0  0  0  0  0  0  0  0  0  0  0
  -10.2090    2.5255   27.9197 F   0  0  0  0  0  0  0  0  0  0  0  0
   -9.6239    2.2652   26.1103 F   0  0  0  0  0  0  0  0  0  0  0  0
  2  7  1  0
  7  8  1  0
  7  9  1  0
  1  2  2  0
  2  3  1  0
  3  4  2  0
  4  6  1  0
  6  5  2  0
  5  1  1  0
M  END
$$$$
