No_2671-complexes_sdf/6BKW-FPZ/2024-09-17-14-21-01/
     RDKit          3D

 26 29  0  0  0  0  0  0  0  0999 V2000
   -7.7129    4.2099   27.0854 C   0  0  0  0  0  0  0  0  0  0  0  0
   -7.7814    5.1722   27.8972 C   0  0  0  0  0  0  0  0  0  0  0  0
   -8.8255    3.2789   27.1191 C   0  0  0  0  0  0  0  0  0  0  0  0
   -8.7530    2.0643   26.3119 C   0  0  0  0  0  0  0  0  0  0  0  0
   -9.8958    1.4957   25.8527 C   0  0  1  0  0  0  0  0  0  0  0  0
   -9.0297    5.7889   28.3205 C   0  0  0  0  0  0  0  0  0  0  0  0
   -9.9688    3.7914   27.6534 C   0  0  0  0  0  0  0  0  0  0  0  0
  -10.0811    4.9544   28.3297 C   0  0  0  0  0  0  0  0  0  0  0  0
  -11.0617    2.2705   26.0034 C   0  0  0  0  0  0  0  0  0  0  0  0
  -11.1693    3.1167   27.1658 N   0  0  0  0  0  0  0  0  0  0  0  0
  -12.3437    3.1151   27.9762 C   0  0  0  0  0  0  0  0  0  0  0  0
  -13.4137    3.5602   27.3914 C   0  0  0  0  0  0  0  0  0  0  0  0
  -14.2912    4.2989   28.0002 C   0  0  0  0  0  0  0  0  0  0  0  0
  -14.4364    4.2211   29.4518 C   0  0  0  0  0  0  0  0  0  0  0  0
  -13.3156    3.5685   30.0996 C   0  0  0  0  0  0  0  0  0  0  0  0
  -12.2048    3.0906   29.3963 C   0  0  0  0  0  0  0  0  0  0  0  0
   -9.7623    1.1438   24.3674 C   0  0  0  0  0  0  0  0  0  0  0  0
   -9.2330    0.0212   24.0683 C   0  0  0  0  0  0  0  0  0  0  0  0
   -9.0686   -0.3658   22.6409 C   0  0  0  0  0  0  0  0  0  0  0  0
   -9.5824    0.5272   21.6639 C   0  0  0  0  0  0  0  0  0  0  0  0
  -10.0635    1.7470   22.0558 C   0  0  0  0  0  0  0  0  0  0  0  0
  -10.1864    2.0863   23.3876 C   0  0  0  0  0  0  0  0  0  0  0  0
  -10.4038    2.5717   20.8789 C   0  0  0  0  0  0  0  0  0  0  0  0
  -11.4925    2.4212   20.2064 N   0  0  0  0  0  0  0  0  0  0  0  0
   -9.7970    3.7609   20.8104 O   0  0  0  0  0  0  0  0  0  0  0  0
  -11.8963    3.2762   19.0924 C   0  0  0  0  0  0  0  0  0  0  0  0
  3  4  1  0
  5  9  1  0
  7 10  1  0
  9 10  1  0
 10 11  1  0
  5 17  1  6
 21 23  1  0
 23 24  1  0
 23 25  2  0
 24 26  1  0
  4  5  1  0
 17 18  2  0
 18 19  1  0
 19 20  2  0
 20 21  1  0
 21 22  2  0
 22 17  1  0
 11 12  2  0
 12 13  1  0
 13 14  2  0
 14 15  1  0
 15 16  2  0
 16 11  1  0
  1  2  2  0
  2  6  1  0
  6  8  2  0
  8  7  1  0
  7  3  2  0
  3  1  1  0
M  END
$$$$
