No_2589-complexes_sdf/6BKW-FPZ/2024-09-17-14-21-01/
     RDKit          3D

 23 26  0  0  0  0  0  0  0  0999 V2000
   -7.9040    3.9820   27.1177 C   0  0  0  0  0  0  0  0  0  0  0  0
   -8.2057    2.8231   26.8733 C   0  0  0  0  0  0  0  0  0  0  0  0
   -9.2962    2.4021   26.1155 C   0  0  0  0  0  0  0  0  0  0  0  0
   -6.8682    4.5169   28.0704 C   0  0  2  0  0  0  0  0  0  0  0  0
  -10.0578    3.3688   25.5520 C   0  0  0  0  0  0  0  0  0  0  0  0
   -9.6997    4.7480   25.6981 C   0  0  0  0  0  0  0  0  0  0  0  0
   -8.6783    5.1111   26.5262 C   0  0  0  0  0  0  0  0  0  0  0  0
  -11.1704    3.0677   24.6150 C   0  0  0  0  0  0  0  0  0  0  0  0
  -11.2492    3.6669   23.4645 C   0  0  0  0  0  0  0  0  0  0  0  0
  -10.1835    4.6062   23.0528 C   0  0  0  0  0  0  0  0  0  0  0  0
  -12.3448    3.3898   22.5141 C   0  0  0  0  0  0  0  0  0  0  0  0
   -7.0191    5.6254   28.6996 N   0  0  0  0  0  0  0  0  0  0  0  0
   -5.8256    3.7948   28.0240 F   0  0  0  0  0  0  0  0  0  0  0  0
  -10.4379    5.1570   21.6660 C   0  0  0  0  0  0  0  0  0  0  0  0
  -13.2745    2.4080   22.9914 C   0  0  0  0  0  0  0  0  0  0  0  0
  -11.4332    4.7776   20.8769 C   0  0  0  0  0  0  0  0  0  0  0  0
  -12.4070    3.9333   21.3115 C   0  0  0  0  0  0  0  0  0  0  0  0
  -14.3327    2.3528   22.5572 C   0  0  0  0  0  0  0  0  0  0  0  0
  -15.3596    1.5356   23.1515 C   0  0  0  0  0  0  0  0  0  0  0  0
  -14.9728    0.7600   24.2252 C   0  0  0  0  0  0  0  0  0  0  0  0
  -13.7465    0.8288   24.7553 C   0  0  0  0  0  0  0  0  0  0  0  0
  -12.8554    1.7263   24.2547 C   0  0  0  0  0  0  0  0  0  0  0  0
  -11.7482    2.0857   25.0155 C   0  0  0  0  0  0  0  0  0  0  0  0
  1  4  1  0
  5  8  1  0
  4 12  1  6
  4 13  1  0
  9 10  2  0
 10 14  1  0
 14 16  2  0
 16 17  1  0
 17 11  2  0
  8  9  1  0
  9 11  1  0
 11 15  1  0
 22 23  1  0
 23  8  2  0
 15 18  2  0
 18 19  1  0
 19 20  2  0
 20 21  1  0
 21 22  2  0
 22 15  1  0
  1  2  2  0
  2  3  1  0
  3  5  2  0
  5  6  1  0
  6  7  2  0
  7  1  1  0
M  END
$$$$
