No_285-complexes_sdf/6BKW-FPZ/2024-09-17-14-21-01/
     RDKit          3D

 33 38  0  0  0  0  0  0  0  0999 V2000
   -7.7129    4.2099   27.0854 C   0  0  0  0  0  0  0  0  0  0  0  0
   -7.7814    5.1722   27.8972 C   0  0  0  0  0  0  0  0  0  0  0  0
   -7.2983    2.9533   27.5684 C   0  0  0  0  0  0  0  0  0  0  0  0
   -7.6908    1.8111   26.9553 C   0  0  2  0  0  0  0  0  0  0  0  0
   -8.7568    1.8300   26.4037 C   0  0  0  0  0  0  0  0  0  0  0  0
   -9.4528    2.9585   25.9703 C   0  0  0  0  0  0  0  0  0  0  0  0
   -8.9888    4.1622   26.4901 C   0  0  0  0  0  0  0  0  0  0  0  0
   -8.3364    6.4450   27.5873 N   0  0  0  0  0  0  0  0  0  0  0  0
   -9.5705    5.3307   26.2128 N   0  0  0  0  0  0  0  0  0  0  0  0
   -9.1979    6.5029   26.7473 C   0  0  0  0  0  0  0  0  0  0  0  0
   -6.9586    0.5600   27.3880 C   0  0  0  0  0  0  0  0  0  0  0  0
   -6.2021    0.0413   26.7359 C   0  0  0  0  0  0  0  0  0  0  0  0
   -5.4587   -1.0663   27.0299 C   0  0  0  0  0  0  0  0  0  0  0  0
   -5.4940   -1.6458   28.2868 C   0  0  0  0  0  0  0  0  0  0  0  0
   -6.4575   -1.0250   29.1448 C   0  0  0  0  0  0  0  0  0  0  0  0
   -7.1693    0.0508   28.7544 C   0  0  0  0  0  0  0  0  0  0  0  0
  -10.5511    2.8635   25.0751 C   0  0  0  0  0  0  0  0  0  0  0  0
  -10.3093    2.4593   23.8543 C   0  0  0  0  0  0  0  0  0  0  0  0
  -11.1261    2.7078   22.7844 C   0  0  0  0  0  0  0  0  0  0  0  0
  -12.3213    3.3878   23.0499 C   0  0  0  0  0  0  0  0  0  0  0  0
  -11.7179    3.6192   25.3132 C   0  0  0  0  0  0  0  0  0  0  0  0
  -12.0687    3.9475   26.7122 C   0  0  0  0  0  0  0  0  0  0  0  0
  -12.6874    3.8061   24.3284 C   0  0  0  0  0  0  0  0  0  0  0  0
  -13.4095    4.1079   27.1341 C   0  0  0  0  0  0  0  0  0  0  0  0
  -14.3018    4.4673   26.1084 C   0  0  0  0  0  0  0  0  0  0  0  0
  -13.9844    4.2484   24.6897 C   0  0  0  0  0  0  0  0  0  0  0  0
   -4.7144   -2.7826   28.7466 C   0  0  0  0  0  0  0  0  0  0  0  0
   -4.3700   -2.9394   29.8704 C   0  0  0  0  0  0  0  0  0  0  0  0
   -3.6417   -4.1154   30.3933 C   0  0  0  0  0  0  0  0  0  0  0  0
   -3.2684   -4.1696   31.7466 C   0  0  0  0  0  0  0  0  0  0  0  0
   -3.5368   -3.1252   32.6473 C   0  0  0  0  0  0  0  0  0  0  0  0
   -4.2199   -1.9665   32.1971 C   0  0  0  0  0  0  0  0  0  0  0  0
   -4.5779   -1.8533   30.9001 C   0  0  0  0  0  0  0  0  0  0  0  0
  1  3  1  0
  3  4  1  0
  4  5  1  0
  5  6  1  0
  6  7  1  0
  4 11  1  1
  6 17  1  0
 14 27  1  0
 27 28  1  0
  1  2  2  0
  2  8  1  0
  8 10  2  0
 10  9  1  0
  9  7  2  0
  7  1  1  0
 11 12  2  0
 12 13  1  0
 13 14  2  0
 14 15  1  0
 15 16  2  0
 16 11  1  0
 17 18  2  0
 18 19  1  0
 19 20  2  0
 20 23  1  0
 21 17  1  0
 28 29  2  0
 29 30  1  0
 30 31  2  0
 31 32  1  0
 32 33  2  0
 33 28  1  0
 21 22  2  0
 22 24  1  0
 24 25  2  0
 25 26  1  0
 26 23  2  0
 23 21  1  0
M  END
$$$$
