No_2769-complexes_sdf/6BKW-FPZ/2024-09-17-14-21-01/
     RDKit          3D

 21 23  0  0  0  0  0  0  0  0999 V2000
   -7.7129    4.2099   27.0854 C   0  0  0  0  0  0  0  0  0  0  0  0
   -7.7814    5.1722   27.8972 C   0  0  0  0  0  0  0  0  0  0  0  0
   -8.8776    3.8408   26.3416 C   0  0  0  0  0  0  0  0  0  0  0  0
   -8.9136    2.6330   25.5655 C   0  0  0  0  0  0  0  0  0  0  0  0
   -8.8361    6.1389   27.9032 C   0  0  0  0  0  0  0  0  0  0  0  0
   -9.8295    4.8219   26.2725 C   0  0  0  0  0  0  0  0  0  0  0  0
   -9.8494    5.9177   27.0428 C   0  0  0  0  0  0  0  0  0  0  0  0
   -8.3098    1.4829   26.1983 C   0  0  0  0  0  0  0  0  0  0  0  0
   -8.1108    0.3135   25.5372 C   0  0  0  0  0  0  0  0  0  0  0  0
   -8.6931    0.2604   24.2523 C   0  0  0  0  0  0  0  0  0  0  0  0
   -9.3329    1.3368   23.6320 C   0  0  0  0  0  0  0  0  0  0  0  0
   -9.3639    2.5467   24.3097 C   0  0  0  0  0  0  0  0  0  0  0  0
   -9.8450    1.2625   22.2831 C   0  0  0  0  0  0  0  0  0  0  0  0
  -10.2711    2.3286   21.7043 N   0  0  0  0  0  0  0  0  0  0  0  0
  -11.4679    2.9066   21.9276 C   0  0  0  0  0  0  0  0  0  0  0  0
  -11.6579    4.2065   21.4170 C   0  0  0  0  0  0  0  0  0  0  0  0
  -12.4006    2.3389   22.5636 N   0  0  0  0  0  0  0  0  0  0  0  0
  -13.6017    2.9447   22.8346 C   0  0  0  0  0  0  0  0  0  0  0  0
  -12.8053    4.9195   21.7692 C   0  0  0  0  0  0  0  0  0  0  0  0
  -13.8281    4.2901   22.4326 C   0  0  0  0  0  0  0  0  0  0  0  0
   -9.8813    0.1439   21.6423 O   0  0  0  0  0  0  0  0  0  0  0  0
  3  4  1  0
 11 13  1  0
 13 14  1  0
 14 15  1  0
 13 21  2  0
  4  8  2  0
  8  9  1  0
  9 10  2  0
 10 11  1  0
 11 12  2  0
 12  4  1  0
  1  2  2  0
  2  5  1  0
  5  7  2  0
  7  6  1  0
  6  3  2  0
  3  1  1  0
 15 16  2  0
 16 19  1  0
 19 20  2  0
 20 18  1  0
 18 17  2  0
 17 15  1  0
M  END
$$$$
