No_2261-complexes_sdf/6BKW-FPZ/2024-09-17-14-21-01/
     RDKit          3D

 21 23  0  0  0  0  0  0  0  0999 V2000
   -7.9040    3.9820   27.1177 C   0  0  0  0  0  0  0  0  0  0  0  0
   -8.2057    2.8231   26.8733 C   0  0  0  0  0  0  0  0  0  0  0  0
   -9.2962    2.4021   26.1155 C   0  0  0  0  0  0  0  0  0  0  0  0
   -8.7358    5.0662   26.5917 C   0  0  0  0  0  0  0  0  0  0  0  0
   -9.7618    4.7023   25.7546 C   0  0  0  0  0  0  0  0  0  0  0  0
  -10.0066    3.4105   25.4922 C   0  0  0  0  0  0  0  0  0  0  0  0
   -8.3943    6.4761   26.8801 C   0  0  0  0  0  0  0  0  0  0  0  0
   -8.0785    6.8107   28.2034 C   0  0  0  0  0  0  0  0  0  0  0  0
   -8.5489    7.4483   25.8942 C   0  0  0  0  0  0  0  0  0  0  0  0
   -7.3611    1.6620   27.4798 C   0  0  0  0  0  0  0  0  0  0  0  0
   -7.7582    0.3946   27.3806 N   0  0  0  0  0  0  0  0  0  0  0  0
   -6.9227   -0.6051   27.6948 C   0  0  0  0  0  0  0  0  0  0  0  0
   -5.6738   -0.2430   28.1986 C   0  0  0  0  0  0  0  0  0  0  0  0
   -5.9786    1.7902   27.8399 C   0  0  0  0  0  0  0  0  0  0  0  0
   -4.6909   -1.3060   28.5698 C   0  0  0  0  0  0  0  0  0  0  0  0
   -5.1784    1.0574   28.1704 C   0  0  0  0  0  0  0  0  0  0  0  0
   -3.6879   -1.0794   29.0806 C   0  0  0  0  0  0  0  0  0  0  0  0
   -3.1399    0.3431   29.0864 C   0  0  0  0  0  0  0  0  0  0  0  0
   -3.8885    1.3607   28.7081 C   0  0  0  0  0  0  0  0  0  0  0  0
   -7.5210   -1.7260   27.7980 F   0  0  0  0  0  0  0  0  0  0  0  0
   -2.7827   -1.9916   29.5181 F   0  0  0  0  0  0  0  0  0  0  0  0
  4  7  1  0
  7  8  2  0
  7  9  1  0
  2 10  1  0
 12 20  1  0
 17 21  1  0
 10 11  2  0
 11 12  1  0
 12 13  2  0
 16 14  2  0
 14 10  1  0
 13 15  1  0
 15 17  2  0
 17 18  1  0
 18 19  2  0
 19 16  1  0
 16 13  1  0
  1  2  2  0
  2  3  1  0
  3  6  2  0
  6  5  1  0
  5  4  2  0
  4  1  1  0
M  END
$$$$
