No_251-complexes_sdf/6BKW-FPZ/2024-09-17-14-21-01/
     RDKit          3D

 13 13  0  0  0  0  0  0  0  0999 V2000
   -7.9040    3.9820   27.1177 C   0  0  0  0  0  0  0  0  0  0  0  0
   -8.2057    2.8231   26.8733 C   0  0  0  0  0  0  0  0  0  0  0  0
   -8.7695    5.0740   26.7916 C   0  0  0  0  0  0  0  0  0  0  0  0
   -9.9618    4.7598   26.1630 C   0  0  0  0  0  0  0  0  0  0  0  0
   -9.4200    2.4524   26.2850 C   0  0  0  0  0  0  0  0  0  0  0  0
  -10.2590    3.4815   25.9250 C   0  0  0  0  0  0  0  0  0  0  0  0
   -8.1804    6.4174   27.1235 C   0  0  0  0  0  0  0  0  0  0  0  0
   -8.9656    7.5322   26.8904 N   0  0  0  0  0  0  0  0  0  0  0  0
   -7.0700    6.4722   27.7071 O   0  0  0  0  0  0  0  0  0  0  0  0
   -7.2957    1.6406   27.2623 C   0  0  0  0  0  0  0  0  0  0  0  0
   -6.3287    2.0157   27.9885 F   0  0  0  0  0  0  0  0  0  0  0  0
   -7.8647    0.6990   27.9789 F   0  0  0  0  0  0  0  0  0  0  0  0
   -6.8164    1.0237   26.1162 F   0  0  0  0  0  0  0  0  0  0  0  0
  3  7  1  0
  7  8  1  0
  7  9  2  0
  2 10  1  0
 10 11  1  0
 10 12  1  0
 10 13  1  0
  1  2  2  0
  2  5  1  0
  5  6  2  0
  6  4  1  0
  4  3  2  0
  3  1  1  0
M  END
$$$$
