No_2272-complexes_sdf/6BKW-FPZ/2024-09-17-14-21-01/
     RDKit          3D

 17 18  0  0  0  0  0  0  0  0999 V2000
   -7.7129    4.2099   27.0854 C   0  0  0  0  0  0  0  0  0  0  0  0
   -8.9133    4.4736   27.0998 C   0  0  0  0  0  0  0  0  0  0  0  0
   -9.4643    5.5426   27.7628 C   0  0  0  0  0  0  0  0  0  0  0  0
   -7.2009    2.9448   26.6134 C   0  0  0  0  0  0  0  0  0  0  0  0
   -8.1365    1.9533   26.2981 C   0  0  0  0  0  0  0  0  0  0  0  0
   -9.4514    2.2934   26.2667 C   0  0  0  0  0  0  0  0  0  0  0  0
   -9.8600    3.4834   26.7068 C   0  0  0  0  0  0  0  0  0  0  0  0
   -7.8003    0.5833   25.9642 C   0  0  0  0  0  0  0  0  0  0  0  0
   -7.9847    0.1100   24.9283 O   0  0  0  0  0  0  0  0  0  0  0  0
   -7.1451   -0.1461   26.9424 O   0  0  0  0  0  0  0  0  0  0  0  0
   -6.8090   -1.3873   26.9256 C   0  0  0  0  0  0  0  0  0  0  0  0
   -5.9264   -1.9752   26.9503 C   0  0  0  0  0  0  0  0  0  0  0  0
   -4.6202   -1.0963   27.1320 C   0  0  0  0  0  0  0  0  0  0  0  0
   -3.3094   -1.6801   26.9841 C   0  0  0  0  0  0  0  0  0  0  0  0
   -3.2398   -3.0405   26.8431 C   0  0  0  0  0  0  0  0  0  0  0  0
   -4.3471   -3.8110   26.6804 C   0  0  0  0  0  0  0  0  0  0  0  0
   -5.5886   -3.2573   26.7351 C   0  0  0  0  0  0  0  0  0  0  0  0
  5  8  1  0
  8  9  2  0
  8 10  1  0
 10 11  1  0
 11 12  1  0
  3  2  1  0
 12 13  2  0
 13 14  1  0
 14 15  2  0
 15 16  1  0
 16 17  2  0
 17 12  1  0
  1  2  2  0
  2  7  1  0
  7  6  2  0
  6  5  1  0
  5  4  2  0
  4  1  1  0
M  END
$$$$
