No_2516-complexes_sdf/6BKW-FPZ/2024-09-17-14-21-01/
     RDKit          3D

 32 35  0  0  0  0  0  0  0  0999 V2000
   -7.2496    3.8871   27.4508 C   0  0  0  0  0  0  0  0  0  0  0  0
   -7.9379    4.9063   27.8518 C   0  0  0  0  0  0  0  0  0  0  0  0
   -8.9501    5.3664   27.1340 C   0  0  0  0  0  0  0  0  0  0  0  0
   -7.8297    2.9727   26.4637 C   0  0  0  0  0  0  0  0  0  0  0  0
   -9.6373    4.6098   26.1956 C   0  0  0  0  0  0  0  0  0  0  0  0
   -9.0235    3.4546   25.8531 C   0  0  0  0  0  0  0  0  0  0  0  0
   -9.4824    2.4361   24.8810 C   0  0  0  0  0  0  0  0  0  0  0  0
   -9.3256    1.1993   24.8783 C   0  0  0  0  0  0  0  0  0  0  0  0
   -8.1890    0.7695   25.7905 C   0  0  0  0  0  0  0  0  0  0  0  0
   -7.4861    1.6327   26.5210 C   0  0  0  0  0  0  0  0  0  0  0  0
   -7.3476    5.7688   28.7502 F   0  0  0  0  0  0  0  0  0  0  0  0
   -7.7929   -0.6939   25.7035 C   0  0  0  0  0  0  0  0  0  0  0  0
   -8.1389   -1.3800   24.8927 C   0  0  0  0  0  0  0  0  0  0  0  0
   -7.7958   -2.7854   24.8466 C   0  0  0  0  0  0  0  0  0  0  0  0
   -7.0173   -3.2806   25.9025 C   0  0  0  0  0  0  0  0  0  0  0  0
   -7.0051   -1.2279   26.8796 C   0  0  0  0  0  0  0  0  0  0  0  0
   -6.6713   -2.4664   26.9752 C   0  0  0  0  0  0  0  0  0  0  0  0
  -10.6328    3.0007   23.9893 C   0  0  1  0  0  0  0  0  0  0  0  0
  -10.6072    2.6547   22.7439 C   0  0  0  0  0  0  0  0  0  0  0  0
  -11.5222    3.1784   21.7810 C   0  0  0  0  0  0  0  0  0  0  0  0
  -11.4948    2.7952   20.4611 C   0  0  0  0  0  0  0  0  0  0  0  0
  -10.6426    1.7009   20.0900 C   0  0  0  0  0  0  0  0  0  0  0  0
   -9.8553    1.0828   21.0300 C   0  0  0  0  0  0  0  0  0  0  0  0
   -9.7854    1.5870   22.3417 C   0  0  0  0  0  0  0  0  0  0  0  0
  -11.7077    3.8150   24.5470 C   0  0  1  0  0  0  0  0  0  0  0  0
  -12.2748    3.6570   25.8550 C   0  0  0  0  0  0  0  0  0  0  0  0
  -13.5331    4.1519   26.1415 C   0  0  0  0  0  0  0  0  0  0  0  0
  -14.2478    4.8034   25.1164 C   0  0  0  0  0  0  0  0  0  0  0  0
  -11.8427    5.0419   24.1752 F   0  0  0  0  0  0  0  0  0  0  0  0
  -15.5060    5.4767   25.4473 C   0  0  0  0  0  0  0  0  0  0  0  0
  -15.8809    5.5508   26.8013 C   0  0  0  0  0  0  0  0  0  0  0  0
  -15.1223    4.9660   27.7981 C   0  0  0  0  0  0  0  0  0  0  0  0
  2 11  1  0
  9 12  1  0
 18  7  1  1
 18 25  1  0
 25 26  1  0
 26 27  2  3
 27 28  1  0
 25 29  1  1
 28 30  2  3
 30 31  1  0
 31 32  2  0
 18 19  1  0
 12 13  2  0
 13 14  1  0
 14 15  2  0
 15 17  1  0
 17 16  2  0
 16 12  1  0
  6  7  2  0
  7  8  1  0
  8  9  2  0
  9 10  1  0
 10  4  2  0
  1  2  2  0
  2  3  1  0
  3  5  2  0
  5  6  1  0
  6  4  1  0
  4  1  1  0
 19 20  2  0
 20 21  1  0
 21 22  2  0
 22 23  1  0
 23 24  2  0
 24 19  1  0
M  END
$$$$
