No_2914-complexes_sdf/6BKW-FPZ/2024-09-17-14-21-01/
     RDKit          3D

 32 36  0  0  0  0  0  0  0  0999 V2000
   -7.9040    3.9820   27.1177 C   0  0  0  0  0  0  0  0  0  0  0  0
   -9.0711    4.3164   27.0630 C   0  0  0  0  0  0  0  0  0  0  0  0
   -9.5294    5.4517   27.7215 C   0  0  0  0  0  0  0  0  0  0  0  0
   -6.9328    4.7309   27.8881 C   0  0  0  0  0  0  0  0  0  0  0  0
   -7.3666    5.8455   28.5488 C   0  0  0  0  0  0  0  0  0  0  0  0
   -8.6669    6.2428   28.4199 C   0  0  0  0  0  0  0  0  0  0  0  0
   -9.9775    3.4523   26.2361 C   0  0  0  0  0  0  0  0  0  0  0  0
  -10.4565    3.9065   25.1434 C   0  0  0  0  0  0  0  0  0  0  0  0
  -11.1153    3.2978   24.1349 C   0  0  0  0  0  0  0  0  0  0  0  0
  -11.5317    3.9798   22.9385 C   0  0  0  0  0  0  0  0  0  0  0  0
  -10.9550    5.2442   22.7439 C   0  0  0  0  0  0  0  0  0  0  0  0
  -10.0696    5.7862   23.6046 C   0  0  0  0  0  0  0  0  0  0  0  0
   -9.7700    5.2342   24.7512 C   0  0  0  0  0  0  0  0  0  0  0  0
  -10.3737    2.1917   26.7634 C   0  0  0  0  0  0  0  0  0  0  0  0
   -9.7166    1.1235   26.3576 C   0  0  0  0  0  0  0  0  0  0  0  0
  -10.0137   -0.1997   26.8737 C   0  0  0  0  0  0  0  0  0  0  0  0
  -11.0750   -0.2260   27.8683 C   0  0  0  0  0  0  0  0  0  0  0  0
  -11.6783    0.9138   28.3265 C   0  0  0  0  0  0  0  0  0  0  0  0
  -11.3274    2.1718   27.8040 C   0  0  0  0  0  0  0  0  0  0  0  0
  -11.4334   -1.5504   28.4595 C   0  0  0  0  0  0  0  0  0  0  0  0
  -12.3030   -2.3321   27.7779 C   0  0  0  0  0  0  0  0  0  0  0  0
  -12.6564   -3.4892   28.2784 C   0  0  0  0  0  0  0  0  0  0  0  0
  -12.1159   -3.9253   29.5527 C   0  0  0  0  0  0  0  0  0  0  0  0
  -11.2536   -3.1443   30.2496 C   0  0  0  0  0  0  0  0  0  0  0  0
  -10.8528   -1.9084   29.7604 C   0  0  0  0  0  0  0  0  0  0  0  0
   -9.3547   -1.3493   26.4040 C   0  0  0  0  0  0  0  0  0  0  0  0
   -8.0688   -1.4059   26.8672 C   0  0  0  0  0  0  0  0  0  0  0  0
   -7.2155   -2.5196   26.4528 C   0  0  0  0  0  0  0  0  0  0  0  0
   -5.8898   -2.5405   26.9383 C   0  0  0  0  0  0  0  0  0  0  0  0
   -5.2958   -1.4748   27.6044 C   0  0  0  0  0  0  0  0  0  0  0  0
   -6.1344   -0.3478   27.9670 C   0  0  0  0  0  0  0  0  0  0  0  0
   -7.4477   -0.3423   27.5906 C   0  0  0  0  0  0  0  0  0  0  0  0
  2  7  1  0
  7 14  1  0
 17 20  1  0
 16 26  1  0
  7  8  1  0
 26 27  1  0
  1  2  2  0
  2  3  1  0
  3  6  2  0
  6  5  1  0
  5  4  2  0
  4  1  1  0
 14 15  2  0
 15 16  1  0
 16 17  2  0
 17 18  1  0
 18 19  2  0
 19 14  1  0
 27 28  2  0
 28 29  1  0
 29 30  2  0
 30 31  1  0
 31 32  2  0
 32 27  1  0
 20 21  2  0
 21 22  1  0
 22 23  2  0
 23 24  1  0
 24 25  2  0
 25 20  1  0
  8  9  2  0
  9 10  1  0
 10 11  2  0
 11 12  1  0
 12 13  2  0
 13  8  1  0
M  END
$$$$
