No_2965-complexes_sdf/6BKW-FPZ/2024-09-17-14-21-01/
     RDKit          3D

 34 38  0  0  0  0  0  0  0  0999 V2000
   -7.9040    3.9820   27.1177 C   0  0  0  0  0  0  0  0  0  0  0  0
   -8.2057    2.8231   26.8733 C   0  0  0  0  0  0  0  0  0  0  0  0
   -7.4766    1.7477   27.4593 C   0  0  0  0  0  0  0  0  0  0  0  0
   -8.7468    5.1251   26.6967 C   0  0  0  0  0  0  0  0  0  0  0  0
   -9.7234    4.8589   25.8202 C   0  0  0  0  0  0  0  0  0  0  0  0
   -9.9711    3.5858   25.4266 C   0  0  0  0  0  0  0  0  0  0  0  0
   -9.2266    2.4957   25.9600 C   0  0  0  0  0  0  0  0  0  0  0  0
   -7.8394    0.3721   27.3404 C   0  0  0  0  0  0  0  0  0  0  0  0
   -7.1362   -0.5937   27.9114 C   0  0  0  0  0  0  0  0  0  0  0  0
   -5.8557   -0.3307   28.4547 C   0  0  0  0  0  0  0  0  0  0  0  0
   -5.3585    0.9906   28.4093 C   0  0  0  0  0  0  0  0  0  0  0  0
   -6.0907    1.9632   27.9066 C   0  0  0  0  0  0  0  0  0  0  0  0
   -8.4205    6.5129   27.1058 C   0  0  0  0  0  0  0  0  0  0  0  0
   -7.8505    6.8052   28.1956 N   0  0  0  0  0  0  0  0  0  0  0  0
   -8.8551    7.4693   26.3643 O   0  0  0  0  0  0  0  0  0  0  0  0
   -5.0311   -1.4135   29.0476 C   0  0  0  0  0  0  0  0  0  0  0  0
   -5.3431   -2.3935   29.3779 O   0  0  0  0  0  0  0  0  0  0  0  0
   -3.6228   -1.1500   28.9527 N   0  0  0  0  0  0  0  0  0  0  0  0
   -2.9613   -0.0644   28.4892 C   0  0  0  0  0  0  0  0  0  0  0  0
   -3.7404    1.1405   28.1976 C   0  0  0  0  0  0  0  0  0  0  0  0
  -11.0294    3.3338   24.4388 C   0  0  0  0  0  0  0  0  0  0  0  0
  -12.2922    3.0447   24.8836 C   0  0  0  0  0  0  0  0  0  0  0  0
  -12.5563    2.9342   26.2912 C   0  0  0  0  0  0  0  0  0  0  0  0
  -11.7275    3.0502   27.1763 C   0  0  0  0  0  0  0  0  0  0  0  0
  -12.3112    2.9668   28.6776 C   0  0  0  0  0  0  0  0  0  0  0  0
  -13.5529    2.5971   28.9024 C   0  0  0  0  0  0  0  0  0  0  0  0
  -14.3910    2.4048   27.8016 C   0  0  0  0  0  0  0  0  0  0  0  0
  -13.9848    2.6014   26.5633 C   0  0  0  0  0  0  0  0  0  0  0  0
  -10.6705    3.4817   23.0806 C   0  0  0  0  0  0  0  0  0  0  0  0
  -10.6675    4.3811   22.4896 C   0  0  0  0  0  0  0  0  0  0  0  0
  -10.3196    2.1805   22.4942 C   0  0  0  0  0  0  0  0  0  0  0  0
  -10.2913    4.5678   21.0952 C   0  0  0  0  0  0  0  0  0  0  0  0
   -9.8935    2.1979   21.1167 C   0  0  0  0  0  0  0  0  0  0  0  0
   -9.8867    3.4407   20.4485 C   0  0  0  0  0  0  0  0  0  0  0  0
  2  3  1  0
  4 13  1  0
 13 14  1  0
 13 15  2  0
 10 16  1  0
 16 17  2  0
 16 18  1  0
 18 19  1  0
 11 20  1  0
  6 21  1  0
 21 22  2  3
 22 23  1  0
 21 29  1  0
 20 19  1  0
 29 30  2  0
 30 32  1  0
 32 34  2  0
 34 33  1  0
 33 31  2  0
 31 29  1  0
 23 24  2  0
 24 25  1  0
 25 26  2  0
 26 27  1  0
 27 28  2  0
 28 23  1  0
  1  2  2  0
  2  7  1  0
  7  6  2  0
  6  5  1  0
  5  4  2  0
  4  1  1  0
  3  8  2  0
  8  9  1  0
  9 10  2  0
 10 11  1  0
 11 12  2  0
 12  3  1  0
M  END
$$$$
