No_2438-complexes_sdf/6BKW-FPZ/2024-09-17-14-21-01/
     RDKit          3D

 23 25  0  0  0  0  0  0  0  0999 V2000
   -7.7129    4.2099   27.0854 C   0  0  0  0  0  0  0  0  0  0  0  0
   -8.2112    3.0637   26.9225 C   0  0  0  0  0  0  0  0  0  0  0  0
   -7.0021    4.5281   28.2396 C   0  0  0  0  0  0  0  0  0  0  0  0
   -9.4237    2.7810   26.2714 C   0  0  0  0  0  0  0  0  0  0  0  0
   -9.9782    1.4391   26.2525 C   0  0  0  0  0  0  0  0  0  0  0  0
   -9.2622    0.4320   26.8729 C   0  0  0  0  0  0  0  0  0  0  0  0
   -8.0745    0.6657   27.5462 C   0  0  0  0  0  0  0  0  0  0  0  0
   -7.4723    1.9739   27.6189 C   0  0  0  0  0  0  0  0  0  0  0  0
   -5.7692    3.9005   28.3800 C   0  0  0  0  0  0  0  0  0  0  0  0
   -5.6717    2.4550   28.2193 C   0  0  0  0  0  0  0  0  0  0  0  0
   -6.4421    1.4734   27.9288 O   0  0  0  0  0  0  0  0  0  0  0  0
  -10.1277    3.8248   25.6007 C   0  0  0  0  0  0  0  0  0  0  0  0
  -10.4832    4.9868   26.2384 C   0  0  0  0  0  0  0  0  0  0  0  0
  -10.3831    3.7011   24.1876 C   0  0  0  0  0  0  0  0  0  0  0  0
  -10.3863    2.6529   23.4533 C   0  0  0  0  0  0  0  0  0  0  0  0
  -10.5216    2.6342   22.0912 C   0  0  0  0  0  0  0  0  0  0  0  0
  -10.6299    3.8480   21.4032 C   0  0  0  0  0  0  0  0  0  0  0  0
  -10.4966    4.9630   23.4025 C   0  0  0  0  0  0  0  0  0  0  0  0
  -10.6450    5.0277   22.1032 C   0  0  0  0  0  0  0  0  0  0  0  0
   -4.4788    1.9342   28.6525 O   0  0  0  0  0  0  0  0  0  0  0  0
   -3.8819    0.9731   27.8328 C   0  0  0  0  0  0  0  0  0  0  0  0
   -3.9321   -0.3388   28.3366 C   0  0  0  0  0  0  0  0  0  0  0  0
   -2.8024   -0.7895   28.6656 O   0  0  0  0  0  0  0  0  0  0  0  0
  1  2  1  0
  1  3  2  0
  3  9  1  0
  9 10  2  0
  8 11  1  0
 10 11  1  0
  4 12  1  0
 12 13  2  0
 12 14  1  0
 10 20  1  0
 20 21  1  0
 21 22  1  0
 22 23  2  0
 14 15  2  0
 15 16  1  0
 16 17  2  0
 17 19  1  0
 19 18  2  0
 18 14  1  0
  2  4  2  0
  4  5  1  0
  5  6  2  0
  6  7  1  0
  7  8  2  0
  8  2  1  0
M  END
$$$$
