No_2627-complexes_sdf/6BKW-FPZ/2024-09-17-14-21-01/
     RDKit          3D

 11 12  0  0  0  0  0  0  0  0999 V2000
   -7.9040    3.9820   27.1177 C   0  0  0  0  0  0  0  0  0  0  0  0
   -7.8663    4.8694   27.9238 C   0  0  0  0  0  0  0  0  0  0  0  0
   -9.0491    3.8523   26.2542 C   0  0  0  0  0  0  0  0  0  0  0  0
   -9.4067    2.6808   25.6532 C   0  0  0  0  0  0  0  0  0  0  0  0
   -8.2410    6.1286   27.4108 C   0  0  0  0  0  0  0  0  0  0  0  0
   -8.8989    1.5314   26.1077 C   0  0  0  0  0  0  0  0  0  0  0  0
   -7.7114    1.5308   26.9486 C   0  0  0  0  0  0  0  0  0  0  0  0
   -7.3929    2.6641   27.5743 C   0  0  0  0  0  0  0  0  0  0  0  0
   -8.2982    6.6412   26.4383 C   0  0  0  0  0  0  0  0  0  0  0  0
   -9.3008    6.0992   25.4518 C   0  0  0  0  0  0  0  0  0  0  0  0
   -9.4223    5.0257   25.5714 C   0  0  0  0  0  0  0  0  0  0  0  0
  1  2  1  0
  2  5  1  0
  5  9  2  0
  9 10  1  0
  3 11  1  0
 10 11  2  0
  1  3  2  0
  3  4  1  0
  4  6  2  0
  6  7  1  0
  7  8  2  0
  8  1  1  0
M  END
$$$$
