No_2079-complexes_sdf/6BKW-FPZ/2024-09-17-14-21-01/
     RDKit          3D

 16 18  0  0  0  0  0  0  0  0999 V2000
   -7.7129    4.2099   27.0854 C   0  0  0  0  0  0  0  0  0  0  0  0
   -8.2112    3.0637   26.9225 C   0  0  0  0  0  0  0  0  0  0  0  0
   -8.4224    5.2106   27.8516 C   0  0  0  0  0  0  0  0  0  0  0  0
   -7.4917    1.9381   26.3986 C   0  0  0  0  0  0  0  0  0  0  0  0
   -9.7695    5.0306   28.1322 C   0  0  0  0  0  0  0  0  0  0  0  0
   -9.5934    2.8183   27.3258 C   0  0  0  0  0  0  0  0  0  0  0  0
  -10.1791    1.5404   27.0562 C   0  0  0  0  0  0  0  0  0  0  0  0
  -10.3195    3.8220   27.9187 C   0  0  0  0  0  0  0  0  0  0  0  0
   -9.3969    0.4563   26.7761 C   0  0  0  0  0  0  0  0  0  0  0  0
   -8.0750    0.6933   26.3108 C   0  0  0  0  0  0  0  0  0  0  0  0
  -11.6842    3.5786   28.4364 C   0  0  0  0  0  0  0  0  0  0  0  0
  -12.7130    4.3795   28.2530 C   0  0  0  0  0  0  0  0  0  0  0  0
  -14.0276    4.2264   28.6957 C   0  0  0  0  0  0  0  0  0  0  0  0
  -14.2442    3.0744   29.4540 C   0  0  0  0  0  0  0  0  0  0  0  0
  -13.2434    2.1380   29.6766 C   0  0  0  0  0  0  0  0  0  0  0  0
  -11.9761    2.3957   29.2297 C   0  0  0  0  0  0  0  0  0  0  0  0
  8 11  1  0
 11 12  2  0
 12 13  1  0
 13 14  2  0
 14 15  1  0
 15 16  2  0
 16 11  1  0
  2  4  1  0
  4 10  2  0
 10  9  1  0
  9  7  2  0
  7  6  1  0
  1  2  2  0
  2  6  1  0
  6  8  2  0
  8  5  1  0
  5  3  2  0
  3  1  1  0
M  END
$$$$
