No_2499-complexes_sdf/6BKW-FPZ/2024-09-17-14-21-01/
     RDKit          3D

 25 28  0  0  0  0  0  0  0  0999 V2000
   -7.9040    3.9820   27.1177 C   0  0  0  0  0  0  0  0  0  0  0  0
   -9.0711    4.3164   27.0630 C   0  0  0  0  0  0  0  0  0  0  0  0
   -9.5182    5.5541   27.5777 C   0  0  0  0  0  0  0  0  0  0  0  0
   -6.9424    4.7983   27.8424 C   0  0  0  0  0  0  0  0  0  0  0  0
   -7.3526    5.9739   28.3909 C   0  0  0  0  0  0  0  0  0  0  0  0
   -8.6479    6.3742   28.2169 C   0  0  0  0  0  0  0  0  0  0  0  0
  -10.0793    3.4689   26.3368 C   0  0  0  0  0  0  0  0  0  0  0  0
   -9.6567    2.5965   25.4483 C   0  0  0  0  0  0  0  0  0  0  0  0
  -10.5086    1.8159   24.6228 C   0  0  0  0  0  0  0  0  0  0  0  0
  -11.8698    2.1070   24.6818 C   0  0  0  0  0  0  0  0  0  0  0  0
  -11.4792    3.7192   26.2197 C   0  0  0  0  0  0  0  0  0  0  0  0
  -12.3318    3.0883   25.5324 C   0  0  0  0  0  0  0  0  0  0  0  0
   -9.9693    0.7864   23.7389 C   0  0  0  0  0  0  0  0  0  0  0  0
   -9.7678    1.0876   22.4822 C   0  0  0  0  0  0  0  0  0  0  0  0
   -9.1393    0.1640   21.6055 C   0  0  0  0  0  0  0  0  0  0  0  0
   -8.6942   -1.0856   22.1017 C   0  0  0  0  0  0  0  0  0  0  0  0
   -9.4209   -0.4053   24.2839 C   0  0  0  0  0  0  0  0  0  0  0  0
   -8.8235   -1.3309   23.4699 C   0  0  0  0  0  0  0  0  0  0  0  0
  -10.1759    2.5992   21.7538 Cl  0  0  0  0  0  0  0  0  0  0  0  0
  -13.7603    3.4194   25.5961 C   0  0  0  0  0  0  0  0  0  0  0  0
  -14.4061    3.9236   24.5511 C   0  0  0  0  0  0  0  0  0  0  0  0
  -15.7117    4.3370   24.5746 C   0  0  0  0  0  0  0  0  0  0  0  0
  -14.4150    3.3000   26.8115 C   0  0  0  0  0  0  0  0  0  0  0  0
  -15.7519    3.7469   26.9465 C   0  0  0  0  0  0  0  0  0  0  0  0
  -16.3789    4.2963   25.8170 C   0  0  0  0  0  0  0  0  0  0  0  0
  2  7  1  0
  9 13  1  0
 14 19  1  0
 12 20  1  0
  7  8  2  0
  8  9  1  0
  9 10  2  0
 10 12  1  0
 12 11  2  0
 11  7  1  0
 20 21  2  0
 21 22  1  0
 22 25  2  0
 25 24  1  0
 24 23  2  0
 23 20  1  0
  1  2  2  0
  2  3  1  0
  3  6  2  0
  6  5  1  0
  5  4  2  0
  4  1  1  0
 13 14  2  0
 14 15  1  0
 15 16  2  0
 16 18  1  0
 18 17  2  0
 17 13  1  0
M  END
$$$$
