No_2112-complexes_sdf/6BKW-FPZ/2024-09-17-14-21-01/
     RDKit          3D

 14 14  0  0  0  0  0  0  0  0999 V2000
   -7.9040    3.9820   27.1177 C   0  0  0  0  0  0  0  0  0  0  0  0
   -7.8663    4.8694   27.9238 C   0  0  0  0  0  0  0  0  0  0  0  0
   -7.4547    2.7080   27.4594 C   0  0  0  0  0  0  0  0  0  0  0  0
   -7.9337    1.5946   26.8372 C   0  0  0  0  0  0  0  0  0  0  0  0
   -7.4947    0.3059   27.1189 C   0  0  0  0  0  0  0  0  0  0  0  0
   -8.6696    6.0289   27.7710 C   0  0  0  0  0  0  0  0  0  0  0  0
   -8.9190    1.7899   25.8011 C   0  0  0  0  0  0  0  0  0  0  0  0
   -9.3883    0.6251   25.1344 C   0  0  0  0  0  0  0  0  0  0  0  0
   -8.0391   -0.7970   26.5285 C   0  0  0  0  0  0  0  0  0  0  0  0
  -10.3997    0.8301   24.0672 C   0  0  0  0  0  0  0  0  0  0  0  0
   -8.9771   -0.5768   25.5211 C   0  0  0  0  0  0  0  0  0  0  0  0
  -10.3896    0.3502   23.1005 N   0  0  0  0  0  0  0  0  0  0  0  0
  -10.1486    0.5208   22.0696 C   0  0  0  0  0  0  0  0  0  0  0  0
   -9.9746   -0.3980   20.9145 C   0  0  0  0  0  0  0  0  0  0  0  0
  1  2  1  0
  1  3  2  3
  3  4  1  0
  2  6  1  0
  8 10  1  0
 10 12  1  0
 12 13  1  0
 13 14  2  0
  4  5  2  0
  5  9  1  0
  9 11  2  0
 11  8  1  0
  8  7  2  0
  7  4  1  0
M  END
$$$$
