No_2342-complexes_sdf/6BKW-FPZ/2024-09-17-14-21-01/
     RDKit          3D

 35 40  0  0  0  0  0  0  0  0999 V2000
   -7.9040    3.9820   27.1177 C   0  0  0  0  0  0  0  0  0  0  0  0
   -7.8663    4.8694   27.9238 C   0  0  0  0  0  0  0  0  0  0  0  0
   -9.0491    3.8523   26.2542 C   0  0  0  0  0  0  0  0  0  0  0  0
   -8.7661    5.9491   27.9690 C   0  0  0  0  0  0  0  0  0  0  0  0
   -9.9295    4.8502   26.2323 C   0  0  0  0  0  0  0  0  0  0  0  0
   -9.8077    5.9288   27.0933 C   0  0  0  0  0  0  0  0  0  0  0  0
   -6.8002    2.6256   27.2024 Cl  0  0  0  0  0  0  0  0  0  0  0  0
   -9.1191    2.6984   25.2948 C   0  0  0  0  0  0  0  0  0  0  0  0
   -8.8971    1.4743   25.7014 C   0  0  0  0  0  0  0  0  0  0  0  0
  -10.0391    2.9448   24.1981 C   0  0  0  0  0  0  0  0  0  0  0  0
   -9.0227    0.3986   24.8443 C   0  0  0  0  0  0  0  0  0  0  0  0
  -10.1828    1.8635   23.3294 C   0  0  0  0  0  0  0  0  0  0  0  0
   -8.5223   -0.8754   25.1615 C   0  0  0  0  0  0  0  0  0  0  0  0
   -9.6976    0.6672   23.6440 C   0  0  0  0  0  0  0  0  0  0  0  0
   -8.5113   -1.2069   26.4918 C   0  0  0  0  0  0  0  0  0  0  0  0
   -7.9457   -2.4350   26.9829 C   0  0  0  0  0  0  0  0  0  0  0  0
   -7.8807   -2.6375   28.3871 C   0  0  0  0  0  0  0  0  0  0  0  0
   -8.5482   -1.8051   29.2056 C   0  0  0  0  0  0  0  0  0  0  0  0
   -9.2469   -0.6929   28.7210 C   0  0  0  0  0  0  0  0  0  0  0  0
   -9.1741   -0.3581   27.4295 C   0  0  0  0  0  0  0  0  0  0  0  0
   -9.4193    0.9962   27.0035 N   0  0  0  0  0  0  0  0  0  0  0  0
   -8.9461   -1.9169   24.2325 C   0  0  0  0  0  0  0  0  0  0  0  0
   -8.1783   -2.8602   24.1023 C   0  0  0  0  0  0  0  0  0  0  0  0
   -6.8246   -2.9024   24.7031 C   0  0  0  0  0  0  0  0  0  0  0  0
   -6.3329   -2.2908   25.6505 C   0  0  0  0  0  0  0  0  0  0  0  0
   -6.8770   -2.9168   26.4419 N   0  0  0  0  0  0  0  0  0  0  0  0
   -6.3911   -4.0956   26.9064 C   0  0  0  0  0  0  0  0  0  0  0  0
   -7.2237   -3.7605   28.8833 C   0  0  0  0  0  0  0  0  0  0  0  0
   -6.4397   -4.4359   28.1925 C   0  0  0  0  0  0  0  0  0  0  0  0
   -5.8699   -3.4930   23.7032 C   0  0  0  0  0  0  0  0  0  0  0  0
   -4.8474   -2.6778   23.3217 C   0  0  0  0  0  0  0  0  0  0  0  0
   -6.0199   -4.7640   23.1843 C   0  0  0  0  0  0  0  0  0  0  0  0
   -6.8630   -5.5381   23.3466 C   0  0  0  0  0  0  0  0  0  0  0  0
   -6.8772   -6.8783   22.8085 C   0  0  0  0  0  0  0  0  0  0  0  0
   -5.8946   -7.1449   21.9385 C   0  0  0  0  0  0  0  0  0  0  0  0
  1  7  1  0
  3  8  1  0
 13 22  1  0
 22 23  2  3
 23 24  1  0
 24 25  2  3
 16 26  1  0
 25 26  1  0
 26 27  1  0
 17 28  1  0
 28 29  1  0
 24 30  1  0
 30 31  1  0
 30 32  1  0
 32 33  2  3
 33 34  1  0
 34 35  2  0
 29 27  1  0
 15 16  1  0
 16 17  2  0
 17 18  1  0
 18 19  2  0
 19 20  1  0
  8  9  2  0
 11 14  2  0
 14 12  1  0
 12 10  2  0
 10  8  1  0
  9 11  1  0
 11 13  1  0
 13 15  2  0
 15 20  1  0
 20 21  2  0
 21  9  1  0
  1  2  2  0
  2  4  1  0
  4  6  2  0
  6  5  1  0
  5  3  2  0
  3  1  1  0
M  END
$$$$
