No_2003-complexes_sdf/6BKW-FPZ/2024-09-17-14-21-01/
     RDKit          3D

 30 33  0  0  0  0  0  0  0  0999 V2000
   -7.2496    3.8871   27.4508 C   0  0  0  0  0  0  0  0  0  0  0  0
   -7.6161    2.7143   27.1523 C   0  0  0  0  0  0  0  0  0  0  0  0
   -6.9719    1.5838   27.5324 C   0  0  0  0  0  0  0  0  0  0  0  0
   -7.4590    0.2827   27.2615 C   0  0  0  0  0  0  0  0  0  0  0  0
   -8.6787    2.5578   26.1663 C   0  0  0  0  0  0  0  0  0  0  0  0
   -9.1184    1.2615   25.8299 C   0  0  0  0  0  0  0  0  0  0  0  0
   -8.4686    0.1496   26.4163 C   0  0  0  0  0  0  0  0  0  0  0  0
   -8.0152    5.0688   27.1556 C   0  0  0  0  0  0  0  0  0  0  0  0
   -9.0923    5.0014   26.2157 C   0  0  0  0  0  0  0  0  0  0  0  0
   -9.4581    3.7002   25.7649 C   0  0  0  0  0  0  0  0  0  0  0  0
   -7.6181    6.4010   27.7001 C   0  0  0  0  0  0  0  0  0  0  0  0
   -8.3790    7.4450   27.3001 N   0  0  0  0  0  0  0  0  0  0  0  0
   -6.7558   -0.8846   27.8585 C   0  0  0  0  0  0  0  0  0  0  0  0
   -5.4357   -0.8057   28.1544 C   0  0  0  0  0  0  0  0  0  0  0  0
   -4.7909   -1.8664   28.8402 C   0  0  0  0  0  0  0  0  0  0  0  0
   -5.5310   -2.9466   29.1913 C   0  0  0  0  0  0  0  0  0  0  0  0
   -7.4028   -2.0205   28.3424 C   0  0  0  0  0  0  0  0  0  0  0  0
   -6.8515   -3.0052   28.9994 C   0  0  0  0  0  0  0  0  0  0  0  0
  -10.5303    3.6334   24.8159 C   0  0  0  0  0  0  0  0  0  0  0  0
  -11.8261    3.5506   25.2349 C   0  0  0  0  0  0  0  0  0  0  0  0
  -10.2490    3.4653   23.4445 C   0  0  0  0  0  0  0  0  0  0  0  0
  -11.1802    3.5594   22.4623 C   0  0  0  0  0  0  0  0  0  0  0  0
  -12.8707    3.7139   24.2961 C   0  0  0  0  0  0  0  0  0  0  0  0
  -12.5539    3.6994   22.9221 C   0  0  0  0  0  0  0  0  0  0  0  0
  -12.2340    3.7307   26.8989 Cl  0  0  0  0  0  0  0  0  0  0  0  0
  -10.8185    3.5366   21.0999 C   0  0  0  0  0  0  0  0  0  0  0  0
   -9.5197    3.5368   20.8332 C   0  0  0  0  0  0  0  0  0  0  0  0
  -11.8230    3.5305   20.1200 C   0  0  0  0  0  0  0  0  0  0  0  0
   -6.6770    6.4983   28.4037 O   0  0  0  0  0  0  0  0  0  0  0  0
   -3.0952   -1.7254   29.1371 Cl  0  0  0  0  0  0  0  0  0  0  0  0
  8 11  1  0
 11 12  1  0
  4 13  1  0
 10 19  1  0
 20 25  1  0
 22 26  1  0
 26 27  1  0
 26 28  1  0
 11 29  2  0
 15 30  1  0
 19 20  2  0
 20 23  1  0
 23 24  2  0
 24 22  1  0
 22 21  2  0
 21 19  1  0
 13 14  2  0
 14 15  1  0
 15 16  2  0
 16 18  1  0
 18 17  2  0
 17 13  1  0
  1  2  2  0
  5 10  2  0
 10  9  1  0
  9  8  2  0
  8  1  1  0
  2  3  1  0
  3  4  2  0
  4  7  1  0
  7  6  2  0
  6  5  1  0
  5  2  1  0
M  END
$$$$
