No_2294-complexes_sdf/6BKW-FPZ/2024-09-17-14-21-01/
     RDKit          3D

 21 23  0  0  0  0  0  0  0  0999 V2000
   -7.2496    3.8871   27.4508 C   0  0  0  0  0  0  0  0  0  0  0  0
   -7.6161    2.7143   27.1523 C   0  0  0  0  0  0  0  0  0  0  0  0
   -8.8302    2.4659   26.5056 C   0  0  0  0  0  0  0  0  0  0  0  0
   -8.1584    5.0090   27.3234 C   0  0  0  0  0  0  0  0  0  0  0  0
   -9.3788    4.7965   26.7695 C   0  0  0  0  0  0  0  0  0  0  0  0
   -9.7028    3.5649   26.3276 C   0  0  0  0  0  0  0  0  0  0  0  0
   -6.7190    1.5585   27.3667 C   0  0  0  0  0  0  0  0  0  0  0  0
   -7.0504    0.2135   27.2455 C   0  0  0  0  0  0  0  0  0  0  0  0
   -6.2345   -0.7674   27.5419 C   0  0  0  0  0  0  0  0  0  0  0  0
   -4.9557   -0.4544   28.0963 C   0  0  0  0  0  0  0  0  0  0  0  0
   -4.5769    0.8583   28.2784 C   0  0  0  0  0  0  0  0  0  0  0  0
   -5.4112    1.8384   27.9807 C   0  0  0  0  0  0  0  0  0  0  0  0
   -7.6962    6.3607   27.7749 C   0  0  0  0  0  0  0  0  0  0  0  0
   -4.0328   -1.5875   28.5063 C   0  0  0  0  0  0  0  0  0  0  0  0
   -4.3244   -2.5026   29.1519 C   0  0  0  0  0  0  0  0  0  0  0  0
   -3.3650   -3.5310   29.5776 C   0  0  0  0  0  0  0  0  0  0  0  0
   -2.0435   -3.3879   29.1583 C   0  0  0  0  0  0  0  0  0  0  0  0
   -2.6113   -1.2917   28.1258 C   0  0  0  0  0  0  0  0  0  0  0  0
   -2.2636   -0.0730   27.3881 C   0  0  0  0  0  0  0  0  0  0  0  0
   -1.6012   -2.2241   28.4764 C   0  0  0  0  0  0  0  0  0  0  0  0
   -8.4372    7.4026   27.2719 N   0  0  0  0  0  0  0  0  0  0  0  0
  2  7  1  0
  4 13  1  0
 10 14  1  0
 18 19  1  0
 13 21  1  0
  1  2  2  0
  2  3  1  0
  3  6  2  0
  6  5  1  0
  5  4  2  0
  4  1  1  0
  7  8  2  0
  8  9  1  0
  9 10  2  0
 10 11  1  0
 11 12  2  0
 12  7  1  0
 14 15  2  0
 15 16  1  0
 16 17  2  0
 17 20  1  0
 20 18  2  0
 18 14  1  0
M  END
$$$$
