No_2776-complexes_sdf/6BKW-FPZ/2024-09-17-14-21-01/
     RDKit          3D

 25 28  0  0  0  0  0  0  0  0999 V2000
   -7.7129    4.2099   27.0854 C   0  0  0  0  0  0  0  0  0  0  0  0
   -8.2112    3.0637   26.9225 C   0  0  0  0  0  0  0  0  0  0  0  0
   -9.4446    2.8304   26.1868 C   0  0  0  0  0  0  0  0  0  0  0  0
   -6.6388    4.5347   28.1123 C   0  0  0  0  0  0  0  0  0  0  0  0
   -9.9448    3.9173   25.5585 C   0  0  0  0  0  0  0  0  0  0  0  0
   -9.3660    5.1901   25.7094 C   0  0  0  0  0  0  0  0  0  0  0  0
   -8.3659    5.4005   26.5436 C   0  0  0  0  0  0  0  0  0  0  0  0
  -11.1204    3.7819   24.6448 C   0  0  0  0  0  0  0  0  0  0  0  0
  -12.3200    3.5881   25.1544 C   0  0  0  0  0  0  0  0  0  0  0  0
  -10.9246    3.8518   23.2400 C   0  0  0  0  0  0  0  0  0  0  0  0
  -11.8326    3.9116   22.3046 C   0  0  0  0  0  0  0  0  0  0  0  0
  -13.4498    3.6242   24.2077 C   0  0  0  0  0  0  0  0  0  0  0  0
  -13.1643    3.7871   22.8326 C   0  0  0  0  0  0  0  0  0  0  0  0
   -7.6200    1.7979   27.5157 C   0  0  0  0  0  0  0  0  0  0  0  0
   -6.6317    1.1868   26.7301 Cl  0  0  0  0  0  0  0  0  0  0  0  0
  -14.2986    3.7642   21.8613 C   0  0  0  0  0  0  0  0  0  0  0  0
  -14.0217    3.5019   20.6293 C   0  0  0  0  0  0  0  0  0  0  0  0
  -12.6344    3.7072   20.0788 C   0  0  0  0  0  0  0  0  0  0  0  0
  -11.5620    3.8713   20.9382 C   0  0  0  0  0  0  0  0  0  0  0  0
  -12.6449    3.6193   26.5831 C   0  0  0  0  0  0  0  0  0  0  0  0
  -12.1189    3.9972   27.4880 N   0  0  0  0  0  0  0  0  0  0  0  0
  -12.4503    3.8628   28.8275 C   0  0  0  0  0  0  0  0  0  0  0  0
  -13.8025    2.9580   26.9556 N   0  0  0  0  0  0  0  0  0  0  0  0
  -14.2622    2.7640   28.1496 C   0  0  0  0  0  0  0  0  0  0  0  0
  -13.3770    3.0493   29.0322 C   0  0  0  0  0  0  0  0  0  0  0  0
  1  4  1  0
  5  8  1  0
  2 14  1  0
 14 15  1  0
  9 20  1  0
 13 16  1  0
 16 17  2  0
 17 18  1  0
 18 19  2  0
 19 11  1  0
  8  9  2  0
  9 12  1  0
 12 13  2  0
 13 11  1  0
 11 10  2  0
 10  8  1  0
 20 21  2  0
 21 22  1  0
 22 25  2  0
 25 24  1  0
 24 23  2  0
 23 20  1  0
  1  2  2  0
  2  3  1  0
  3  5  2  0
  5  6  1  0
  6  7  2  0
  7  1  1  0
M  END
$$$$
