No_2025-complexes_sdf/6BKW-FPZ/2024-09-17-14-21-01/
     RDKit          3D

 29 32  0  0  0  0  0  0  0  0999 V2000
   -7.9040    3.9820   27.1177 C   0  0  0  0  0  0  0  0  0  0  0  0
   -9.0711    4.3164   27.0630 C   0  0  0  0  0  0  0  0  0  0  0  0
   -9.5182    5.5541   27.5777 C   0  0  0  0  0  0  0  0  0  0  0  0
   -6.9424    4.7983   27.8424 C   0  0  0  0  0  0  0  0  0  0  0  0
   -7.3526    5.9739   28.3909 C   0  0  0  0  0  0  0  0  0  0  0  0
   -8.6479    6.3742   28.2170 C   0  0  0  0  0  0  0  0  0  0  0  0
  -10.2021    3.5782   26.4472 C   0  0  1  0  0  0  0  0  0  0  0  0
  -11.2961    3.3861   26.7089 C   0  0  0  0  0  0  0  0  0  0  0  0
  -11.6982    3.8841   28.1598 C   0  0  0  0  0  0  0  0  0  0  0  0
   -9.7364    3.0436   25.0797 C   0  0  0  0  0  0  0  0  0  0  0  0
  -13.0448    3.6274   28.6765 C   0  0  0  0  0  0  0  0  0  0  0  0
  -14.0391    3.6414   28.0496 C   0  0  0  0  0  0  0  0  0  0  0  0
  -13.8275    3.4883   26.5627 C   0  0  0  0  0  0  0  0  0  0  0  0
  -12.5367    3.4465   25.9923 C   0  0  0  0  0  0  0  0  0  0  0  0
   -9.1695    1.9864   24.9732 O   0  0  0  0  0  0  0  0  0  0  0  0
  -10.0071    3.7727   24.0227 O   0  0  0  0  0  0  0  0  0  0  0  0
  -10.3262    3.2050   22.8268 C   0  0  0  0  0  0  0  0  0  0  0  0
  -11.5767    3.5906   22.2232 C   0  0  0  0  0  0  0  0  0  0  0  0
  -12.2398    4.6229   22.8174 C   0  0  0  0  0  0  0  0  0  0  0  0
  -12.0886    2.9302   21.1429 C   0  0  0  0  0  0  0  0  0  0  0  0
  -13.5525    5.0123   22.4072 C   0  0  0  0  0  0  0  0  0  0  0  0
  -13.3986    3.2974   20.6745 C   0  0  0  0  0  0  0  0  0  0  0  0
  -14.0769    4.3816   21.3116 C   0  0  0  0  0  0  0  0  0  0  0  0
  -15.0120    3.3432   25.6612 C   0  0  0  0  0  0  0  0  0  0  0  0
  -16.1192    2.6674   26.1373 C   0  0  0  0  0  0  0  0  0  0  0  0
  -17.2995    3.1753   25.6339 C   0  0  0  0  0  0  0  0  0  0  0  0
  -17.3417    3.8318   24.3698 C   0  0  0  0  0  0  0  0  0  0  0  0
  -16.1728    4.4308   23.9313 C   0  0  0  0  0  0  0  0  0  0  0  0
  -14.9659    4.2409   24.6347 C   0  0  0  0  0  0  0  0  0  0  0  0
  2  7  1  0
  7 10  1  6
 10 15  2  0
 10 16  1  0
 16 17  1  0
 17 18  1  0
 13 24  1  0
  7  8  1  0
  8  9  2  0
  9 11  1  0
 11 12  2  0
 12 13  1  0
 13 14  2  0
 14  8  1  0
  1  2  2  0
  2  3  1  0
  3  6  2  0
  6  5  1  0
  5  4  2  0
  4  1  1  0
 18 19  2  0
 19 21  1  0
 21 23  2  0
 23 22  1  0
 22 20  2  0
 20 18  1  0
 24 25  2  0
 25 26  1  0
 26 27  2  0
 27 28  1  0
 28 29  2  0
 29 24  1  0
M  END
$$$$
