No_2020-complexes_sdf/6BKW-FPZ/2024-09-17-14-21-01/
     RDKit          3D

 21 22  0  0  0  0  0  0  0  0999 V2000
   -7.7129    4.2099   27.0854 C   0  0  0  0  0  0  0  0  0  0  0  0
   -7.7814    5.1722   27.8972 C   0  0  0  0  0  0  0  0  0  0  0  0
   -8.8998    3.8713   26.3707 C   0  0  0  0  0  0  0  0  0  0  0  0
   -8.8819    6.0847   28.0293 C   0  0  0  0  0  0  0  0  0  0  0  0
  -10.0999    5.7353   27.3373 C   0  0  0  0  0  0  0  0  0  0  0  0
   -9.8864    4.4224   26.5521 C   0  0  0  0  0  0  0  0  0  0  0  0
  -11.1609    4.1086   25.7322 C   0  0  0  0  0  0  0  0  0  0  0  0
  -11.4411    3.0451   25.7821 C   0  0  0  0  0  0  0  0  0  0  0  0
  -11.8575    2.2925   25.2489 C   0  0  0  0  0  0  0  0  0  0  0  0
  -11.8971    1.3461   24.9078 C   0  0  0  0  0  0  0  0  0  0  0  0
  -11.3292    0.3437   25.8574 C   0  0  0  0  0  0  0  0  0  0  0  0
  -10.7263    0.8667   26.9523 C   0  0  0  0  0  0  0  0  0  0  0  0
  -10.6975    2.3043   26.9831 C   0  0  0  0  0  0  0  0  0  0  0  0
  -13.0626    3.1990   24.4040 C   0  0  2  0  0  0  0  0  0  0  0  0
  -14.0291    3.5703   25.0916 C   0  0  0  0  0  0  0  0  0  0  0  0
  -13.0159    3.3957   22.9835 C   0  0  0  0  0  0  0  0  0  0  0  0
  -14.2684    3.4699   26.3848 C   0  0  0  0  0  0  0  0  0  0  0  0
  -15.4159    4.0132   27.0796 C   0  0  0  0  0  0  0  0  0  0  0  0
  -15.5108    3.9556   28.4886 C   0  0  0  0  0  0  0  0  0  0  0  0
  -14.4530    3.4112   29.2636 C   0  0  0  0  0  0  0  0  0  0  0  0
  -13.2986    2.9315   28.6423 C   0  0  0  0  0  0  0  0  0  0  0  0
  6  7  1  0
  7  8  1  0
  9 14  1  0
 14 15  1  0
 14 16  1  6
 15 17  2  3
 17 18  1  0
 18 19  2  3
 19 20  1  0
 20 21  2  0
  1  2  2  0
  2  4  1  0
  4  5  2  0
  5  6  1  0
  6  3  2  0
  3  1  1  0
  8  9  2  0
  9 10  1  0
 10 11  2  0
 11 12  1  0
 12 13  2  0
 13  8  1  0
M  END
$$$$
