No_2291-complexes_sdf/6BKW-FPZ/2024-09-17-14-21-01/
     RDKit          3D

 24 27  0  0  0  0  0  0  0  0999 V2000
   -7.2496    3.8871   27.4508 C   0  0  0  0  0  0  0  0  0  0  0  0
   -8.5096    4.0291   27.2770 C   0  0  0  0  0  0  0  0  0  0  0  0
   -9.2677    5.1714   27.5773 C   0  0  0  0  0  0  0  0  0  0  0  0
   -9.2765    2.8248   26.8371 C   0  0  0  0  0  0  0  0  0  0  0  0
  -10.4623    3.0171   26.3236 C   0  0  0  0  0  0  0  0  0  0  0  0
  -10.8972    2.6250   25.3350 C   0  0  0  0  0  0  0  0  0  0  0  0
  -12.2133    2.9588   24.7026 C   0  0  0  0  0  0  0  0  0  0  0  0
  -10.5843    5.3403   27.2292 C   0  0  0  0  0  0  0  0  0  0  0  0
  -11.1765    4.3354   26.5199 C   0  0  0  0  0  0  0  0  0  0  0  0
   -6.9095    2.6831   28.0019 Br  0  0  0  0  0  0  0  0  0  0  0  0
  -12.8736    3.9949   25.2096 C   0  0  0  0  0  0  0  0  0  0  0  0
  -12.4223    4.7526   26.0707 C   0  0  0  0  0  0  0  0  0  0  0  0
  -10.3010    1.3685   24.6029 C   0  0  0  0  0  0  0  0  0  0  0  0
   -9.8231    0.4286   25.2908 C   0  0  0  0  0  0  0  0  0  0  0  0
   -9.2372   -0.6227   24.4813 C   0  0  0  0  0  0  0  0  0  0  0  0
  -10.1854    1.4433   23.1986 C   0  0  0  0  0  0  0  0  0  0  0  0
  -10.6192    2.5875   22.4324 C   0  0  0  0  0  0  0  0  0  0  0  0
   -9.1565   -0.5950   23.1748 C   0  0  0  0  0  0  0  0  0  0  0  0
   -9.5650    0.4984   22.4389 C   0  0  0  0  0  0  0  0  0  0  0  0
   -9.9104    3.7902   22.4356 C   0  0  0  0  0  0  0  0  0  0  0  0
  -11.7389    2.4081   21.5815 C   0  0  0  0  0  0  0  0  0  0  0  0
  -10.3896    4.8927   21.6664 C   0  0  0  0  0  0  0  0  0  0  0  0
  -12.1673    3.5005   20.7778 C   0  0  0  0  0  0  0  0  0  0  0  0
  -11.4980    4.7337   20.8263 C   0  0  0  0  0  0  0  0  0  0  0  0
  1  2  1  0
  1 10  1  0
  6 13  1  0
 16 17  1  0
  5  6  1  0
  6  7  2  0
  7 11  1  0
 11 12  2  0
 12  9  1  0
  2  3  2  0
  3  8  1  0
  8  9  2  0
  9  5  1  0
  5  4  2  0
  4  2  1  0
 13 14  2  0
 14 15  1  0
 15 18  2  0
 18 19  1  0
 19 16  2  0
 16 13  1  0
 17 20  2  0
 20 22  1  0
 22 24  2  0
 24 23  1  0
 23 21  2  0
 21 17  1  0
M  END
$$$$
