No_2540-complexes_sdf/6BKW-FPZ/2024-09-17-14-21-01/
     RDKit          3D

 31 35  0  0  0  0  0  0  0  0999 V2000
   -7.7129    4.2099   27.0854 C   0  0  0  0  0  0  0  0  0  0  0  0
   -8.9133    4.4736   27.0998 C   0  0  0  0  0  0  0  0  0  0  0  0
   -9.4616    5.6470   27.6290 C   0  0  0  0  0  0  0  0  0  0  0  0
   -7.2326    2.9175   26.7557 C   0  0  0  0  0  0  0  0  0  0  0  0
   -8.1546    1.9086   26.5054 C   0  0  0  0  0  0  0  0  0  0  0  0
   -9.4618    2.2289   26.4212 C   0  0  0  0  0  0  0  0  0  0  0  0
   -9.8481    3.4572   26.7692 C   0  0  0  0  0  0  0  0  0  0  0  0
   -7.6166    0.5674   26.2050 C   0  0  0  0  0  0  0  0  0  0  0  0
   -6.8829   -0.0865   27.0953 N   0  0  0  0  0  0  0  0  0  0  0  0
   -6.5587    0.2405   28.1464 C   0  0  0  0  0  0  0  0  0  0  0  0
   -5.5662   -0.5596   28.9831 C   0  0  0  0  0  0  0  0  0  0  0  0
   -5.3970   -1.6376   28.0519 C   0  0  1  0  0  0  0  0  0  0  0  0
   -6.1709   -1.3045   26.9326 C   0  0  0  0  0  0  0  0  0  0  0  0
   -7.6608    0.1936   25.0302 O   0  0  0  0  0  0  0  0  0  0  0  0
   -8.6894    6.6886   27.5099 F   0  0  0  0  0  0  0  0  0  0  0  0
   -9.8640    5.6388   28.9765 F   0  0  0  0  0  0  0  0  0  0  0  0
  -10.6858    5.9710   27.0826 F   0  0  0  0  0  0  0  0  0  0  0  0
   -4.2243    0.0183   29.2952 C   0  0  0  0  0  0  0  0  0  0  0  0
   -3.1890   -0.7271   29.6055 C   0  0  0  0  0  0  0  0  0  0  0  0
   -2.2948   -0.2662   30.5705 C   0  0  0  0  0  0  0  0  0  0  0  0
   -1.4002   -1.2567   31.0582 C   0  0  0  0  0  0  0  0  0  0  0  0
   -1.2045   -2.4133   30.4212 C   0  0  0  0  0  0  0  0  0  0  0  0
   -2.9563   -2.0229   29.2202 C   0  0  0  0  0  0  0  0  0  0  0  0
   -1.9406   -2.7805   29.5396 C   0  0  0  0  0  0  0  0  0  0  0  0
   -4.0769   -2.4677   28.2719 C   0  0  0  0  0  0  0  0  0  0  0  0
   -4.2014   -3.6782   27.4070 C   0  0  0  0  0  0  0  0  0  0  0  0
   -4.8052   -3.9352   26.5936 C   0  0  0  0  0  0  0  0  0  0  0  0
   -4.7207   -5.1447   25.8650 C   0  0  0  0  0  0  0  0  0  0  0  0
   -3.8185   -6.0386   26.3112 C   0  0  0  0  0  0  0  0  0  0  0  0
   -3.0158   -5.8031   27.3587 C   0  0  0  0  0  0  0  0  0  0  0  0
   -3.1238   -4.6251   27.9963 C   0  0  0  0  0  0  0  0  0  0  0  0
  2  3  1  0
  5  8  1  0
  8  9  1  0
  9 10  1  0
 10 11  2  0
 11 12  1  0
  9 13  1  0
 12 13  1  6
  8 14  2  0
  3 15  1  0
  3 16  1  0
  3 17  1  0
 11 18  1  0
 18 19  1  0
 12 25  1  0
 23 25  1  0
 25 26  1  0
 26 27  2  0
 27 28  1  0
 28 29  2  0
 29 30  1  0
 30 31  2  0
 31 26  1  0
  1  2  2  0
  2  7  1  0
  7  6  2  0
  6  5  1  0
  5  4  2  0
  4  1  1  0
 19 20  2  0
 20 21  1  0
 21 22  2  0
 22 24  1  0
 24 23  2  0
 23 19  1  0
M  END
$$$$
