No_2208-complexes_sdf/6BKW-FPZ/2024-09-17-14-21-01/
     RDKit          3D

 25 27  0  0  0  0  0  0  0  0999 V2000
   -7.2496    3.8871   27.4508 C   0  0  2  0  0  0  0  0  0  0  0  0
   -8.5096    4.0291   27.2770 C   0  0  0  0  0  0  0  0  0  0  0  0
   -9.2669    5.1645   27.5845 C   0  0  0  0  0  0  0  0  0  0  0  0
  -10.6621    5.2321   27.4284 C   0  0  0  0  0  0  0  0  0  0  0  0
   -9.2095    2.9872   26.5061 C   0  0  0  0  0  0  0  0  0  0  0  0
  -10.5753    3.0643   26.2613 C   0  0  0  0  0  0  0  0  0  0  0  0
  -11.3198    4.1684   26.7700 C   0  0  0  0  0  0  0  0  0  0  0  0
   -6.6161    2.6591   27.3524 N   0  0  0  0  0  0  0  0  0  0  0  0
   -6.9315    1.6219   27.8049 C   0  0  0  0  0  0  0  0  0  0  0  0
   -8.0408    0.9455   27.0723 C   0  0  0  0  0  0  0  0  0  0  0  0
   -8.7024    1.6061   26.0853 C   0  0  0  0  0  0  0  0  0  0  0  0
   -6.5863    4.9710   27.9831 N   0  0  0  0  0  0  0  0  0  0  0  0
  -11.3563    2.1424   25.4955 C   0  0  0  0  0  0  0  0  0  0  0  0
  -11.0893    2.1342   24.1002 C   0  0  0  0  0  0  0  0  0  0  0  0
  -11.0836    3.3107   23.4108 C   0  0  0  0  0  0  0  0  0  0  0  0
  -11.9658    3.6459   22.6282 C   0  0  0  0  0  0  0  0  0  0  0  0
  -11.8919    4.9612   21.8809 C   0  0  0  0  0  0  0  0  0  0  0  0
  -10.7650    5.7593   22.1044 C   0  0  0  0  0  0  0  0  0  0  0  0
   -9.8718    5.3883   23.1742 C   0  0  0  0  0  0  0  0  0  0  0  0
   -9.9860    4.2367   23.8125 C   0  0  0  0  0  0  0  0  0  0  0  0
  -12.2889    1.3243   26.0574 C   0  0  0  0  0  0  0  0  0  0  0  0
  -12.4615    0.0818   25.7460 C   0  0  0  0  0  0  0  0  0  0  0  0
  -13.4615   -0.7181   26.3347 C   0  0  0  0  0  0  0  0  0  0  0  0
  -14.2095   -0.1737   27.4090 C   0  0  0  0  0  0  0  0  0  0  0  0
  -13.9827    1.1093   27.8452 C   0  0  0  0  0  0  0  0  0  0  0  0
  1  8  1  0
  8  9  2  0
  9 10  1  0
  5 11  1  0
 10 11  2  0
  1 12  1  1
  6 13  1  0
 13 14  1  0
 14 15  1  0
 13 21  1  0
 21 22  2  3
 22 23  1  0
 23 24  2  3
 24 25  1  0
  1  2  1  0
 15 16  2  0
 16 17  1  0
 17 18  2  0
 18 19  1  0
 19 20  2  0
 20 15  1  0
  2  3  2  0
  3  4  1  0
  4  7  2  0
  7  6  1  0
  6  5  2  0
  5  2  1  0
M  END
$$$$
