No_204-complexes_sdf/6BKW-FPZ/2024-09-17-14-21-01/
     RDKit          3D

 20 21  0  0  0  0  0  0  0  0999 V2000
   -7.7129    4.2099   27.0854 C   0  0  0  0  0  0  0  0  0  0  0  0
   -8.2112    3.0637   26.9225 C   0  0  0  0  0  0  0  0  0  0  0  0
   -7.5138    1.9223   27.4249 C   0  0  0  0  0  0  0  0  0  0  0  0
   -8.5309    5.4147   26.8151 C   0  0  0  0  0  0  0  0  0  0  0  0
   -9.6817    5.2393   26.1100 C   0  0  0  0  0  0  0  0  0  0  0  0
  -10.1032    3.9957   25.8534 C   0  0  0  0  0  0  0  0  0  0  0  0
   -9.4034    2.8430   26.2573 C   0  0  0  0  0  0  0  0  0  0  0  0
   -6.1481    1.9922   27.8210 C   0  0  0  0  0  0  0  0  0  0  0  0
   -5.4897    0.8126   28.2236 C   0  0  0  0  0  0  0  0  0  0  0  0
   -6.0879   -0.4018   28.1493 C   0  0  0  0  0  0  0  0  0  0  0  0
   -8.1215    0.6154   27.4614 C   0  0  0  0  0  0  0  0  0  0  0  0
   -7.4204   -0.4740   27.8278 C   0  0  0  0  0  0  0  0  0  0  0  0
   -7.9792    6.7630   27.0834 C   0  0  0  0  0  0  0  0  0  0  0  0
   -8.1516    7.8080   26.7785 N   0  0  0  0  0  0  0  0  0  0  0  0
   -7.1589    6.6873   28.2504 O   0  0  0  0  0  0  0  0  0  0  0  0
   -4.1319    0.9777   28.5718 O   0  0  0  0  0  0  0  0  0  0  0  0
   -3.2997   -0.1618   28.6847 C   0  0  0  0  0  0  0  0  0  0  0  0
   -2.5984   -0.6140   29.2393 C   0  0  0  0  0  0  0  0  0  0  0  0
   -1.8007   -1.7527   28.8981 C   0  0  0  0  0  0  0  0  0  0  0  0
   -2.0695   -2.4292   27.7705 C   0  0  0  0  0  0  0  0  0  0  0  0
  2  3  1  0
  4 13  1  0
 13 14  2  0
 13 15  1  0
  9 16  1  0
 16 17  1  0
 17 18  3  0
 18 19  1  0
 19 20  2  0
  3  8  2  0
  8  9  1  0
  9 10  2  0
 10 12  1  0
 12 11  2  0
 11  3  1  0
  1  2  2  0
  2  7  1  0
  7  6  2  0
  6  5  1  0
  5  4  2  0
  4  1  1  0
M  END
$$$$
