No_2692-complexes_sdf/6BKW-FPZ/2024-09-17-14-21-01/
     RDKit          3D

 15 17  0  0  0  0  0  0  0  0999 V2000
   -7.7129    4.2099   27.0854 C   0  0  0  0  0  0  0  0  0  0  0  0
   -7.7814    5.1722   27.8972 C   0  0  0  0  0  0  0  0  0  0  0  0
   -8.8255    3.2789   27.1191 C   0  0  0  0  0  0  0  0  0  0  0  0
   -8.7530    2.0643   26.3119 C   0  0  0  0  0  0  0  0  0  0  0  0
   -9.8958    1.4956   25.8527 C   0  0  0  0  0  0  0  0  0  0  0  0
   -9.0297    5.7889   28.3205 C   0  0  0  0  0  0  0  0  0  0  0  0
   -9.9340    3.9705   27.5769 C   0  0  0  0  0  0  0  0  0  0  0  0
  -10.0666    5.0421   28.2780 C   0  0  0  0  0  0  0  0  0  0  0  0
   -9.7695    0.2592   25.1793 C   0  0  0  0  0  0  0  0  0  0  0  0
   -8.4958   -0.3194   25.0666 C   0  0  0  0  0  0  0  0  0  0  0  0
   -7.4072    0.2562   25.5881 C   0  0  0  0  0  0  0  0  0  0  0  0
   -7.4589    1.4477   26.3134 C   0  0  0  0  0  0  0  0  0  0  0  0
  -11.2491    3.0191   27.4731 C   0  0  0  0  0  0  0  0  0  0  0  0
  -11.1604    1.8869   26.5438 C   0  0  0  0  0  0  0  0  0  0  0  0
  -11.6522    2.6381   28.9069 C   0  0  0  0  0  0  0  0  0  0  0  0
 13 15  1  0
  3  4  2  0
  5 14  2  0
 14 13  1  0
 13  7  2  0
  4  5  1  0
  5  9  1  0
  9 10  2  0
 10 11  1  0
 11 12  2  0
 12  4  1  0
  1  2  2  0
  2  6  1  0
  6  8  2  0
  8  7  1  0
  7  3  1  0
  3  1  1  0
M  END
$$$$
