No_2945-complexes_sdf/6BKW-FPZ/2024-09-17-14-21-01/
     RDKit          3D

 25 28  0  0  0  0  0  0  0  0999 V2000
   -7.2496    3.8871   27.4508 C   0  0  0  0  0  0  0  0  0  0  0  0
   -8.5096    4.0291   27.2770 C   0  0  0  0  0  0  0  0  0  0  0  0
   -9.2677    5.1714   27.5773 C   0  0  0  0  0  0  0  0  0  0  0  0
   -9.2765    2.8248   26.8371 C   0  0  0  0  0  0  0  0  0  0  0  0
  -10.4623    3.0171   26.3236 C   0  0  0  0  0  0  0  0  0  0  0  0
  -10.8972    2.6250   25.3350 C   0  0  0  0  0  0  0  0  0  0  0  0
  -12.2133    2.9588   24.7026 C   0  0  0  0  0  0  0  0  0  0  0  0
  -10.5843    5.3403   27.2292 C   0  0  0  0  0  0  0  0  0  0  0  0
  -11.1765    4.3354   26.5199 C   0  0  0  0  0  0  0  0  0  0  0  0
   -6.5516    4.9255   27.9614 N   0  0  0  0  0  0  0  0  0  0  0  0
   -6.5997    2.7894   27.3807 O   0  0  0  0  0  0  0  0  0  0  0  0
  -12.8616    3.9938   25.1968 C   0  0  0  0  0  0  0  0  0  0  0  0
  -12.4015    4.7533   26.0418 C   0  0  0  0  0  0  0  0  0  0  0  0
  -10.3204    1.3340   24.6006 C   0  0  0  0  0  0  0  0  0  0  0  0
  -10.0930    0.2889   25.1352 C   0  0  0  0  0  0  0  0  0  0  0  0
   -9.8211    1.5830   23.2325 C   0  0  0  0  0  0  0  0  0  0  0  0
  -10.5233   -0.1416   26.2901 C   0  0  0  0  0  0  0  0  0  0  0  0
  -11.7005   -0.1487   26.7883 C   0  0  0  0  0  0  0  0  0  0  0  0
  -12.0441   -0.5303   28.1475 C   0  0  0  0  0  0  0  0  0  0  0  0
  -11.0411   -1.0672   28.9416 C   0  0  0  0  0  0  0  0  0  0  0  0
   -9.7320   -1.1646   28.5174 C   0  0  0  0  0  0  0  0  0  0  0  0
   -9.4327   -0.7234   27.2573 C   0  0  0  0  0  0  0  0  0  0  0  0
   -9.3590   -0.7702   24.3800 C   0  0  0  0  0  0  0  0  0  0  0  0
   -9.0185   -0.5289   23.0767 C   0  0  0  0  0  0  0  0  0  0  0  0
   -9.1584    0.7425   22.5487 C   0  0  0  0  0  0  0  0  0  0  0  0
  1  2  1  0
  1 10  1  0
  1 11  2  0
  6 14  1  0
 15 17  1  0
 17 18  2  0
 18 19  1  0
 19 20  2  0
 20 21  1  0
 21 22  2  0
 22 17  1  0
 14 15  2  0
 15 23  1  0
 23 24  2  0
 24 25  1  0
 25 16  2  0
 16 14  1  0
  2  3  2  0
  3  8  1  0
  8  9  2  0
  5  4  2  0
  4  2  1  0
  5  6  1  0
  6  7  2  0
  7 12  1  0
 12 13  2  0
 13  9  1  0
  9  5  1  0
M  END
$$$$
