No_2934-complexes_sdf/6BKW-FPZ/2024-09-17-14-21-01/
     RDKit          3D

 14 15  0  0  0  0  0  0  0  0999 V2000
   -7.2496    3.8871   27.4508 C   0  0  0  0  0  0  0  0  0  0  0  0
   -7.6161    2.7143   27.1523 C   0  0  0  0  0  0  0  0  0  0  0  0
   -7.1618    1.8631   27.5233 C   0  0  0  0  0  0  0  0  0  0  0  0
   -7.7575    4.8848   27.9618 C   0  0  0  0  0  0  0  0  0  0  0  0
   -7.5853    0.4757   27.3917 C   0  0  0  0  0  0  0  0  0  0  0  0
   -8.8658    0.3358   26.9117 C   0  0  0  0  0  0  0  0  0  0  0  0
   -8.9416    2.5030   26.5682 C   0  0  0  0  0  0  0  0  0  0  0  0
   -9.6098    3.7617   26.1079 C   0  0  0  0  0  0  0  0  0  0  0  0
   -9.5669    1.3819   26.4038 C   0  0  0  0  0  0  0  0  0  0  0  0
   -7.1212    6.0472   28.4500 C   0  0  0  0  0  0  0  0  0  0  0  0
   -9.2314    5.1972   27.7245 C   0  0  0  0  0  0  0  0  0  0  0  0
  -10.0014    4.8404   26.8032 C   0  0  0  0  0  0  0  0  0  0  0  0
   -9.8120    3.7365   24.5997 C   0  0  0  0  0  0  0  0  0  0  0  0
  -10.6220    4.7775   24.0410 C   0  0  0  0  0  0  0  0  0  0  0  0
  1  2  1  0
  1  4  2  0
  7  8  1  0
  4 10  1  0
  4 11  1  0
  8 12  1  0
 11 12  2  0
  8 13  1  0
 13 14  1  0
  2  3  2  0
  3  5  1  0
  5  6  2  0
  6  9  1  0
  9  7  2  0
  7  2  1  0
M  END
$$$$
