No_2094-complexes_sdf/6BKW-FPZ/2024-09-17-14-21-01/
     RDKit          3D

 21 23  0  0  0  0  0  0  0  0999 V2000
   -7.7129    4.2099   27.0854 C   0  0  0  0  0  0  0  0  0  0  0  0
   -8.2112    3.0637   26.9225 C   0  0  0  0  0  0  0  0  0  0  0  0
   -7.5138    1.9223   27.4249 C   0  0  0  0  0  0  0  0  0  0  0  0
   -6.5434    4.4363   27.9024 C   0  0  0  0  0  0  0  0  0  0  0  0
   -6.2005    2.1121   27.9323 C   0  0  0  0  0  0  0  0  0  0  0  0
   -5.7560    3.3924   28.1795 C   0  0  0  0  0  0  0  0  0  0  0  0
   -8.5326    5.4191   26.7935 C   0  0  0  0  0  0  0  0  0  0  0  0
   -8.3082    6.6032   27.3246 N   0  0  0  0  0  0  0  0  0  0  0  0
   -9.4188    5.3589   25.8014 N   0  0  0  0  0  0  0  0  0  0  0  0
   -5.2526    1.0034   28.4083 C   0  0  0  0  0  0  0  0  0  0  0  0
   -5.7342   -0.3389   28.3754 C   0  0  0  0  0  0  0  0  0  0  0  0
   -4.9810   -1.2799   29.0936 C   0  0  0  0  0  0  0  0  0  0  0  0
   -3.7065   -0.9086   29.6055 C   0  0  0  0  0  0  0  0  0  0  0  0
   -3.2527    0.3660   29.5154 C   0  0  0  0  0  0  0  0  0  0  0  0
   -4.0059    1.3138   29.0076 C   0  0  0  0  0  0  0  0  0  0  0  0
   -8.7036    7.7984   26.8287 C   0  0  0  0  0  0  0  0  0  0  0  0
   -9.7522    4.2365   25.1920 C   0  0  0  0  0  0  0  0  0  0  0  0
   -9.2970    2.9000   25.9324 C   0  0  0  0  0  0  0  0  0  0  0  0
   -9.6902    1.6560   25.3718 C   0  0  0  0  0  0  0  0  0  0  0  0
   -9.7736    1.4326   24.1783 C   0  0  0  0  0  0  0  0  0  0  0  0
  -10.5706    2.1186   23.3072 C   0  0  0  0  0  0  0  0  0  0  0  0
  7  8  1  0
  5 10  1  0
  8 16  1  0
 18 19  1  0
 19 20  3  0
 20 21  1  0
  2  3  2  0
  3  5  1  0
  5  6  2  0
  6  4  1  0
  4  1  2  0
  1  2  1  0
  2 18  1  0
 18 17  2  0
 17  9  1  0
  9  7  2  0
  7  1  1  0
 10 11  2  0
 11 12  1  0
 12 13  2  0
 13 14  1  0
 14 15  2  0
 15 10  1  0
M  END
$$$$
