No_2500-complexes_sdf/6BKW-FPZ/2024-09-17-14-21-01/
     RDKit          3D

 19 21  0  0  0  0  0  0  0  0999 V2000
   -7.2496    3.8871   27.4508 C   0  0  0  0  0  0  0  0  0  0  0  0
   -7.6161    2.7143   27.1523 C   0  0  0  0  0  0  0  0  0  0  0  0
   -6.9719    1.5838   27.5324 C   0  0  0  0  0  0  0  0  0  0  0  0
   -7.4590    0.2827   27.2615 C   0  0  0  0  0  0  0  0  0  0  0  0
   -8.7521    2.5117   26.3068 C   0  0  0  0  0  0  0  0  0  0  0  0
   -9.5643    3.6334   25.9825 C   0  0  0  0  0  0  0  0  0  0  0  0
   -8.0192    5.0864   27.1972 C   0  0  0  0  0  0  0  0  0  0  0  0
   -9.1214    4.9754   26.3814 C   0  0  0  0  0  0  0  0  0  0  0  0
   -8.6354    0.1684   26.5433 C   0  0  0  0  0  0  0  0  0  0  0  0
   -9.3064    1.2866   26.0224 C   0  0  0  0  0  0  0  0  0  0  0  0
   -7.5774    6.4044   27.6727 C   0  0  0  0  0  0  0  0  0  0  0  0
   -6.7241    6.3482   28.5595 F   0  0  0  0  0  0  0  0  0  0  0  0
   -7.9901    7.4069   27.1515 F   0  0  0  0  0  0  0  0  0  0  0  0
   -6.7627   -0.8910   27.8184 C   0  0  0  0  0  0  0  0  0  0  0  0
   -5.5265   -0.7809   28.1308 N   0  0  0  0  0  0  0  0  0  0  0  0
   -4.6741   -0.0380   27.5709 C   0  0  0  0  0  0  0  0  0  0  0  0
   -3.4175   -0.2379   28.0363 C   0  0  0  0  0  0  0  0  0  0  0  0
   -2.2338    0.1021   27.3680 C   0  0  0  0  0  0  0  0  0  0  0  0
   -4.4577   -1.5957   28.8171 C   0  0  0  0  0  0  0  0  0  0  0  0
  7 11  1  0
 11 12  1  0
 11 13  1  0
  4 14  1  0
 14 15  1  0
 15 16  1  0
 16 17  2  0
 17 18  1  0
 15 19  1  0
 17 19  1  0
  2  3  1  0
  3  4  2  0
  4  9  1  0
  9 10  2  0
 10  5  1  0
  1  2  2  0
  2  5  1  0
  5  6  2  0
  6  8  1  0
  8  7  2  0
  7  1  1  0
M  END
$$$$
