No_2677-complexes_sdf/6BKW-FPZ/2024-09-17-14-21-01/
     RDKit          3D

 22 23  0  0  0  0  0  0  0  0999 V2000
   -7.9040    3.9820   27.1177 C   0  0  0  0  0  0  0  0  0  0  0  0
   -9.0711    4.3164   27.0630 C   0  0  0  0  0  0  0  0  0  0  0  0
   -9.9692    3.7224   26.1073 C   0  0  0  0  0  0  0  0  0  0  0  0
   -6.9787    4.6761   28.1003 C   0  0  0  0  0  0  0  0  0  0  0  0
   -9.4538    2.6801   25.3673 C   0  0  0  0  0  0  0  0  0  0  0  0
   -8.1927    2.1957   25.6621 C   0  0  0  0  0  0  0  0  0  0  0  0
   -7.4333    2.8255   26.6299 C   0  0  0  0  0  0  0  0  0  0  0  0
  -10.4516    2.1491   24.4014 C   0  0  0  0  0  0  0  0  0  0  0  0
  -11.0747    2.7694   23.6344 O   0  0  0  0  0  0  0  0  0  0  0  0
  -10.3777    0.8073   24.1787 O   0  0  0  0  0  0  0  0  0  0  0  0
   -7.4939    5.7871   28.6757 N   0  0  0  0  0  0  0  0  0  0  0  0
   -5.8178    4.3128   28.2815 O   0  0  0  0  0  0  0  0  0  0  0  0
  -10.9402    0.2875   23.3542 C   0  0  0  0  0  0  0  0  0  0  0  0
  -11.2251    0.2077   22.3115 C   0  0  0  0  0  0  0  0  0  0  0  0
  -11.9592   -0.7120   21.4767 C   0  0  0  0  0  0  0  0  0  0  0  0
  -12.3216   -1.8368   22.1598 C   0  0  0  0  0  0  0  0  0  0  0  0
  -12.0878   -2.0204   23.4353 C   0  0  0  0  0  0  0  0  0  0  0  0
  -11.3849   -1.1004   24.1500 C   0  0  0  0  0  0  0  0  0  0  0  0
  -13.0046   -2.7318   21.3746 F   0  0  0  0  0  0  0  0  0  0  0  0
  -12.5532   -3.2336   24.1090 C   0  0  0  0  0  0  0  0  0  0  0  0
  -12.4865   -3.4844   25.1093 O   0  0  0  0  0  0  0  0  0  0  0  0
  -13.0975   -4.0420   23.1048 O   0  0  0  0  0  0  0  0  0  0  0  0
  1  4  1  0
  5  8  1  0
  8  9  2  0
  8 10  1  0
  4 11  1  0
  4 12  2  0
 10 13  1  0
 16 19  1  0
 17 20  1  0
 20 21  1  0
 20 22  2  0
 13 14  2  0
 14 15  1  0
 15 16  2  0
 16 17  1  0
 17 18  2  0
 18 13  1  0
  1  2  2  0
  2  3  1  0
  3  5  2  0
  5  6  1  0
  6  7  2  0
  7  1  1  0
M  END
$$$$
