No_2568-complexes_sdf/6BKW-FPZ/2024-09-17-14-21-01/
     RDKit          3D

 34 37  0  0  0  0  0  0  0  0999 V2000
   -7.9040    3.9820   27.1177 C   0  0  0  0  0  0  0  0  0  0  0  0
   -9.0711    4.3164   27.0630 C   0  0  0  0  0  0  0  0  0  0  0  0
   -9.5182    5.5541   27.5777 C   0  0  0  0  0  0  0  0  0  0  0  0
   -7.4468    2.6843   26.6499 C   0  0  0  0  0  0  0  0  0  0  0  0
   -8.3379    1.7605   26.6739 C   0  0  0  0  0  0  0  0  0  0  0  0
   -9.6979    2.0614   26.6619 C   0  0  0  0  0  0  0  0  0  0  0  0
  -10.0499    3.3289   26.9290 C   0  0  0  0  0  0  0  0  0  0  0  0
   -7.8820    0.3610   26.3032 C   0  0  0  0  0  0  0  0  0  0  0  0
   -8.5095   -0.3466   25.5562 C   0  0  0  0  0  0  0  0  0  0  0  0
   -8.5212   -1.6010   25.6176 C   0  0  0  0  0  0  0  0  0  0  0  0
   -6.7475   -0.0967   27.0397 C   0  0  0  0  0  0  0  0  0  0  0  0
   -6.4847   -1.4402   27.0418 C   0  0  0  0  0  0  0  0  0  0  0  0
   -7.3664   -2.2309   26.2658 C   0  0  0  0  0  0  0  0  0  0  0  0
   -8.8435    6.6989   26.8611 C   0  0  0  0  0  0  0  0  0  0  0  0
   -7.4861    6.8580   27.2446 C   0  0  0  0  0  0  0  0  0  0  0  0
   -6.9124    8.0785   26.7718 C   0  0  0  0  0  0  0  0  0  0  0  0
  -11.5206    3.5381   27.1208 C   0  0  0  0  0  0  0  0  0  0  0  0
  -12.0630    3.2394   28.4203 C   0  0  0  0  0  0  0  0  0  0  0  0
  -11.5676    2.3793   29.1389 C   0  0  0  0  0  0  0  0  0  0  0  0
  -13.2600    4.0490   28.8262 C   0  0  0  0  0  0  0  0  0  0  0  0
  -14.4355    3.4686   28.8096 C   0  0  0  0  0  0  0  0  0  0  0  0
  -14.6256    2.2682   28.4576 C   0  0  0  0  0  0  0  0  0  0  0  0
  -14.6909    1.2939   29.5591 C   0  0  0  0  0  0  0  0  0  0  0  0
  -14.5855   -0.0887   29.2796 C   0  0  0  0  0  0  0  0  0  0  0  0
  -14.4478   -0.4725   27.9916 C   0  0  0  0  0  0  0  0  0  0  0  0
  -14.3756    0.4340   26.9399 C   0  0  0  0  0  0  0  0  0  0  0  0
  -14.3732    1.7520   27.2308 C   0  0  0  0  0  0  0  0  0  0  0  0
  -12.0885    4.1344   26.1697 O   0  0  0  0  0  0  0  0  0  0  0  0
  -15.6474    4.2530   29.2400 C   0  0  0  0  0  0  0  0  0  0  0  0
  -15.7654    4.5196   30.5541 C   0  0  0  0  0  0  0  0  0  0  0  0
  -16.8797    5.2994   31.0126 C   0  0  0  0  0  0  0  0  0  0  0  0
  -16.5444    4.6569   28.3190 C   0  0  0  0  0  0  0  0  0  0  0  0
  -17.6722    5.4161   28.7276 C   0  0  0  0  0  0  0  0  0  0  0  0
  -17.7992    5.7744   30.0930 C   0  0  0  0  0  0  0  0  0  0  0  0
  2  3  1  0
  5  8  1  0
  3 14  1  0
 14 15  2  3
 15 16  1  0
  7 17  1  0
 17 18  1  0
 18 19  1  0
 18 20  1  0
 20 21  2  3
 21 22  1  0
 17 28  2  0
 21 29  1  0
  8  9  2  0
  9 10  1  0
 10 13  2  0
 13 12  1  0
 12 11  2  0
 11  8  1  0
  1  2  2  0
  2  7  1  0
  7  6  2  0
  6  5  1  0
  5  4  2  0
  4  1  1  0
 22 23  2  0
 23 24  1  0
 24 25  2  0
 25 26  1  0
 26 27  2  0
 27 22  1  0
 29 30  2  0
 30 31  1  0
 31 34  2  0
 34 33  1  0
 33 32  2  0
 32 29  1  0
M  END
$$$$
