No_2136-complexes_sdf/6BKW-FPZ/2024-09-17-14-21-01/
     RDKit          3D

 22 24  0  0  0  0  0  0  0  0999 V2000
   -7.9040    3.9820   27.1177 C   0  0  1  0  0  0  0  0  0  0  0  0
   -9.0711    4.3164   27.0630 C   0  0  0  0  0  0  0  0  0  0  0  0
   -9.8698    3.9665   25.9495 C   0  0  0  0  0  0  0  0  0  0  0  0
   -7.0332    4.5030   28.2025 C   0  0  0  0  0  0  0  0  0  0  0  0
  -10.9909    4.7237   25.5958 C   0  0  0  0  0  0  0  0  0  0  0  0
   -7.4989    5.5573   28.9524 C   0  0  0  0  0  0  0  0  0  0  0  0
  -11.8373    4.3183   26.1863 C   0  0  0  0  0  0  0  0  0  0  0  0
  -11.5937    4.3609   27.7363 C   0  0  0  0  0  0  0  0  0  0  0  0
  -10.1719    4.1042   28.0401 C   0  0  0  0  0  0  0  0  0  0  0  0
   -5.6639    3.9805   28.1532 C   0  0  1  0  0  0  0  0  0  0  0  0
   -4.7434    4.6561   28.6466 F   0  0  0  0  0  0  0  0  0  0  0  0
   -5.4675    2.6312   27.8848 C   0  0  0  0  0  0  0  0  0  0  0  0
   -4.2274    2.0842   28.0377 N   0  0  0  0  0  0  0  0  0  0  0  0
   -6.4953    1.7198   27.4429 C   0  0  0  0  0  0  0  0  0  0  0  0
   -6.2567    0.3621   27.3018 C   0  0  0  0  0  0  0  0  0  0  0  0
   -7.2861   -0.5068   26.9328 C   0  0  0  0  0  0  0  0  0  0  0  0
   -7.7762    2.3386   27.1518 C   0  0  0  0  0  0  0  0  0  0  0  0
   -7.1046   -1.8664   26.8489 C   0  0  0  0  0  0  0  0  0  0  0  0
   -8.1625   -2.6372   26.4496 C   0  0  0  0  0  0  0  0  0  0  0  0
   -9.2508   -2.0248   26.1849 C   0  0  0  0  0  0  0  0  0  0  0  0
   -9.5691   -0.7039   26.2611 C   0  0  0  0  0  0  0  0  0  0  0  0
   -8.4777    0.1027   26.6655 C   0  0  0  0  0  0  0  0  0  0  0  0
  1  2  1  1
  1  4  1  0
  4  6  2  0
  4 10  1  0
 10 11  1  1
 10 12  1  0
 12 13  2  0
 12 14  1  0
 14 15  2  3
 15 16  1  0
  1 17  1  0
 14 17  1  0
  2  3  2  0
  3  5  1  0
  5  7  2  0
  7  8  1  0
  8  9  2  0
  9  2  1  0
 16 18  2  0
 18 19  1  0
 19 20  2  0
 20 21  1  0
 21 22  2  0
 22 16  1  0
M  END
$$$$
