No_2884-complexes_sdf/6BKW-FPZ/2024-09-17-14-21-01/
     RDKit          3D

 40 44  0  0  0  0  0  0  0  0999 V2000
   -7.9040    3.9820   27.1177 C   0  0  0  0  0  0  0  0  0  0  0  0
   -9.0711    4.3164   27.0630 C   0  0  0  0  0  0  0  0  0  0  0  0
   -9.5294    5.4517   27.7215 C   0  0  0  0  0  0  0  0  0  0  0  0
   -6.9328    4.7309   27.8881 C   0  0  0  0  0  0  0  0  0  0  0  0
   -7.3377    5.8421   28.5537 C   0  0  0  0  0  0  0  0  0  0  0  0
   -8.6411    6.2609   28.3972 C   0  0  0  0  0  0  0  0  0  0  0  0
  -10.0467    3.4917   26.2630 C   0  0  0  0  0  0  0  0  0  0  0  0
   -9.5472    2.5898   25.4413 C   0  0  0  0  0  0  0  0  0  0  0  0
  -10.4174    1.8980   24.6013 C   0  0  0  0  0  0  0  0  0  0  0  0
  -11.7396    2.2647   24.5006 C   0  0  0  0  0  0  0  0  0  0  0  0
  -11.4034    3.8066   25.9985 C   0  0  0  0  0  0  0  0  0  0  0  0
  -12.2164    3.2578   25.2483 C   0  0  0  0  0  0  0  0  0  0  0  0
   -9.8728    0.7624   23.7446 C   0  0  0  0  0  0  0  0  0  0  0  0
   -9.1305   -0.1583   24.0852 C   0  0  0  0  0  0  0  0  0  0  0  0
   -8.5817   -1.1204   23.1575 C   0  0  0  0  0  0  0  0  0  0  0  0
   -8.9365   -1.0328   21.7915 C   0  0  0  0  0  0  0  0  0  0  0  0
  -10.1050    0.8990   22.2866 C   0  0  0  0  0  0  0  0  0  0  0  0
   -9.6408    0.0338   21.4103 C   0  0  0  0  0  0  0  0  0  0  0  0
   -8.4179   -2.0100   20.8369 C   0  0  0  0  0  0  0  0  0  0  0  0
   -7.1165   -2.4707   20.9846 C   0  0  0  0  0  0  0  0  0  0  0  0
   -6.5857   -2.5610   22.3408 C   0  0  0  0  0  0  0  0  0  0  0  0
   -7.1860   -1.7053   23.3589 C   0  0  0  0  0  0  0  0  0  0  0  0
   -6.5606   -1.7091   24.7194 C   0  0  0  0  0  0  0  0  0  0  0  0
   -5.5665   -1.3606   24.7971 O   0  0  0  0  0  0  0  0  0  0  0  0
   -7.3572   -2.0974   25.6462 O   0  0  0  0  0  0  0  0  0  0  0  0
   -5.6804    4.2114   28.0409 O   0  0  0  0  0  0  0  0  0  0  0  0
   -9.0498   -2.1248   19.5432 C   0  0  0  0  0  0  0  0  0  0  0  0
   -9.5462   -3.1953   19.4267 O   0  0  0  0  0  0  0  0  0  0  0  0
   -9.1657   -1.1276   18.7742 O   0  0  0  0  0  0  0  0  0  0  0  0
  -13.6390    3.6592   25.1539 C   0  0  0  0  0  0  0  0  0  0  0  0
  -13.9078    4.4340   24.1496 F   0  0  0  0  0  0  0  0  0  0  0  0
  -14.0203    4.3731   26.2735 F   0  0  0  0  0  0  0  0  0  0  0  0
  -14.4614    2.6102   25.1170 F   0  0  0  0  0  0  0  0  0  0  0  0
   -7.1158   -1.6853   26.9178 C   0  0  0  0  0  0  0  0  0  0  0  0
   -8.2049   -1.5508   27.8407 C   0  0  0  0  0  0  0  0  0  0  0  0
   -8.3077   -2.3364   28.9519 C   0  0  0  0  0  0  0  0  0  0  0  0
   -9.1917   -0.5194   27.5860 C   0  0  0  0  0  0  0  0  0  0  0  0
  -10.3876   -0.4298   28.3356 C   0  0  0  0  0  0  0  0  0  0  0  0
   -9.5736   -2.2571   29.7223 C   0  0  0  0  0  0  0  0  0  0  0  0
  -10.5314   -1.2960   29.4036 C   0  0  0  0  0  0  0  0  0  0  0  0
  2  7  1  0
  9 13  1  0
 22 23  1  0
 23 24  2  0
 23 25  1  0
  4 26  1  0
 19 27  1  0
 27 28  2  0
 27 29  1  0
 12 30  1  0
 30 31  1  0
 30 32  1  0
 30 33  1  0
 25 34  1  0
 34 35  1  0
  1  2  2  0
  2  3  1  0
  3  6  2  0
  6  5  1  0
  5  4  2  0
  4  1  1  0
 35 36  2  0
 36 39  1  0
 39 40  2  0
 40 38  1  0
 38 37  2  0
 37 35  1  0
 13 14  2  0
 14 15  1  0
 16 18  1  0
 18 17  2  0
 17 13  1  0
  7  8  2  0
  8  9  1  0
  9 10  2  0
 10 12  1  0
 12 11  2  0
 11  7  1  0
 15 16  2  0
 16 19  1  0
 19 20  2  0
 20 21  1  0
 21 22  2  0
 22 15  1  0
M  END
$$$$
