No_2432-complexes_sdf/6BKW-FPZ/2024-09-17-14-21-01/
     RDKit          3D

 40 45  0  0  0  0  0  0  0  0999 V2000
   -7.2496    3.8871   27.4508 C   0  0  0  0  0  0  0  0  0  0  0  0
   -7.9379    4.9063   27.8518 C   0  0  0  0  0  0  0  0  0  0  0  0
   -9.3376    4.8647   27.7795 C   0  0  0  0  0  0  0  0  0  0  0  0
   -7.8544    2.6294   27.0414 C   0  0  0  0  0  0  0  0  0  0  0  0
   -9.2665    2.6175   27.0340 C   0  0  0  0  0  0  0  0  0  0  0  0
   -9.9836    3.7042   27.4150 C   0  0  0  0  0  0  0  0  0  0  0  0
   -7.1318    1.5767   26.7774 N   0  0  0  0  0  0  0  0  0  0  0  0
   -6.1720    1.1200   27.6503 C   0  0  0  0  0  0  0  0  0  0  0  0
   -5.4504   -0.0857   27.4036 C   0  0  0  0  0  0  0  0  0  0  0  0
   -7.5612    0.6149   25.9136 C   0  0  0  0  0  0  0  0  0  0  0  0
   -4.3214   -0.3114   28.2430 C   0  0  0  0  0  0  0  0  0  0  0  0
   -3.6798   -1.5614   28.2152 C   0  0  0  0  0  0  0  0  0  0  0  0
   -4.1433   -2.4568   27.2074 C   0  0  0  0  0  0  0  0  0  0  0  0
   -5.2249   -2.1687   26.4221 C   0  0  0  0  0  0  0  0  0  0  0  0
   -5.9188   -0.9666   26.5466 C   0  0  0  0  0  0  0  0  0  0  0  0
   -6.8931   -0.6002   25.6832 C   0  0  0  0  0  0  0  0  0  0  0  0
  -11.4649    3.6480   27.4414 C   0  0  2  0  0  0  0  0  0  0  0  0
  -11.9939    2.9213   28.4188 C   0  0  0  0  0  0  0  0  0  0  0  0
  -13.3528    2.9563   28.8406 C   0  0  0  0  0  0  0  0  0  0  0  0
  -13.8465    2.1891   29.9103 C   0  0  0  0  0  0  0  0  0  0  0  0
  -14.7394    2.6046   30.7460 C   0  0  0  0  0  0  0  0  0  0  0  0
  -15.5470    3.7282   30.3550 C   0  0  0  0  0  0  0  0  0  0  0  0
  -15.1375    4.5279   29.3147 C   0  0  0  0  0  0  0  0  0  0  0  0
  -13.9643    4.1884   28.6334 C   0  0  0  0  0  0  0  0  0  0  0  0
   -7.3144    6.0916   28.2258 N   0  0  0  0  0  0  0  0  0  0  0  0
   -3.8375    0.6731   29.3193 C   0  0  0  0  0  0  0  0  0  0  0  0
  -12.0557    3.3710   26.0663 C   0  0  0  0  0  0  0  0  0  0  0  0
  -12.0867    4.1935   25.1648 C   0  0  0  0  0  0  0  0  0  0  0  0
  -12.5167    3.8876   23.8412 C   0  0  0  0  0  0  0  0  0  0  0  0
  -13.0088    2.6938   23.5690 C   0  0  0  0  0  0  0  0  0  0  0  0
  -13.0532    1.7533   24.5964 C   0  0  0  0  0  0  0  0  0  0  0  0
  -12.5518    2.0640   25.8592 C   0  0  0  0  0  0  0  0  0  0  0  0
   -3.2169    0.2163   30.3443 O   0  0  0  0  0  0  0  0  0  0  0  0
   -4.1784    1.9133   29.1971 O   0  0  0  0  0  0  0  0  0  0  0  0
  -13.5967    0.4155   24.3252 C   0  0  0  0  0  0  0  0  0  0  0  0
  -13.4584   -0.5917   25.1526 C   0  0  0  0  0  0  0  0  0  0  0  0
  -14.3725    0.2033   23.1769 C   0  0  0  0  0  0  0  0  0  0  0  0
  -14.8971   -0.9398   22.9610 C   0  0  0  0  0  0  0  0  0  0  0  0
  -13.8765   -1.5540   24.9939 C   0  0  0  0  0  0  0  0  0  0  0  0
  -14.6659   -1.9641   23.9183 C   0  0  0  0  0  0  0  0  0  0  0  0
  4  7  1  0
  7  8  1  0
  7 10  1  0
 15 16  1  0
  6 17  1  0
 17 18  1  1
  2 25  1  0
 11 26  1  0
 17 27  1  0
 26 33  2  0
 26 34  1  0
 31 35  1  0
 18 19  1  0
  8  9  1  0
 16 10  1  0
  1  2  2  0
  2  3  1  0
  3  6  2  0
  6  5  1  0
  5  4  2  0
  4  1  1  0
 19 20  2  0
 20 21  1  0
 21 22  2  0
 22 23  1  0
 23 24  2  0
 24 19  1  0
  9 11  2  0
 11 12  1  0
 12 13  2  0
 13 14  1  0
 14 15  2  0
 15  9  1  0
 35 36  2  0
 36 39  1  0
 39 40  2  0
 40 38  1  0
 38 37  2  0
 37 35  1  0
 27 28  2  0
 28 29  1  0
 29 30  2  0
 30 31  1  0
 31 32  2  0
 32 27  1  0
M  END
$$$$
