No_295-complexes_sdf/6BKW-FPZ/2024-09-17-14-21-01/
     RDKit          3D

 29 32  0  0  0  0  0  0  0  0999 V2000
   -7.9040    3.9820   27.1177 C   0  0  0  0  0  0  0  0  0  0  0  0
   -9.0711    4.3164   27.0630 C   0  0  0  0  0  0  0  0  0  0  0  0
   -9.5294    5.4517   27.7215 C   0  0  0  0  0  0  0  0  0  0  0  0
   -6.9328    4.7309   27.8881 C   0  0  0  0  0  0  0  0  0  0  0  0
   -7.3666    5.8455   28.5488 C   0  0  0  0  0  0  0  0  0  0  0  0
   -8.6669    6.2428   28.4199 C   0  0  0  0  0  0  0  0  0  0  0  0
  -10.0479    3.5083   26.2510 C   0  0  0  0  0  0  0  0  0  0  0  0
   -9.7487    3.3855   24.9113 C   0  0  0  0  0  0  0  0  0  0  0  0
  -10.5142    2.6814   23.9902 C   0  0  0  0  0  0  0  0  0  0  0  0
  -10.0863    2.5888   22.6429 C   0  0  0  0  0  0  0  0  0  0  0  0
  -10.0687    2.6505   21.5503 C   0  0  0  0  0  0  0  0  0  0  0  0
  -11.1953    2.9734   26.7698 C   0  0  0  0  0  0  0  0  0  0  0  0
  -12.0557    2.2929   25.8306 C   0  0  0  0  0  0  0  0  0  0  0  0
  -11.7008    2.1806   24.4609 C   0  0  0  0  0  0  0  0  0  0  0  0
   -9.9694    2.8242   20.1218 C   0  0  0  0  0  0  0  0  0  0  0  0
  -10.1944    3.2466   18.9629 N   0  0  0  0  0  0  0  0  0  0  0  0
  -11.6038    3.1766   28.1394 C   0  0  0  0  0  0  0  0  0  0  0  0
  -12.4105    2.3144   28.7706 C   0  0  0  0  0  0  0  0  0  0  0  0
  -12.8095    1.1054   28.1698 C   0  0  0  0  0  0  0  0  0  0  0  0
  -12.9082    1.2501   26.6266 C   0  0  0  0  0  0  0  0  0  0  0  0
  -13.5697    0.2282   25.8612 C   0  0  2  0  0  0  0  0  0  0  0  0
  -14.8632    0.5278   25.5174 C   0  0  0  0  0  0  0  0  0  0  0  0
  -15.6404    1.3421   25.9991 C   0  0  0  0  0  0  0  0  0  0  0  0
  -16.5848    1.8840   25.9083 C   0  0  0  0  0  0  0  0  0  0  0  0
  -17.4278    1.7391   24.7484 C   0  0  0  0  0  0  0  0  0  0  0  0
  -16.8535    0.7013   23.9121 C   0  0  0  0  0  0  0  0  0  0  0  0
  -15.5198    0.1676   24.1819 C   0  0  0  0  0  0  0  0  0  0  0  0
  -12.9984   -0.9960   25.5621 C   0  0  0  0  0  0  0  0  0  0  0  0
  -12.3675   -1.1355   24.5241 O   0  0  0  0  0  0  0  0  0  0  0  0
  2  7  1  0
 10 11  1  0
 11 15  2  3
 15 16  1  0
 20 21  1  0
 21 22  1  0
 21 28  1  1
 28 29  2  0
 10  9  1  0
  7  8  2  0
  8  9  1  0
  9 14  2  0
 14 13  1  0
 12  7  1  0
  1  2  2  0
  2  3  1  0
  3  6  2  0
  6  5  1  0
  5  4  2  0
  4  1  1  0
 22 23  2  0
 23 24  1  0
 24 25  2  0
 25 26  1  0
 26 27  2  0
 27 22  1  0
 12 13  2  0
 13 20  1  0
 20 19  2  0
 19 18  1  0
 18 17  2  0
 17 12  1  0
M  END
$$$$
