No_2640-complexes_sdf/6BKW-FPZ/2024-09-17-14-21-01/
     RDKit          3D

 18 21  0  0  0  0  0  0  0  0999 V2000
   -7.9040    3.9820   27.1177 C   0  0  0  0  0  0  0  0  0  0  0  0
   -7.8663    4.8694   27.9238 C   0  0  0  0  0  0  0  0  0  0  0  0
   -9.0501    3.8017   26.2617 C   0  0  0  0  0  0  0  0  0  0  0  0
  -10.0189    4.7608   26.3707 C   0  0  0  0  0  0  0  0  0  0  0  0
   -8.6973    5.9722   27.8968 C   0  0  0  0  0  0  0  0  0  0  0  0
   -9.8216    5.8946   27.1241 C   0  0  0  0  0  0  0  0  0  0  0  0
   -9.1445    2.6271   25.4265 C   0  0  0  0  0  0  0  0  0  0  0  0
   -8.6427    1.4143   25.8470 C   0  0  0  0  0  0  0  0  0  0  0  0
   -8.0876    1.3390   27.2037 C   0  0  0  0  0  0  0  0  0  0  0  0
   -7.3972    2.6149   27.6326 C   0  0  0  0  0  0  0  0  0  0  0  0
   -9.9872    2.6999   24.2597 C   0  0  0  0  0  0  0  0  0  0  0  0
  -10.6713    3.8084   23.9048 C   0  0  0  0  0  0  0  0  0  0  0  0
  -10.8027    4.8384   25.0643 C   0  0  0  0  0  0  0  0  0  0  0  0
   -8.7452    0.2018   25.1223 C   0  0  0  0  0  0  0  0  0  0  0  0
   -9.2247   -0.8265   25.6776 C   0  0  0  0  0  0  0  0  0  0  0  0
   -9.4614   -1.0997   26.7443 C   0  0  0  0  0  0  0  0  0  0  0  0
   -8.9076   -0.5842   28.1031 C   0  0  0  0  0  0  0  0  0  0  0  0
   -8.1037    0.3582   28.1346 C   0  0  0  0  0  0  0  0  0  0  0  0
  1  2  2  0
  1  3  1  0
  3  4  2  0
  2  5  1  0
  4  6  1  0
  5  6  1  0
  3  7  1  0
  7  8  2  0
  8  9  1  0
  1 10  1  0
  9 10  1  0
  7 11  1  0
 11 12  2  0
  4 13  1  0
 12 13  1  0
  8 14  1  0
 14 15  1  0
 15 16  2  0
 16 17  1  0
  9 18  1  0
 17 18  2  0
M  END
$$$$
