No_2806-complexes_sdf/6BKW-FPZ/2024-09-17-14-21-01/
     RDKit          3D

 31 35  0  0  0  0  0  0  0  0999 V2000
   -7.9040    3.9820   27.1177 C   0  0  0  0  0  0  0  0  0  0  0  0
   -7.8663    4.8694   27.9238 C   0  0  0  0  0  0  0  0  0  0  0  0
   -9.0491    3.8523   26.2542 C   0  0  0  0  0  0  0  0  0  0  0  0
   -8.7661    5.9491   27.9690 C   0  0  0  0  0  0  0  0  0  0  0  0
   -9.1715    2.7136   25.4037 C   0  0  0  0  0  0  0  0  0  0  0  0
   -9.8832    5.8611   27.1405 C   0  0  0  0  0  0  0  0  0  0  0  0
  -10.0016    4.7998   26.3324 C   0  0  0  0  0  0  0  0  0  0  0  0
   -8.6322    1.5600   25.7340 N   0  0  0  0  0  0  0  0  0  0  0  0
   -8.5592    0.5045   24.9006 C   0  0  0  0  0  0  0  0  0  0  0  0
   -9.7519    2.8341   24.2954 O   0  0  0  0  0  0  0  0  0  0  0  0
   -8.9803   -0.7370   25.4431 C   0  0  2  0  0  0  0  0  0  0  0  0
   -9.2978   -0.7215   26.7556 C   0  0  0  0  0  0  0  0  0  0  0  0
   -9.6166   -1.7727   27.4696 C   0  0  0  0  0  0  0  0  0  0  0  0
   -9.9054   -1.6462   28.8794 C   0  0  0  0  0  0  0  0  0  0  0  0
  -10.4085   -0.3778   29.2444 C   0  0  0  0  0  0  0  0  0  0  0  0
  -10.3234    0.7546   28.4313 C   0  0  0  0  0  0  0  0  0  0  0  0
   -9.7834    0.6221   27.1887 C   0  0  0  0  0  0  0  0  0  0  0  0
   -8.4151    1.3777   27.0469 C   0  0  0  0  0  0  0  0  0  0  0  0
   -8.8760   -1.9275   24.7079 C   0  0  0  0  0  0  0  0  0  0  0  0
   -9.9581   -2.3907   24.1405 C   0  0  0  0  0  0  0  0  0  0  0  0
  -10.9685   -1.7735   23.7649 C   0  0  0  0  0  0  0  0  0  0  0  0
  -12.1774   -2.2968   23.2115 C   0  0  0  0  0  0  0  0  0  0  0  0
  -10.0353   -3.8525   23.8383 C   0  0  0  0  0  0  0  0  0  0  0  0
  -11.1490   -4.4146   23.2496 C   0  0  0  0  0  0  0  0  0  0  0  0
  -12.2210   -3.6001   22.9271 C   0  0  0  0  0  0  0  0  0  0  0  0
   -7.5620   -2.5072   24.5154 C   0  0  0  0  0  0  0  0  0  0  0  0
   -6.9342   -3.2151   25.0416 C   0  0  0  0  0  0  0  0  0  0  0  0
   -7.0713   -2.1288   23.1210 C   0  0  0  0  0  0  0  0  0  0  0  0
   -5.6209   -3.7048   24.8299 C   0  0  0  0  0  0  0  0  0  0  0  0
   -5.7226   -2.5576   22.7541 C   0  0  0  0  0  0  0  0  0  0  0  0
   -5.0505   -3.3546   23.5977 C   0  0  0  0  0  0  0  0  0  0  0  0
  3  5  1  0
  5  8  1  0
  8  9  1  0
  5 10  2  0
  9 11  1  0
 11 12  1  0
  8 18  1  0
 17 18  1  0
 11 19  1  1
 19 20  1  0
 19 26  1  0
 12 13  2  0
 13 14  1  0
 14 15  2  0
 15 16  1  0
 16 17  2  0
 17 12  1  0
 20 21  2  0
 21 22  1  0
 22 25  2  0
 25 24  1  0
 24 23  2  0
 23 20  1  0
  1  2  2  0
  2  4  1  0
  4  6  2  0
  6  7  1  0
  7  3  2  0
  3  1  1  0
 26 27  2  0
 27 29  1  0
 29 31  2  0
 31 30  1  0
 30 28  2  0
 28 26  1  0
M  END
$$$$
