No_2668-complexes_sdf/6BKW-FPZ/2024-09-17-14-21-01/
     RDKit          3D

 27 30  0  0  0  0  0  0  0  0999 V2000
   -7.7129    4.2099   27.0854 C   0  0  0  0  0  0  0  0  0  0  0  0
   -7.7814    5.1722   27.8972 C   0  0  0  0  0  0  0  0  0  0  0  0
   -8.8998    3.8713   26.3707 C   0  0  0  0  0  0  0  0  0  0  0  0
   -8.9563    2.6796   25.5490 C   0  0  0  0  0  0  0  0  0  0  0  0
   -8.8131    6.1334   27.9344 C   0  0  0  0  0  0  0  0  0  0  0  0
   -9.9804    5.8121   27.1929 C   0  0  0  0  0  0  0  0  0  0  0  0
   -9.9861    4.6836   26.4532 C   0  0  0  0  0  0  0  0  0  0  0  0
   -9.7283    1.8430   25.8434 N   0  0  0  0  0  0  0  0  0  0  0  0
  -10.5407    1.6003   26.4315 C   0  0  1  0  0  0  0  0  0  0  0  0
  -10.5837    1.1492   27.6091 C   0  0  0  0  0  0  0  0  0  0  0  0
  -11.7040    0.9675   28.5624 C   0  0  0  0  0  0  0  0  0  0  0  0
  -12.9412    1.2722   28.0163 C   0  0  0  0  0  0  0  0  0  0  0  0
  -13.0716    1.7093   26.7521 C   0  0  0  0  0  0  0  0  0  0  0  0
  -11.9845    1.9439   25.9969 C   0  0  2  0  0  0  0  0  0  0  0  0
   -9.3773    0.5181   24.9512 C   0  0  0  0  0  0  0  0  0  0  0  0
   -9.4797    0.7376   23.5978 C   0  0  0  0  0  0  0  0  0  0  0  0
   -9.0051   -0.1748   22.7871 C   0  0  0  0  0  0  0  0  0  0  0  0
   -8.3851   -1.3413   23.2479 C   0  0  0  0  0  0  0  0  0  0  0  0
   -8.2987   -1.4879   24.6315 C   0  0  0  0  0  0  0  0  0  0  0  0
   -8.6973   -0.5330   25.5016 C   0  0  0  0  0  0  0  0  0  0  0  0
  -12.1825    2.4194   24.6062 C   0  0  0  0  0  0  0  0  0  0  0  0
  -11.7300    3.5402   24.2952 C   0  0  0  0  0  0  0  0  0  0  0  0
  -11.9572    4.1209   22.9680 C   0  0  0  0  0  0  0  0  0  0  0  0
  -12.7819    1.5477   23.7169 C   0  0  0  0  0  0  0  0  0  0  0  0
  -13.0726    2.0536   22.4440 C   0  0  0  0  0  0  0  0  0  0  0  0
  -12.6224    3.3109   22.0809 C   0  0  0  0  0  0  0  0  0  0  0  0
  -14.2569    2.0133   26.3199 O   0  0  0  0  0  0  0  0  0  0  0  0
  3  4  1  0
  4  8  1  0
  9  8  1  1
 10 11  1  0
 12 13  1  0
  9 14  1  0
 13 14  1  0
  8 15  1  0
 14 21  1  6
 13 27  2  0
 12 11  1  0
 10  9  1  0
 15 16  2  0
 16 17  1  0
 17 18  2  0
 18 19  1  0
 19 20  2  0
 20 15  1  0
 21 22  2  0
 22 23  1  0
 23 26  2  0
 26 25  1  0
 25 24  2  0
 24 21  1  0
  1  2  2  0
  2  5  1  0
  5  6  2  0
  6  7  1  0
  7  3  2  0
  3  1  1  0
M  END
$$$$
