No_2201-complexes_sdf/6BKW-FPZ/2024-09-17-14-21-01/
     RDKit          3D

 19 21  0  0  0  0  0  0  0  0999 V2000
   -7.9040    3.9820   27.1177 C   0  0  0  0  0  0  0  0  0  0  0  0
   -8.2057    2.8231   26.8733 C   0  0  0  0  0  0  0  0  0  0  0  0
   -7.0130    4.3706   28.1140 C   0  0  0  0  0  0  0  0  0  0  0  0
   -7.4093    1.7370   27.3857 C   0  0  0  0  0  0  0  0  0  0  0  0
   -6.1712    2.1248   28.0064 C   0  0  0  0  0  0  0  0  0  0  0  0
   -5.9514    3.4407   28.3034 C   0  0  0  0  0  0  0  0  0  0  0  0
   -8.9085    5.0926   26.7182 C   0  0  0  0  0  0  0  0  0  0  0  0
   -9.5320    4.9761   25.4502 C   0  0  0  0  0  0  0  0  0  0  0  0
   -5.2418    1.0587   28.3881 C   0  0  0  0  0  0  0  0  0  0  0  0
   -5.5361   -0.2904   28.3901 C   0  0  0  0  0  0  0  0  0  0  0  0
   -6.8454   -0.5590   27.7351 C   0  0  0  0  0  0  0  0  0  0  0  0
   -7.6775    0.3630   27.2510 C   0  0  0  0  0  0  0  0  0  0  0  0
   -9.4123    6.0809   27.5331 C   0  0  0  0  0  0  0  0  0  0  0  0
   -4.6519   -1.2942   28.8071 C   0  0  0  0  0  0  0  0  0  0  0  0
   -4.9864   -2.2148   29.4013 C   0  0  0  0  0  0  0  0  0  0  0  0
   -4.0763   -3.2574   29.9708 C   0  0  0  0  0  0  0  0  0  0  0  0
   -2.7093   -3.0540   29.7564 C   0  0  0  0  0  0  0  0  0  0  0  0
   -3.2188   -0.9487   28.6295 C   0  0  0  0  0  0  0  0  0  0  0  0
   -2.2655   -1.8598   29.0911 C   0  0  0  0  0  0  0  0  0  0  0  0
  1  7  1  0
  7  8  2  0
  7 13  1  0
 10 14  1  0
  1  2  2  0
  2  4  1  0
  5  6  1  0
  6  3  2  0
  3  1  1  0
 14 15  2  0
 15 16  1  0
 16 17  2  0
 17 19  1  0
 19 18  2  0
 18 14  1  0
  4  5  2  0
  5  9  1  0
  9 10  2  0
 10 11  1  0
 11 12  2  0
 12  4  1  0
M  END
$$$$
