No_2421-complexes_sdf/6BKW-FPZ/2024-09-17-14-21-01/
     RDKit          3D

 15 16  0  0  0  0  0  0  0  0999 V2000
   -7.9040    3.9820   27.1177 C   0  0  0  0  0  0  0  0  0  0  0  0
   -7.8663    4.8694   27.9238 C   0  0  0  0  0  0  0  0  0  0  0  0
   -9.0491    3.8523   26.2542 C   0  0  0  0  0  0  0  0  0  0  0  0
   -8.7661    5.9491   27.9690 C   0  0  0  0  0  0  0  0  0  0  0  0
   -9.1715    2.7136   25.4037 C   0  0  0  0  0  0  0  0  0  0  0  0
   -9.8832    5.8611   27.1405 C   0  0  0  0  0  0  0  0  0  0  0  0
  -10.0016    4.7998   26.3324 C   0  0  0  0  0  0  0  0  0  0  0  0
   -8.3458    1.3320   25.6468 Cl  0  0  0  0  0  0  0  0  0  0  0  0
   -9.9559    2.8268   24.1970 C   0  0  0  0  0  0  0  0  0  0  0  0
  -10.7517    3.7599   23.9366 C   0  0  0  0  0  0  0  0  0  0  0  0
  -10.8102    4.9710   25.0030 C   0  0  0  0  0  0  0  0  0  0  0  0
  -11.6463    3.9490   22.8994 C   0  0  0  0  0  0  0  0  0  0  0  0
  -11.2088    3.5532   21.7482 C   0  0  0  0  0  0  0  0  0  0  0  0
   -9.9101    3.5554   21.4858 C   0  0  0  0  0  0  0  0  0  0  0  0
   -9.1746    2.6033   22.2380 C   0  0  0  0  0  0  0  0  0  0  0  0
  5  8  1  0
 10 12  1  0
 12 13  1  0
 13 14  2  3
 14 15  1  0
  1  2  2  0
  2  4  1  0
  4  6  2  0
  6  7  1  0
  3  1  1  0
  3  5  2  0
  5  9  1  0
  9 10  2  0
 10 11  1  0
 11  7  2  0
  7  3  1  0
M  END
$$$$
