No_2873-complexes_sdf/6BKW-FPZ/2024-09-17-14-21-01/
     RDKit          3D

 32 36  0  0  0  0  0  0  0  0999 V2000
   -7.9040    3.9820   27.1177 C   0  0  0  0  0  0  0  0  0  0  0  0
   -8.2057    2.8231   26.8733 C   0  0  0  0  0  0  0  0  0  0  0  0
   -9.2962    2.4021   26.1155 C   0  0  0  0  0  0  0  0  0  0  0  0
   -6.8682    4.5169   28.0704 C   0  0  0  0  0  0  0  0  0  0  0  0
   -9.9626    3.2667   25.7716 C   0  0  0  0  0  0  0  0  0  0  0  0
   -9.7836    4.6878   25.9070 C   0  0  0  0  0  0  0  0  0  0  0  0
   -8.7061    5.0317   26.6249 C   0  0  0  0  0  0  0  0  0  0  0  0
   -8.4781    6.4231   26.9626 C   0  0  0  0  0  0  0  0  0  0  0  0
   -7.3809    6.8067   27.6972 C   0  0  0  0  0  0  0  0  0  0  0  0
   -6.7016    5.8426   28.2953 C   0  0  0  0  0  0  0  0  0  0  0  0
   -7.2724    1.6463   27.4088 C   0  0  0  0  0  0  0  0  0  0  0  0
   -7.6278    0.3006   27.2181 C   0  0  0  0  0  0  0  0  0  0  0  0
   -8.8123    0.0893   26.4741 C   0  0  0  0  0  0  0  0  0  0  0  0
   -9.6138    1.0375   25.9223 C   0  0  0  0  0  0  0  0  0  0  0  0
   -6.8004   -0.6829   27.8144 C   0  0  0  0  0  0  0  0  0  0  0  0
   -7.3148   -1.4909   28.4501 F   0  0  0  0  0  0  0  0  0  0  0  0
   -5.8747   -0.0294   28.6487 F   0  0  0  0  0  0  0  0  0  0  0  0
   -6.0486   -1.2213   26.8215 F   0  0  0  0  0  0  0  0  0  0  0  0
  -11.1988    3.0438   24.7524 C   0  0  0  0  0  0  0  0  0  0  0  0
  -11.0697    3.6121   23.4802 C   0  0  0  0  0  0  0  0  0  0  0  0
  -10.7375    4.7229   23.2357 C   0  0  0  0  0  0  0  0  0  0  0  0
  -11.3653    2.7342   22.4413 C   0  0  0  0  0  0  0  0  0  0  0  0
  -10.6896    5.3076   21.8833 C   0  0  0  0  0  0  0  0  0  0  0  0
  -11.3843    3.1451   21.1203 C   0  0  0  0  0  0  0  0  0  0  0  0
  -11.0069    4.4781   20.8626 C   0  0  0  0  0  0  0  0  0  0  0  0
  -12.4790    3.5375   25.4736 C   0  0  0  0  0  0  0  0  0  0  0  0
  -13.1675    3.0038   26.1262 C   0  0  0  0  0  0  0  0  0  0  0  0
  -14.3423    3.5772   26.7884 C   0  0  0  0  0  0  0  0  0  0  0  0
  -14.7054    4.8756   26.4523 C   0  0  0  0  0  0  0  0  0  0  0  0
  -13.9270    5.5174   25.4485 C   0  0  0  0  0  0  0  0  0  0  0  0
  -12.8538    4.9485   24.9393 C   0  0  0  0  0  0  0  0  0  0  0  0
  -11.5079    1.7420   24.7828 F   0  0  0  0  0  0  0  0  0  0  0  0
 12 15  1  0
 15 16  1  0
 15 17  1  0
 15 18  1  0
  5 19  1  0
 19 20  1  0
 19 26  1  0
 19 32  1  0
  1  2  1  0
  3  5  1  0
  5  6  2  0
  6  7  1  0
 26 27  2  0
 27 28  1  0
 28 29  2  0
 29 30  1  0
 30 31  2  0
 31 26  1  0
 20 21  2  0
 21 23  1  0
 23 25  2  0
 25 24  1  0
 24 22  2  0
 22 20  1  0
  2  3  2  0
  3 14  1  0
 14 13  2  0
 13 12  1  0
 12 11  2  0
 11  2  1  0
  1  4  2  0
  4 10  1  0
 10  9  2  0
  9  8  1  0
  8  7  2  0
  7  1  1  0
M  END
$$$$
