No_2104-complexes_sdf/6BKW-FPZ/2024-09-17-14-21-01/
     RDKit          3D

 23 24  0  0  0  0  0  0  0  0999 V2000
   -7.2496    3.8871   27.4508 C   0  0  0  0  0  0  0  0  0  0  0  0
   -7.9379    4.9063   27.8518 C   0  0  0  0  0  0  0  0  0  0  0  0
   -8.7729    5.5444   27.0168 C   0  0  0  0  0  0  0  0  0  0  0  0
   -7.7708    3.0049   26.4155 C   0  0  0  0  0  0  0  0  0  0  0  0
   -9.3916    4.8208   25.9624 C   0  0  0  0  0  0  0  0  0  0  0  0
   -8.8052    3.5944   25.6431 C   0  0  0  0  0  0  0  0  0  0  0  0
   -9.3371    2.9709   24.6303 F   0  0  0  0  0  0  0  0  0  0  0  0
   -7.3992    5.6885   28.8043 F   0  0  0  0  0  0  0  0  0  0  0  0
   -9.2872    6.7855   27.2913 F   0  0  0  0  0  0  0  0  0  0  0  0
   -7.2917    1.7705   26.3573 O   0  0  0  0  0  0  0  0  0  0  0  0
   -7.2022    1.0950   27.4933 C   0  0  0  0  0  0  0  0  0  0  0  0
   -5.8554    0.4729   27.5259 C   0  0  0  0  0  0  0  0  0  0  0  0
   -4.9006    1.1425   27.7518 C   0  0  0  0  0  0  0  0  0  0  0  0
   -3.5240    0.6226   27.9657 C   0  0  0  0  0  0  0  0  0  0  0  0
   -3.3357   -0.7288   27.8899 C   0  0  0  0  0  0  0  0  0  0  0  0
   -5.8069   -0.9714   27.5019 C   0  0  0  0  0  0  0  0  0  0  0  0
   -4.5138   -1.5623   27.6936 C   0  0  0  0  0  0  0  0  0  0  0  0
   -2.0343   -1.2589   28.1218 C   0  0  0  0  0  0  0  0  0  0  0  0
   -1.1587   -1.0764   27.1630 N   0  0  0  0  0  0  0  0  0  0  0  0
   -1.7557   -1.8792   29.1756 O   0  0  0  0  0  0  0  0  0  0  0  0
   -6.9378   -1.7722   27.2709 C   0  0  0  0  0  0  0  0  0  0  0  0
   -7.8879   -2.2143   27.4189 P   0  0  0  0  0  0  0  0  0  0  0  0
   -8.1157   -3.4699   26.9448 O   0  0  0  0  0  0  0  0  0  0  0  0
  6  7  1  0
  2  8  1  0
  3  9  1  0
  4 10  1  0
 10 11  1  0
 11 12  1  0
 15 18  1  0
 18 19  1  0
 18 20  2  0
 16 21  1  0
 21 22  3  0
 22 23  2  0
 12 13  2  0
 13 14  1  0
 14 15  2  0
 15 17  1  0
 17 16  2  0
 16 12  1  0
  1  2  2  0
  2  3  1  0
  3  5  2  0
  5  6  1  0
  6  4  2  0
  4  1  1  0
M  END
$$$$
