No_2852-complexes_sdf/6BKW-FPZ/2024-09-17-14-21-01/
     RDKit          3D

 14 15  0  0  0  0  0  0  0  0999 V2000
   -7.7129    4.2099   27.0854 C   0  0  0  0  0  0  0  0  0  0  0  0
   -7.7814    5.1722   27.8972 C   0  0  0  0  0  0  0  0  0  0  0  0
   -8.8776    3.8408   26.3416 C   0  0  0  0  0  0  0  0  0  0  0  0
   -8.9136    2.6330   25.5655 C   0  0  0  0  0  0  0  0  0  0  0  0
   -8.8361    6.1389   27.9032 C   0  0  0  0  0  0  0  0  0  0  0  0
  -10.0140    4.6007   26.4589 C   0  0  0  0  0  0  0  0  0  0  0  0
  -11.0945    4.2687   25.7155 C   0  0  0  0  0  0  0  0  0  0  0  0
   -9.9716    5.7939   27.1971 C   0  0  0  0  0  0  0  0  0  0  0  0
   -9.9594    2.3386   24.7444 C   0  0  0  0  0  0  0  0  0  0  0  0
  -11.0853    3.2289   24.8138 C   0  0  0  0  0  0  0  0  0  0  0  0
   -9.9307    1.1791   23.9132 C   0  0  0  0  0  0  0  0  0  0  0  0
  -10.0140    1.2997   22.5996 C   0  0  0  0  0  0  0  0  0  0  0  0
  -10.1704    2.4199   21.8939 C   0  0  0  0  0  0  0  0  0  0  0  0
  -10.2573    2.4576   20.4619 C   0  0  0  0  0  0  0  0  0  0  0  0
  9 11  1  0
 11 12  1  0
 12 13  2  3
 13 14  1  0
  1  2  2  0
  2  5  1  0
  5  8  2  0
  8  6  1  0
  3  1  1  0
  3  4  2  0
  4  9  1  0
  9 10  2  0
 10  7  1  0
  7  6  2  0
  6  3  1  0
M  END
$$$$
