No_2022-complexes_sdf/6BKW-FPZ/2024-09-17-14-21-01/
     RDKit          3D

 31 34  0  0  0  0  0  0  0  0999 V2000
   -7.9040    3.9820   27.1177 C   0  0  0  0  0  0  0  0  0  0  0  0
   -8.2057    2.8231   26.8733 C   0  0  0  0  0  0  0  0  0  0  0  0
   -8.7695    5.0740   26.7916 C   0  0  0  0  0  0  0  0  0  0  0  0
   -8.4337    6.4678   27.0913 C   0  0  0  0  0  0  0  0  0  0  0  0
   -9.3742    2.4311   26.2346 C   0  0  0  0  0  0  0  0  0  0  0  0
  -10.2395    3.4267   25.8887 C   0  0  0  0  0  0  0  0  0  0  0  0
   -9.9567    4.7548   26.1374 C   0  0  0  0  0  0  0  0  0  0  0  0
   -7.3352    6.7089   26.8662 F   0  0  0  0  0  0  0  0  0  0  0  0
   -8.8744    6.7143   28.4556 F   0  0  0  0  0  0  0  0  0  0  0  0
   -9.2025    7.3079   26.3054 F   0  0  0  0  0  0  0  0  0  0  0  0
   -7.2355    1.7003   27.3126 C   0  0  0  0  0  0  0  0  0  0  0  0
   -5.9611    1.9911   27.8119 C   0  0  0  0  0  0  0  0  0  0  0  0
   -5.0751    0.9440   28.2032 C   0  0  0  0  0  0  0  0  0  0  0  0
   -5.5060   -0.3513   28.1453 C   0  0  0  0  0  0  0  0  0  0  0  0
   -7.5552    0.3367   27.2922 C   0  0  0  0  0  0  0  0  0  0  0  0
   -4.6459   -1.3760   28.6121 C   0  0  0  0  0  0  0  0  0  0  0  0
   -6.7386   -0.6226   27.7653 C   0  0  0  0  0  0  0  0  0  0  0  0
   -3.5219   -1.1293   29.2804 C   0  0  0  0  0  0  0  0  0  0  0  0
   -2.6295   -2.1482   29.7667 C   0  0  0  0  0  0  0  0  0  0  0  0
   -1.5450   -1.7092   30.5391 C   0  0  0  0  0  0  0  0  0  0  0  0
   -1.4460   -0.4285   31.0026 C   0  0  0  0  0  0  0  0  0  0  0  0
   -2.5686    0.4856   30.7916 C   0  0  0  0  0  0  0  0  0  0  0  0
   -3.4639    0.1682   29.9814 C   0  0  0  0  0  0  0  0  0  0  0  0
   -4.2800    1.1889   29.3835 N   0  0  0  0  0  0  0  0  0  0  0  0
   -4.9481   -2.7325   28.1865 C   0  0  0  0  0  0  0  0  0  0  0  0
   -4.7272   -3.0538   26.8890 C   0  0  0  0  0  0  0  0  0  0  0  0
   -5.4866   -3.6711   29.0874 C   0  0  0  0  0  0  0  0  0  0  0  0
   -5.8270   -3.5678   30.2153 C   0  0  0  0  0  0  0  0  0  0  0  0
   -5.9434   -2.2508   30.9218 C   0  0  0  0  0  0  0  0  0  0  0  0
   -6.4086   -2.1871   32.2979 C   0  0  0  0  0  0  0  0  0  0  0  0
   -6.1459   -1.0786   33.1150 C   0  0  0  0  0  0  0  0  0  0  0  0
  3  4  1  0
  4  8  1  0
  4  9  1  0
  4 10  1  0
  2 11  1  0
 16 25  1  0
 25 26  1  0
 25 27  1  0
 27 28  2  3
 28 29  1  0
 29 30  2  3
 30 31  1  0
 14 16  2  0
 16 18  1  0
 23 24  1  0
 24 13  2  0
 18 19  2  0
 19 20  1  0
 20 21  2  0
 21 22  1  0
 22 23  2  0
 23 18  1  0
  1  2  2  0
  2  5  1  0
  5  6  2  0
  6  7  1  0
  7  3  2  0
  3  1  1  0
 11 12  2  0
 12 13  1  0
 13 14  1  0
 14 17  1  0
 17 15  2  0
 15 11  1  0
M  END
$$$$
