No_2095-complexes_sdf/6BKW-FPZ/2024-09-17-14-21-01/
     RDKit          3D

 27 31  0  0  0  0  0  0  0  0999 V2000
   -7.9040    3.9820   27.1177 C   0  0  0  0  0  0  0  0  0  0  0  0
   -8.2057    2.8231   26.8733 C   0  0  0  0  0  0  0  0  0  0  0  0
   -7.0130    4.3706   28.1140 C   0  0  0  0  0  0  0  0  0  0  0  0
   -9.3829    2.4374   26.1668 C   0  0  0  0  0  0  0  0  0  0  0  0
  -10.0975    3.4171   25.5988 C   0  0  0  0  0  0  0  0  0  0  0  0
   -9.7335    4.7745   25.7705 C   0  0  0  0  0  0  0  0  0  0  0  0
   -8.7317    5.1107   26.5933 C   0  0  0  0  0  0  0  0  0  0  0  0
   -8.6354    6.4981   26.8551 C   0  0  0  0  0  0  0  0  0  0  0  0
   -7.3830    6.9071   27.5048 C   0  0  0  0  0  0  0  0  0  0  0  0
   -6.7582    5.8192   28.2517 C   0  0  0  0  0  0  0  0  0  0  0  0
   -7.2744    1.4896   27.5890 Cl  0  0  0  0  0  0  0  0  0  0  0  0
  -11.1891    3.0729   24.6509 C   0  0  0  0  0  0  0  0  0  0  0  0
  -11.0422    2.1596   23.8679 C   0  0  0  0  0  0  0  0  0  0  0  0
   -9.8998    1.3326   23.8950 C   0  0  0  0  0  0  0  0  0  0  0  0
   -9.2281    1.2073   25.2658 C   0  0  0  0  0  0  0  0  0  0  0  0
  -11.9610    1.8097   22.7434 C   0  0  0  0  0  0  0  0  0  0  0  0
  -11.5873    1.3538   21.6685 C   0  0  0  0  0  0  0  0  0  0  0  0
  -12.4382    1.0907   20.6140 C   0  0  0  0  0  0  0  0  0  0  0  0
  -13.7377    1.4409   20.7033 C   0  0  0  0  0  0  0  0  0  0  0  0
  -14.1594    2.0217   21.8631 C   0  0  0  0  0  0  0  0  0  0  0  0
  -13.2960    2.3047   22.9053 C   0  0  0  0  0  0  0  0  0  0  0  0
   -8.4375    0.1145   25.4929 C   0  0  0  0  0  0  0  0  0  0  0  0
   -7.3948   -0.4120   24.7941 C   0  0  0  0  0  0  0  0  0  0  0  0
   -6.6078   -1.3871   25.2408 C   0  0  0  0  0  0  0  0  0  0  0  0
   -6.8549   -2.0433   26.4243 C   0  0  0  0  0  0  0  0  0  0  0  0
   -7.9367   -1.6187   27.1979 C   0  0  0  0  0  0  0  0  0  0  0  0
   -8.7084   -0.5146   26.7955 C   0  0  0  0  0  0  0  0  0  0  0  0
  2 11  1  0
 13 16  1  0
 15 22  1  0
 22 23  2  0
 23 24  1  0
 24 25  2  0
 25 26  1  0
 26 27  2  0
 27 22  1  0
  1  3  1  0
  3 10  2  0
 10  9  1  0
  9  8  2  0
  8  7  1  0
  5 12  2  0
 12 13  1  0
 13 14  2  0
 14 15  1  0
 15  4  2  0
  1  2  2  0
  2  4  1  0
  4  5  1  0
  5  6  1  0
  6  7  2  0
  7  1  1  0
 16 17  2  0
 17 18  1  0
 18 19  2  0
 19 20  1  0
 20 21  2  0
 21 16  1  0
M  END
$$$$
