No_2122-complexes_sdf/6BKW-FPZ/2024-09-17-14-21-01/
     RDKit          3D

 23 25  0  0  0  0  0  0  0  0999 V2000
   -7.9040    3.9820   27.1177 C   0  0  0  0  0  0  0  0  0  0  0  0
   -8.2057    2.8231   26.8733 C   0  0  0  0  0  0  0  0  0  0  0  0
   -8.7463    4.9537   27.6708 C   0  0  0  0  0  0  0  0  0  0  0  0
  -10.0901    4.5164   28.0293 C   0  0  0  0  0  0  0  0  0  0  0  0
   -9.5729    2.3483   27.2382 C   0  0  0  0  0  0  0  0  0  0  0  0
  -10.4170    3.2421   27.8237 C   0  0  0  0  0  0  0  0  0  0  0  0
   -8.2216    6.5582   27.9441 Cl  0  0  0  0  0  0  0  0  0  0  0  0
   -9.8658    0.9215   27.0071 C   0  0  0  0  0  0  0  0  0  0  0  0
   -8.8273    0.0976   26.9898 C   0  0  0  0  0  0  0  0  0  0  0  0
   -7.8339    0.2580   26.9716 C   0  0  0  0  0  0  0  0  0  0  0  0
   -7.2434    1.7226   26.8510 C   0  0  0  0  0  0  0  0  0  0  0  0
   -6.6060   -0.6724   26.6674 C   0  0  0  0  0  0  0  0  0  0  0  0
   -5.4559   -0.5094   27.3906 C   0  0  0  0  0  0  0  0  0  0  0  0
   -4.3440   -1.3821   27.2068 C   0  0  0  0  0  0  0  0  0  0  0  0
   -4.3910   -2.1958   26.1610 C   0  0  0  0  0  0  0  0  0  0  0  0
   -6.5891   -1.5683   25.6972 C   0  0  0  0  0  0  0  0  0  0  0  0
   -5.4977   -2.3114   25.3616 C   0  0  0  0  0  0  0  0  0  0  0  0
   -3.1192   -1.1712   28.0349 C   0  0  0  0  0  0  0  0  0  0  0  0
   -2.3727   -0.1792   27.8373 C   0  0  0  0  0  0  0  0  0  0  0  0
   -2.8821   -2.1122   29.0788 C   0  0  0  0  0  0  0  0  0  0  0  0
   -3.2808   -1.8891   30.2021 C   0  0  0  0  0  0  0  0  0  0  0  0
   -3.0153   -2.5924   31.2424 C   0  0  0  0  0  0  0  0  0  0  0  0
   -2.2617   -3.7245   31.1299 C   0  0  0  0  0  0  0  0  0  0  0  0
  3  7  1  0
 10 12  1  0
 14 18  1  0
 18 19  1  0
 18 20  1  0
 20 21  1  0
 21 22  2  3
 22 23  1  0
 12 13  2  0
 13 14  1  0
 14 15  2  0
 15 17  1  0
 17 16  2  0
 16 12  1  0
  5  8  1  0
  8  9  2  0
  9 10  1  0
 10 11  2  0
 11  2  1  0
  1  2  2  0
  2  5  1  0
  5  6  2  0
  6  4  1  0
  4  3  2  0
  3  1  1  0
M  END
$$$$
