No_2298-complexes_sdf/6BKW-FPZ/2024-09-17-14-21-01/
     RDKit          3D

 24 27  0  0  0  0  0  0  0  0999 V2000
   -7.9040    3.9820   27.1177 C   0  0  0  0  0  0  0  0  0  0  0  0
   -9.0711    4.3164   27.0630 C   0  0  0  0  0  0  0  0  0  0  0  0
   -9.5182    5.5541   27.5777 C   0  0  0  0  0  0  0  0  0  0  0  0
   -7.4468    2.6843   26.6499 C   0  0  0  0  0  0  0  0  0  0  0  0
   -6.3753    2.0179   27.3532 C   0  0  0  0  0  0  0  0  0  0  0  0
   -6.1238    0.6745   27.2981 C   0  0  0  0  0  0  0  0  0  0  0  0
   -7.0508   -0.0925   26.6068 C   0  0  0  0  0  0  0  0  0  0  0  0
   -8.3952    1.7740   26.2782 C   0  0  0  0  0  0  0  0  0  0  0  0
   -8.2161    0.4671   26.1778 C   0  0  0  0  0  0  0  0  0  0  0  0
   -8.5506    6.5745   27.8319 C   0  0  0  0  0  0  0  0  0  0  0  0
   -7.0594    5.0329   27.6311 C   0  0  0  0  0  0  0  0  0  0  0  0
   -7.3135    6.2167   27.8660 C   0  0  0  0  0  0  0  0  0  0  0  0
   -4.8863    0.1235   27.8859 C   0  0  0  0  0  0  0  0  0  0  0  0
   -4.9403   -0.6113   28.7224 O   0  0  0  0  0  0  0  0  0  0  0  0
   -3.8018    0.9703   27.7586 O   0  0  0  0  0  0  0  0  0  0  0  0
   -9.7075    2.3507   25.8068 C   0  0  0  0  0  0  0  0  0  0  0  0
  -10.0208    3.4586   26.4192 C   0  0  0  0  0  0  0  0  0  0  0  0
  -10.6486    1.4006   25.5036 C   0  0  0  0  0  0  0  0  0  0  0  0
  -10.5681    1.0877   24.0812 C   0  0  0  0  0  0  0  0  0  0  0  0
  -10.5380    2.0951   23.1553 C   0  0  0  0  0  0  0  0  0  0  0  0
  -10.3912    1.8058   21.7425 C   0  0  0  0  0  0  0  0  0  0  0  0
  -10.2330    0.4728   21.3476 C   0  0  0  0  0  0  0  0  0  0  0  0
  -10.2401   -0.5313   22.2524 C   0  0  0  0  0  0  0  0  0  0  0  0
  -10.3897   -0.2465   23.5826 C   0  0  0  0  0  0  0  0  0  0  0  0
  6 13  1  0
 13 14  2  0
 13 15  1  0
 16 18  1  0
 18 19  1  0
  4  5  2  0
  5  6  1  0
  6  7  2  0
  7  9  1  0
  9  8  2  0
  2  3  2  0
  3 10  1  0
 10 12  2  0
 12 11  1  0
 11  1  2  0
 19 20  2  0
 20 21  1  0
 21 22  2  0
 22 23  1  0
 23 24  2  0
 24 19  1  0
  1  2  1  0
  2 17  1  0
 17 16  2  0
 16  8  1  0
  8  4  1  0
  4  1  1  0
M  END
$$$$
