No_2306-complexes_sdf/6BKW-FPZ/2024-09-17-14-21-01/
     RDKit          3D

 23 25  0  0  0  0  0  0  0  0999 V2000
   -7.9040    3.9820   27.1177 C   0  0  0  0  0  0  0  0  0  0  0  0
   -9.0711    4.3164   27.0630 C   0  0  0  0  0  0  0  0  0  0  0  0
   -9.8698    3.9665   25.9495 C   0  0  0  0  0  0  0  0  0  0  0  0
   -6.9515    4.6878   28.0207 C   0  0  0  0  0  0  0  0  0  0  0  0
  -11.1591    3.4833   26.0876 C   0  0  0  0  0  0  0  0  0  0  0  0
  -11.8798    3.8261   27.2705 C   0  0  0  0  0  0  0  0  0  0  0  0
  -11.1448    4.2455   28.4095 C   0  0  0  0  0  0  0  0  0  0  0  0
   -9.8033    4.3975   28.3535 C   0  0  0  0  0  0  0  0  0  0  0  0
   -7.4394    5.7556   28.5889 N   0  0  0  0  0  0  0  0  0  0  0  0
   -5.9834    3.9819   28.5578 N   0  0  0  0  0  0  0  0  0  0  0  0
  -13.3196    3.5760   27.3408 C   0  0  0  0  0  0  0  0  0  0  0  0
  -13.7804    2.7290   27.7773 C   0  0  0  0  0  0  0  0  0  0  0  0
  -15.1726    2.5094   27.9719 C   0  0  0  0  0  0  0  0  0  0  0  0
  -16.0214    3.4849   27.5139 C   0  0  0  0  0  0  0  0  0  0  0  0
  -15.4945    4.6311   26.9305 C   0  0  0  0  0  0  0  0  0  0  0  0
  -14.1011    4.8173   26.8660 C   0  0  0  0  0  0  0  0  0  0  0  0
  -13.0618    1.6551   28.3625 O   0  0  0  0  0  0  0  0  0  0  0  0
  -12.5020    0.6441   27.6804 C   0  0  0  0  0  0  0  0  0  0  0  0
  -12.7250   -0.5693   28.3334 C   0  0  0  0  0  0  0  0  0  0  0  0
  -12.1039   -1.6481   27.7078 C   0  0  0  0  0  0  0  0  0  0  0  0
  -11.3253   -1.4423   26.5585 C   0  0  0  0  0  0  0  0  0  0  0  0
  -11.1243   -0.2377   26.0395 C   0  0  0  0  0  0  0  0  0  0  0  0
  -11.7114    0.8578   26.6436 C   0  0  0  0  0  0  0  0  0  0  0  0
  1  2  1  0
  1  4  1  0
  4  9  2  0
  4 10  1  0
  6 11  1  0
 12 17  1  0
 17 18  1  0
 18 19  2  0
 19 20  1  0
 20 21  2  0
 21 22  1  0
 22 23  2  0
 23 18  1  0
 11 12  1  0
 12 13  2  0
 13 14  1  0
 14 15  2  0
 15 16  1  0
 16 11  2  0
  2  3  2  0
  3  5  1  0
  5  6  2  0
  6  7  1  0
  7  8  2  0
  8  2  1  0
M  END
$$$$
