No_2143-complexes_sdf/6BKW-FPZ/2024-09-17-14-21-01/
     RDKit          3D

 18 19  0  0  0  0  0  0  0  0999 V2000
   -7.7129    4.2099   27.0854 C   0  0  0  0  0  0  0  0  0  0  0  0
   -7.7814    5.1722   27.8972 C   0  0  0  0  0  0  0  0  0  0  0  0
   -8.8998    3.8713   26.3707 C   0  0  0  0  0  0  0  0  0  0  0  0
   -8.9563    2.6796   25.5490 C   0  0  0  0  0  0  0  0  0  0  0  0
   -8.8131    6.1334   27.9344 C   0  0  0  0  0  0  0  0  0  0  0  0
   -9.9804    5.8121   27.1929 C   0  0  0  0  0  0  0  0  0  0  0  0
   -9.9861    4.6836   26.4532 C   0  0  0  0  0  0  0  0  0  0  0  0
   -9.7283    1.8430   25.8434 N   0  0  0  0  0  0  0  0  0  0  0  0
   -9.7813    0.6595   25.3821 C   0  0  0  0  0  0  0  0  0  0  0  0
   -9.0676    0.3039   24.4360 C   0  0  0  0  0  0  0  0  0  0  0  0
  -10.7007   -0.4313   25.8843 C   0  0  0  0  0  0  0  0  0  0  0  0
   -8.3574   -0.8538   24.3311 C   0  0  0  0  0  0  0  0  0  0  0  0
   -7.3168   -1.0035   23.4750 C   0  0  0  0  0  0  0  0  0  0  0  0
   -7.2021   -0.1256   22.3614 C   0  0  0  0  0  0  0  0  0  0  0  0
   -8.0357    0.9379   22.3071 C   0  0  0  0  0  0  0  0  0  0  0  0
   -8.8275    1.2549   23.3306 C   0  0  0  0  0  0  0  0  0  0  0  0
  -10.4907   -0.9710   26.9149 C   0  0  0  0  0  0  0  0  0  0  0  0
  -11.4490   -1.9354   27.5448 C   0  0  0  0  0  0  0  0  0  0  0  0
  3  4  1  0
  4  8  1  0
  8  9  1  0
  9 10  1  0
  9 11  1  0
 11 17  2  3
 17 18  1  0
  1  2  2  0
  2  5  1  0
  5  6  2  0
  6  7  1  0
  7  3  2  0
  3  1  1  0
 10 12  2  0
 12 13  1  0
 13 14  2  0
 14 15  1  0
 15 16  2  0
 16 10  1  0
M  END
$$$$
