No_2392-complexes_sdf/6BKW-FPZ/2024-09-17-14-21-01/
     RDKit          3D

 20 21  0  0  0  0  0  0  0  0999 V2000
   -7.9040    3.9820   27.1177 C   0  0  0  0  0  0  0  0  0  0  0  0
   -9.0711    4.3164   27.0630 C   0  0  0  0  0  0  0  0  0  0  0  0
   -9.5182    5.5541   27.5777 C   0  0  0  0  0  0  0  0  0  0  0  0
   -6.9424    4.7983   27.8424 C   0  0  0  0  0  0  0  0  0  0  0  0
   -7.3526    5.9739   28.3909 C   0  0  0  0  0  0  0  0  0  0  0  0
   -8.5880    6.3425   28.0536 C   0  0  0  0  0  0  0  0  0  0  0  0
  -10.1796    3.5551   26.3230 C   0  0  0  0  0  0  0  0  0  0  0  0
   -9.7108    2.4888   25.6364 C   0  0  0  0  0  0  0  0  0  0  0  0
   -8.9926    1.5535   26.2567 C   0  0  0  0  0  0  0  0  0  0  0  0
   -8.8551    0.2687   25.5771 C   0  0  0  0  0  0  0  0  0  0  0  0
   -9.1535    0.1572   24.2933 C   0  0  0  0  0  0  0  0  0  0  0  0
  -10.1696    2.1268   24.3342 C   0  0  0  0  0  0  0  0  0  0  0  0
  -10.9106    3.2423   23.6475 C   0  0  1  0  0  0  0  0  0  0  0  0
   -9.8433    1.0709   23.6188 C   0  0  0  0  0  0  0  0  0  0  0  0
  -10.2763    4.2283   23.0167 C   0  0  0  0  0  0  0  0  0  0  0  0
  -12.2999    3.0778   23.6677 C   0  0  0  0  0  0  0  0  0  0  0  0
  -12.9303    2.6500   22.9930 C   0  0  0  0  0  0  0  0  0  0  0  0
  -14.4201    2.5724   23.0390 C   0  0  0  0  0  0  0  0  0  0  0  0
  -14.8223    2.7683   24.0407 C   0  0  0  0  0  0  0  0  0  0  0  0
  -14.2632    3.3341   25.2065 C   0  0  0  0  0  0  0  0  0  0  0  0
  2  7  1  0
  7  8  1  0
 12 13  1  0
 13 15  1  6
 13 16  1  0
 16 17  2  3
 17 18  1  0
 18 19  2  3
 19 20  1  0
  8  9  2  0
  9 10  1  0
 10 11  2  0
 11 14  1  0
 14 12  2  0
 12  8  1  0
  1  2  2  0
  2  3  1  0
  3  6  2  0
  6  5  1  0
  5  4  2  0
  4  1  1  0
M  END
$$$$
