No_2255-complexes_sdf/6BKW-FPZ/2024-09-17-14-21-01/
     RDKit          3D

 29 31  0  0  0  0  0  0  0  0999 V2000
   -7.7129    4.2099   27.0854 C   0  0  0  0  0  0  0  0  0  0  0  0
   -8.2112    3.0637   26.9225 C   0  0  0  0  0  0  0  0  0  0  0  0
   -8.5108    5.3904   26.9436 C   0  0  0  0  0  0  0  0  0  0  0  0
   -9.7256    5.1955   26.3518 C   0  0  0  0  0  0  0  0  0  0  0  0
   -9.4995    2.8258   26.4878 C   0  0  0  0  0  0  0  0  0  0  0  0
  -10.2542    3.9691   26.2055 C   0  0  0  0  0  0  0  0  0  0  0  0
   -7.9135    6.7086   27.1885 C   0  0  0  0  0  0  0  0  0  0  0  0
   -7.4198    1.9045   27.2408 N   0  0  0  0  0  0  0  0  0  0  0  0
   -6.1458    2.0376   27.7479 C   0  0  0  0  0  0  0  0  0  0  0  0
   -5.4342    0.7418   28.0352 C   0  0  0  0  0  0  0  0  0  0  0  0
   -6.2270   -0.3290   27.7930 C   0  0  0  0  0  0  0  0  0  0  0  0
   -7.6497    0.5122   27.2219 C   0  0  0  0  0  0  0  0  0  0  0  0
   -4.0841    0.6472   28.5104 C   0  0  0  0  0  0  0  0  0  0  0  0
   -3.9036    0.3102   29.6556 O   0  0  0  0  0  0  0  0  0  0  0  0
   -3.1207    0.8815   27.6715 O   0  0  0  0  0  0  0  0  0  0  0  0
   -8.5969    7.8203   26.8202 N   0  0  0  0  0  0  0  0  0  0  0  0
   -6.8152    6.8020   27.7737 O   0  0  0  0  0  0  0  0  0  0  0  0
   -8.6314   -0.0628   26.9178 F   0  0  0  0  0  0  0  0  0  0  0  0
   -4.3420   -0.3049   30.5856 C   0  0  0  0  0  0  0  0  0  0  0  0
   -3.6172   -1.3624   31.1718 C   0  0  0  0  0  0  0  0  0  0  0  0
   -4.1202   -1.8856   32.2607 C   0  0  0  0  0  0  0  0  0  0  0  0
   -5.2238   -1.8699   32.6126 O   0  0  0  0  0  0  0  0  0  0  0  0
   -3.1909   -2.2866   33.3192 N   0  0  0  0  0  0  0  0  0  0  0  0
   -1.7847   -2.2534   33.2631 C   0  0  0  0  0  0  0  0  0  0  0  0
   -1.1431   -3.2973   33.7373 C   0  0  0  0  0  0  0  0  0  0  0  0
   -1.5441   -4.0415   34.5741 C   0  0  0  0  0  0  0  0  0  0  0  0
   -2.9360   -3.9882   34.8987 C   0  0  0  0  0  0  0  0  0  0  0  0
   -3.6887   -3.5649   33.9332 C   0  0  0  0  0  0  0  0  0  0  0  0
  -11.4462    3.8130   25.6593 F   0  0  0  0  0  0  0  0  0  0  0  0
  3  7  1  0
  2  8  1  0
  8  9  1  0
  9 10  2  0
 10 11  1  0
  8 12  1  0
 11 12  1  0
 10 13  1  0
 13 14  1  0
 13 15  2  0
  7 16  1  0
  7 17  2  0
 12 18  1  0
 14 19  1  0
 19 20  1  0
 20 21  1  0
 21 22  2  0
 21 23  1  0
 23 24  1  0
 25 26  1  0
 23 28  1  0
 27 28  1  0
  6 29  1  0
 24 25  1  0
 26 27  1  0
  1  2  2  0
  2  5  1  0
  5  6  2  0
  6  4  1  0
  4  3  2  0
  3  1  1  0
M  END
$$$$
