No_224-complexes_sdf/6BKW-FPZ/2024-09-17-14-21-01/
     RDKit          3D

 38 42  0  0  0  0  0  0  0  0999 V2000
   -7.7129    4.2099   27.0854 C   0  0  0  0  0  0  0  0  0  0  0  0
   -7.7814    5.1722   27.8972 C   0  0  0  0  0  0  0  0  0  0  0  0
   -8.7889    3.2468   27.2220 C   0  0  2  0  0  0  0  0  0  0  0  0
   -8.5940    1.9755   26.6525 C   0  0  0  0  0  0  0  0  0  0  0  0
   -7.5537    1.2112   27.0910 C   0  0  0  0  0  0  0  0  0  0  0  0
   -8.7993    5.9976   27.8767 C   0  0  0  0  0  0  0  0  0  0  0  0
  -10.1244    5.3658   27.7089 C   0  0  0  0  0  0  0  0  0  0  0  0
  -10.0413    4.0456   27.1100 C   0  0  2  0  0  0  0  0  0  0  0  0
   -9.5035    1.4424   25.7730 C   0  0  0  0  0  0  0  0  0  0  0  0
   -7.3271   -0.0865   26.7170 C   0  0  0  0  0  0  0  0  0  0  0  0
   -9.3371    0.0855   25.3656 C   0  0  0  0  0  0  0  0  0  0  0  0
  -10.2771   -0.4836   24.4086 C   0  0  0  0  0  0  0  0  0  0  0  0
   -8.2903   -0.6247   25.8250 C   0  0  0  0  0  0  0  0  0  0  0  0
  -10.1453   -1.1753   23.6483 O   0  0  0  0  0  0  0  0  0  0  0  0
  -11.6120    0.1278   24.4632 N   0  0  0  0  0  0  0  0  0  0  0  0
  -12.6228   -0.2682   23.6143 C   0  0  0  0  0  0  0  0  0  0  0  0
  -11.3342    3.3457   27.0486 C   0  0  0  0  0  0  0  0  0  0  0  0
  -12.1798    3.1678   28.0686 C   0  0  0  0  0  0  0  0  0  0  0  0
  -13.2189    2.3065   28.0869 C   0  0  0  0  0  0  0  0  0  0  0  0
  -13.4969    1.7066   26.8693 C   0  0  0  0  0  0  0  0  0  0  0  0
  -12.8631    2.0922   25.7145 C   0  0  0  0  0  0  0  0  0  0  0  0
  -11.6908    2.8237   25.7925 C   0  0  0  0  0  0  0  0  0  0  0  0
  -11.5988    3.7658   24.7030 O   0  0  0  0  0  0  0  0  0  0  0  0
   -6.2003   -0.8627   27.1943 C   0  0  0  0  0  0  0  0  0  0  0  0
   -5.7184   -1.6808   26.8187 C   0  0  0  0  0  0  0  0  0  0  0  0
   -4.7143   -2.3556   27.0551 C   0  0  0  0  0  0  0  0  0  0  0  0
   -3.8625   -1.9381   28.1546 C   0  0  0  0  0  0  0  0  0  0  0  0
   -4.3451   -0.7786   28.8510 C   0  0  0  0  0  0  0  0  0  0  0  0
   -5.5274   -0.1659   28.3836 C   0  0  0  0  0  0  0  0  0  0  0  0
   -3.6464   -0.1513   29.9972 C   0  0  0  0  0  0  0  0  0  0  0  0
   -2.8146   -0.8732   30.7171 N   0  0  0  0  0  0  0  0  0  0  0  0
   -2.8181   -0.7291   32.1307 C   0  0  0  0  0  0  0  0  0  0  0  0
   -1.8819   -1.5466   32.8413 C   0  0  0  0  0  0  0  0  0  0  0  0
   -1.2718   -2.4704   32.0557 C   0  0  0  0  0  0  0  0  0  0  0  0
   -1.2882   -2.5836   30.7545 C   0  0  0  0  0  0  0  0  0  0  0  0
   -2.0601   -1.7520   30.0377 C   0  0  0  0  0  0  0  0  0  0  0  0
   -3.9120    1.0951   30.2452 O   0  0  0  0  0  0  0  0  0  0  0  0
  -13.4377    0.6550   23.1950 C   0  0  0  0  0  0  0  0  0  0  0  0
  1  2  1  0
  1  3  1  0
  3  4  1  6
  2  6  1  0
  6  7  1  0
  3  8  1  0
  7  8  1  0
 11 12  1  0
 12 14  2  0
 12 15  1  0
 15 16  1  0
  8 17  1  1
 22 23  1  0
 10 24  1  0
 28 30  1  0
 30 31  1  0
 31 32  1  0
 32 33  1  0
 34 35  1  0
 31 36  1  0
 30 37  2  0
 16 38  1  0
 33 34  1  0
 35 36  1  0
 24 25  2  0
 25 26  1  0
 26 27  2  0
 27 28  1  0
 28 29  2  0
 29 24  1  0
  4  5  2  0
  5 10  1  0
 10 13  2  0
 13 11  1  0
 11  9  2  0
  9  4  1  0
 17 18  2  0
 18 19  1  0
 19 20  2  0
 20 21  1  0
 21 22  2  0
 22 17  1  0
M  END
$$$$
