No_2494-complexes_sdf/6BKW-FPZ/2024-09-17-14-21-01/
     RDKit          3D

 18 19  0  0  0  0  0  0  0  0999 V2000
   -7.9040    3.9820   27.1177 C   0  0  0  0  0  0  0  0  0  0  0  0
   -7.8663    4.8694   27.9238 C   0  0  0  0  0  0  0  0  0  0  0  0
   -9.0491    3.8523   26.2542 C   0  0  0  0  0  0  0  0  0  0  0  0
   -8.7661    5.9491   27.9690 C   0  0  0  0  0  0  0  0  0  0  0  0
   -9.9295    4.8502   26.2323 C   0  0  0  0  0  0  0  0  0  0  0  0
   -9.8077    5.9288   27.0933 C   0  0  0  0  0  0  0  0  0  0  0  0
   -6.8002    2.6256   27.2024 Cl  0  0  0  0  0  0  0  0  0  0  0  0
   -9.1358    2.5242   25.1295 Cl  0  0  0  0  0  0  0  0  0  0  0  0
  -10.8887    4.8498   25.3258 F   0  0  0  0  0  0  0  0  0  0  0  0
   -6.7805    5.0196   28.7947 O   0  0  0  0  0  0  0  0  0  0  0  0
   -5.5620    4.8026   28.3025 C   0  0  0  0  0  0  0  0  0  0  0  0
   -4.7411    5.3325   28.8795 O   0  0  0  0  0  0  0  0  0  0  0  0
   -5.1871    3.7178   27.7572 O   0  0  0  0  0  0  0  0  0  0  0  0
   -5.1248    2.9371   26.9196 C   0  0  2  0  0  0  0  0  0  0  0  0
   -4.6274    1.5907   27.3729 C   0  0  0  0  0  0  0  0  0  0  0  0
   -4.8087    3.0709   25.8761 O   0  0  0  0  0  0  0  0  0  0  0  0
   -3.5883    2.4387   25.5639 C   0  0  0  0  0  0  0  0  0  0  0  0
   -3.4478    1.5684   26.7621 C   0  0  0  0  0  0  0  0  0  0  0  0
  1  7  1  0
  3  8  1  0
  5  9  1  0
  2 10  1  0
 10 11  1  0
 11 12  2  0
 11 13  1  0
 14 13  1  1
 14 15  1  0
 14 16  1  0
 16 17  1  0
 15 18  2  0
 17 18  2  0
  1  2  2  0
  2  4  1  0
  4  6  2  0
  6  5  1  0
  5  3  2  0
  3  1  1  0
M  END
$$$$
