No_2528-complexes_sdf/6BKW-FPZ/2024-09-17-14-21-01/
     RDKit          3D

 37 41  0  0  0  0  0  0  0  0999 V2000
   -7.9040    3.9820   27.1177 C   0  0  0  0  0  0  0  0  0  0  0  0
   -7.8663    4.8694   27.9238 C   0  0  0  0  0  0  0  0  0  0  0  0
   -9.0491    3.8523   26.2542 C   0  0  0  0  0  0  0  0  0  0  0  0
   -8.7661    5.9491   27.9690 C   0  0  0  0  0  0  0  0  0  0  0  0
   -9.9295    4.8502   26.2323 C   0  0  0  0  0  0  0  0  0  0  0  0
   -9.8077    5.9288   27.0933 C   0  0  0  0  0  0  0  0  0  0  0  0
   -7.1473    2.8227   27.0397 N   0  0  0  0  0  0  0  0  0  0  0  0
   -7.6378    1.6642   26.4958 C   0  0  0  0  0  0  0  0  0  0  0  0
   -6.8250    0.4519   26.7391 C   0  0  0  0  0  0  0  0  0  0  0  0
   -8.8391    1.5028   25.9152 C   0  0  0  0  0  0  0  0  0  0  0  0
   -9.4918    2.6431   25.6410 C   0  0  0  0  0  0  0  0  0  0  0  0
   -5.8237    0.5078   27.5430 O   0  0  0  0  0  0  0  0  0  0  0  0
   -4.9316   -0.4607   27.7696 C   0  0  0  0  0  0  0  0  0  0  0  0
   -3.9067   -0.0154   28.5517 C   0  0  0  0  0  0  0  0  0  0  0  0
   -2.7774   -0.8269   28.8875 C   0  0  0  0  0  0  0  0  0  0  0  0
   -2.7747   -2.0602   28.3514 C   0  0  0  0  0  0  0  0  0  0  0  0
   -3.8248   -2.4664   27.5316 C   0  0  0  0  0  0  0  0  0  0  0  0
   -4.8965   -1.6095   27.2269 C   0  0  0  0  0  0  0  0  0  0  0  0
   -3.8692    1.2903   29.1950 O   0  0  0  0  0  0  0  0  0  0  0  0
  -10.6632    2.6277   24.7758 C   0  0  1  0  0  0  0  0  0  0  0  0
  -10.5029    2.0489   23.6154 C   0  0  0  0  0  0  0  0  0  0  0  0
  -10.3438    0.8532   23.4202 C   0  0  0  0  0  0  0  0  0  0  0  0
  -10.4843    2.9244   22.3951 C   0  0  0  0  0  0  0  0  0  0  0  0
  -10.3680    2.4702   21.1194 C   0  0  0  0  0  0  0  0  0  0  0  0
  -10.1914    0.2407   22.0785 C   0  0  0  0  0  0  0  0  0  0  0  0
  -10.1937    1.0957   20.9763 C   0  0  0  0  0  0  0  0  0  0  0  0
  -11.8356    2.1240   25.5645 C   0  0  0  0  0  0  0  0  0  0  0  0
  -11.8030    1.4048   26.5778 C   0  0  0  0  0  0  0  0  0  0  0  0
  -12.9053    0.9495   27.3385 C   0  0  0  0  0  0  0  0  0  0  0  0
  -12.7340    0.2278   28.5421 C   0  0  0  0  0  0  0  0  0  0  0  0
  -11.4100   -0.2309   28.8627 C   0  0  0  0  0  0  0  0  0  0  0  0
  -10.3062    0.1601   28.1597 C   0  0  0  0  0  0  0  0  0  0  0  0
  -10.4471    0.9220   27.1165 C   0  0  0  0  0  0  0  0  0  0  0  0
   -9.3832    1.0905   26.4407 N   0  0  0  0  0  0  0  0  0  0  0  0
   -9.0236   -0.3860   26.5449 C   0  0  0  0  0  0  0  0  0  0  0  0
  -10.2295    1.9513   27.8502 O   0  0  0  0  0  0  0  0  0  0  0  0
   -9.4825   -0.1081   25.8509 N   0  0  0  0  0  0  0  0  0  0  0  0
  8  9  1  0
  9 12  1  0
 12 13  1  0
 14 19  1  0
 11 20  1  0
 20 21  1  0
 20 27  1  1
 10 34  1  0
 34 35  1  0
 33 36  1  0
 35 37  1  0
 27 28  1  0
  3 11  1  0
 11 10  2  0
 10  8  1  0
  8  7  2  0
  7  1  1  0
 21 22  2  0
 22 25  1  0
 25 26  2  0
 26 24  1  0
 24 23  2  0
 23 21  1  0
 28 29  2  0
 29 30  1  0
 30 31  2  0
 31 32  1  0
 32 33  2  0
 33 28  1  0
 13 14  2  0
 14 15  1  0
 15 16  2  0
 16 17  1  0
 17 18  2  0
 18 13  1  0
  1  2  2  0
  2  4  1  0
  4  6  2  0
  6  5  1  0
  5  3  2  0
  3  1  1  0
M  END
$$$$
