No_2131-complexes_sdf/6BKW-FPZ/2024-09-17-14-21-01/
     RDKit          3D

 35 39  0  0  0  0  0  0  0  0999 V2000
   -7.7129    4.2099   27.0854 C   0  0  0  0  0  0  0  0  0  0  0  0
   -8.2112    3.0637   26.9225 C   0  0  0  0  0  0  0  0  0  0  0  0
   -9.4446    2.8304   26.1868 C   0  0  0  0  0  0  0  0  0  0  0  0
   -8.4697    5.3956   26.7238 C   0  0  0  0  0  0  0  0  0  0  0  0
   -9.6172    5.2111   25.9513 C   0  0  0  0  0  0  0  0  0  0  0  0
  -10.0424    3.9782   25.6873 C   0  0  0  0  0  0  0  0  0  0  0  0
   -7.7669    7.0890   27.0870 Br  0  0  0  0  0  0  0  0  0  0  0  0
   -7.4867    1.8429   27.3980 C   0  0  0  0  0  0  0  0  0  0  0  0
   -8.0554    0.6129   27.3145 N   0  0  0  0  0  0  0  0  0  0  0  0
   -6.1829    1.9119   27.7548 N   0  0  0  0  0  0  0  0  0  0  0  0
   -7.1214   -0.2636   27.7755 C   0  0  0  0  0  0  0  0  0  0  0  0
   -5.9217    0.5597   28.0374 C   0  0  0  0  0  0  0  0  0  0  0  0
   -4.5934    0.1174   28.5117 C   0  0  2  0  0  0  0  0  0  0  0  0
   -4.5064   -0.3740   29.6778 C   0  0  0  0  0  0  0  0  0  0  0  0
   -3.8905   -0.7982   30.3728 C   0  0  0  0  0  0  0  0  0  0  0  0
   -3.4983    0.3662   27.6519 C   0  0  0  0  0  0  0  0  0  0  0  0
   -3.0220   -1.1432   31.1814 C   0  0  0  0  0  0  0  0  0  0  0  0
   -2.5376   -1.5789   32.3033 C   0  0  2  0  0  0  0  0  0  0  0  0
   -3.4579    1.2041   26.8536 O   0  0  0  0  0  0  0  0  0  0  0  0
   -2.3896   -0.2539   28.0170 O   0  0  0  0  0  0  0  0  0  0  0  0
   -1.9455   -1.7811   33.4514 C   0  0  0  0  0  0  0  0  0  0  0  0
   -0.7027   -2.1888   33.3392 C   0  0  0  0  0  0  0  0  0  0  0  0
   -0.2355   -2.6932   32.3292 C   0  0  0  0  0  0  0  0  0  0  0  0
   -1.6426   -2.4584   31.7561 N   0  0  0  0  0  0  0  0  0  0  0  0
   -1.8609   -3.1737   30.5277 C   0  0  0  0  0  0  0  0  0  0  0  0
   -1.7279   -0.7899   30.4376 O   0  0  0  0  0  0  0  0  0  0  0  0
   -2.0404   -4.4377   30.7279 C   0  0  0  0  0  0  0  0  0  0  0  0
   -2.2312   -5.2499   29.6931 C   0  0  0  0  0  0  0  0  0  0  0  0
   -2.3939   -4.7195   28.4012 C   0  0  0  0  0  0  0  0  0  0  0  0
   -2.1880   -3.3376   28.2267 C   0  0  0  0  0  0  0  0  0  0  0  0
   -1.8302   -2.5845   29.3531 C   0  0  0  0  0  0  0  0  0  0  0  0
   -1.4809   -1.2673   29.3187 C   0  0  2  0  0  0  0  0  0  0  0  0
   -1.4243   -0.5366   26.9263 C   0  0  0  0  0  0  0  0  0  0  0  0
    0.0215   -1.0277   28.9331 C   0  0  0  0  0  0  0  0  0  0  0  0
   -0.3991   -0.8977   29.6499 Cl  0  0  0  0  0  0  0  0  0  0  0  0
  4  7  1  0
  2  8  1  0
  8  9  2  0
  8 10  1  0
  9 11  1  0
 10 12  1  0
 11 12  2  0
 12 13  1  0
 13 14  1  1
 14 15  3  0
 13 16  1  0
 15 17  1  0
 17 18  1  0
 16 19  2  0
 16 20  1  0
 18 21  1  6
 21 22  1  0
 22 23  2  0
 18 24  1  0
 23 24  1  0
 24 25  1  0
 17 26  1  0
 26 32  1  0
 31 32  1  0
 20 33  1  0
 32 34  1  1
 34 35  1  0
 25 27  2  0
 27 28  1  0
 28 29  2  0
 29 30  1  0
 30 31  2  0
 31 25  1  0
  1  2  2  0
  2  3  1  0
  3  6  2  0
  6  5  1  0
  5  4  2  0
  4  1  1  0
M  END
$$$$
