No_2667-complexes_sdf/6BKW-FPZ/2024-09-17-14-21-01/
     RDKit          3D

 13 14  0  0  0  0  0  0  0  0999 V2000
   -7.2496    3.8871   27.4508 C   0  0  0  0  0  0  0  0  0  0  0  0
   -7.6161    2.7143   27.1523 C   0  0  0  0  0  0  0  0  0  0  0  0
   -8.8302    2.4659   26.5056 C   0  0  0  0  0  0  0  0  0  0  0  0
   -8.1584    5.0090   27.3234 C   0  0  0  0  0  0  0  0  0  0  0  0
   -9.3788    4.7965   26.7695 C   0  0  0  0  0  0  0  0  0  0  0  0
   -9.7028    3.5649   26.3276 C   0  0  0  0  0  0  0  0  0  0  0  0
   -6.5995    1.7837   27.4559 N   0  0  0  0  0  0  0  0  0  0  0  0
   -6.8297    0.4423   27.6285 C   0  0  0  0  0  0  0  0  0  0  0  0
   -7.9411   -0.1954   27.4972 C   0  0  0  0  0  0  0  0  0  0  0  0
   -5.6294   -0.3237   27.9853 C   0  0  0  0  0  0  0  0  0  0  0  0
   -8.0892   -1.5405   27.7756 C   0  0  0  0  0  0  0  0  0  0  0  0
   -5.7514   -1.6485   28.3356 C   0  0  0  0  0  0  0  0  0  0  0  0
   -7.0256   -2.2484   28.2201 C   0  0  0  0  0  0  0  0  0  0  0  0
  2  7  1  0
  7  8  1  0
  8  9  2  0
  9 11  1  0
 11 13  2  0
 13 12  1  0
 12 10  2  0
 10  8  1  0
  1  2  2  0
  2  3  1  0
  3  6  2  0
  6  5  1  0
  5  4  2  0
  4  1  1  0
M  END
$$$$
