No_2942-complexes_sdf/6BKW-FPZ/2024-09-17-14-21-01/
     RDKit          3D

 20 21  0  0  0  0  0  0  0  0999 V2000
   -7.9040    3.9820   27.1177 C   0  0  0  0  0  0  0  0  0  0  0  0
   -9.0711    4.3164   27.0630 C   0  0  0  0  0  0  0  0  0  0  0  0
   -9.8698    3.9665   25.9494 C   0  0  0  0  0  0  0  0  0  0  0  0
   -7.0332    4.5030   28.2025 C   0  0  0  0  0  0  0  0  0  0  0  0
  -10.9909    4.7237   25.5958 C   0  0  0  0  0  0  0  0  0  0  0  0
   -7.5840    5.4918   28.9036 N   0  0  0  0  0  0  0  0  0  0  0  0
  -11.7865    4.4111   26.2861 C   0  0  0  0  0  0  0  0  0  0  0  0
  -11.5074    4.5350   27.8146 C   0  0  0  0  0  0  0  0  0  0  0  0
  -10.0934    4.2240   28.0818 C   0  0  0  0  0  0  0  0  0  0  0  0
   -5.7503    4.1603   28.2173 N   0  0  0  0  0  0  0  0  0  0  0  0
  -13.0655    4.0537   26.2440 C   0  0  0  0  0  0  0  0  0  0  0  0
  -13.5958    3.0016   26.5759 C   0  0  0  0  0  0  0  0  0  0  0  0
  -13.0799    2.1388   27.1833 C   0  0  0  0  0  0  0  0  0  0  0  0
  -13.0959    1.1996   27.6931 C   0  0  0  0  0  0  0  0  0  0  0  0
  -12.7507    0.0176   28.3677 C   0  0  0  0  0  0  0  0  0  0  0  0
  -11.4298   -0.2796   28.4474 C   0  0  0  0  0  0  0  0  0  0  0  0
  -10.9364   -1.5069   28.9930 C   0  0  0  0  0  0  0  0  0  0  0  0
  -11.9147   -2.2928   29.6507 C   0  0  0  0  0  0  0  0  0  0  0  0
  -13.2269   -1.9706   29.6379 C   0  0  0  0  0  0  0  0  0  0  0  0
  -13.6371   -0.8069   29.0369 C   0  0  0  0  0  0  0  0  0  0  0  0
  1  2  1  0
  1  4  1  0
  4  6  2  0
  4 10  1  0
  7 11  1  0
 11 12  1  0
 12 13  2  3
 13 14  1  0
 14 15  1  0
 15 16  2  0
 16 17  1  0
 17 18  2  0
 18 19  1  0
 19 20  2  0
 20 15  1  0
  2  3  2  0
  3  5  1  0
  5  7  2  0
  7  8  1  0
  8  9  2  0
  9  2  1  0
M  END
$$$$
