No_2403-complexes_sdf/6BKW-FPZ/2024-09-17-14-21-01/
     RDKit          3D

 14 14  0  0  0  0  0  0  0  0999 V2000
   -7.2496    3.8871   27.4508 C   0  0  0  0  0  0  0  0  0  0  0  0
   -8.5096    4.0291   27.2770 C   0  0  0  0  0  0  0  0  0  0  0  0
   -9.2677    5.1714   27.5773 C   0  0  0  0  0  0  0  0  0  0  0  0
   -6.5711    2.6400   27.2842 C   0  0  0  0  0  0  0  0  0  0  0  0
   -7.2939    1.5094   27.0532 C   0  0  0  0  0  0  0  0  0  0  0  0
   -8.6122    1.6580   26.7575 C   0  0  0  0  0  0  0  0  0  0  0  0
   -9.2984    2.8495   26.9904 C   0  0  0  0  0  0  0  0  0  0  0  0
   -9.2233    6.1510   26.7449 C   0  0  0  0  0  0  0  0  0  0  0  0
   -6.5758    0.2727   26.8843 C   0  0  0  0  0  0  0  0  0  0  0  0
   -6.6907   -0.4852   26.0926 O   0  0  0  0  0  0  0  0  0  0  0  0
   -5.6367    0.0242   28.0137 N   0  0  0  0  0  0  0  0  0  0  0  0
   -4.8944   -1.1788   28.1036 C   0  0  0  0  0  0  0  0  0  0  0  0
   -4.2632   -1.1072   29.1482 C   0  0  0  0  0  0  0  0  0  0  0  0
   -3.5983   -2.1721   29.7874 C   0  0  0  0  0  0  0  0  0  0  0  0
  3  8  1  0
  5  9  1  0
  9 10  2  0
  9 11  1  0
 11 12  1  0
 12 13  2  3
 13 14  1  0
  3  2  1  0
  1  2  2  0
  2  7  1  0
  7  6  2  0
  6  5  1  0
  5  4  2  0
  4  1  1  0
M  END
$$$$
