No_2724-complexes_sdf/6BKW-FPZ/2024-09-17-14-21-01/
     RDKit          3D

 23 26  0  0  0  0  0  0  0  0999 V2000
   -7.9040    3.9820   27.1177 C   0  0  0  0  0  0  0  0  0  0  0  0
   -9.0711    4.3164   27.0630 C   0  0  0  0  0  0  0  0  0  0  0  0
   -9.5182    5.5541   27.5777 C   0  0  0  0  0  0  0  0  0  0  0  0
   -6.9424    4.7983   27.8424 C   0  0  0  0  0  0  0  0  0  0  0  0
   -7.3526    5.9739   28.3909 C   0  0  0  0  0  0  0  0  0  0  0  0
   -8.6479    6.3742   28.2169 C   0  0  0  0  0  0  0  0  0  0  0  0
   -9.9331    3.3424   26.2519 C   0  0  0  0  0  0  0  0  0  0  0  0
  -10.4174    3.7577   25.1039 C   0  0  0  0  0  0  0  0  0  0  0  0
  -11.0829    2.9828   24.1638 C   0  0  0  0  0  0  0  0  0  0  0  0
  -11.2646    1.6626   24.5277 C   0  0  0  0  0  0  0  0  0  0  0  0
  -10.0497    1.9950   26.4840 C   0  0  0  0  0  0  0  0  0  0  0  0
  -10.7180    1.1396   25.7115 C   0  0  0  0  0  0  0  0  0  0  0  0
  -11.9995    0.8277   23.5567 C   0  0  0  0  0  0  0  0  0  0  0  0
  -12.2558   -0.2731   23.4832 O   0  0  0  0  0  0  0  0  0  0  0  0
  -12.5907    1.4990   22.5146 O   0  0  0  0  0  0  0  0  0  0  0  0
   -9.4300    1.4954   27.8243 C   0  0  0  0  0  0  0  0  0  0  0  0
   -9.7597    0.1167   28.1580 C   0  0  0  0  0  0  0  0  0  0  0  0
  -10.8405   -0.1621   26.1567 C   0  0  0  0  0  0  0  0  0  0  0  0
  -10.3402   -0.6202   27.3851 C   0  0  0  0  0  0  0  0  0  0  0  0
  -10.5995   -2.0207   27.7868 C   0  0  0  0  0  0  0  0  0  0  0  0
  -11.3590   -2.7175   27.3002 C   0  0  0  0  0  0  0  0  0  0  0  0
  -12.2296   -2.2139   26.2119 C   0  0  0  0  0  0  0  0  0  0  0  0
  -11.8481   -1.0085   25.6274 C   0  0  0  0  0  0  0  0  0  0  0  0
  2  7  1  0
 10 13  1  0
 13 14  2  0
 13 15  1  0
  7  8  2  0
  8  9  1  0
  9 10  2  0
 10 12  1  0
 11  7  1  0
 19 20  2  0
 20 21  1  0
 21 22  2  0
 22 23  1  0
 23 18  2  0
  1  2  2  0
  2  3  1  0
  3  6  2  0
  6  5  1  0
  5  4  2  0
  4  1  1  0
 11 12  2  0
 12 18  1  0
 18 19  1  0
 19 17  1  0
 17 16  2  0
 16 11  1  0
M  END
$$$$
