No_2572-complexes_sdf/6BKW-FPZ/2024-09-17-14-21-01/
     RDKit          3D

 28 30  0  0  0  0  0  0  0  0999 V2000
   -7.7129    4.2099   27.0854 C   0  0  0  0  0  0  0  0  0  0  0  0
   -8.2112    3.0637   26.9225 C   0  0  0  0  0  0  0  0  0  0  0  0
   -9.4446    2.8304   26.1868 C   0  0  0  0  0  0  0  0  0  0  0  0
   -8.4697    5.3956   26.7238 C   0  0  0  0  0  0  0  0  0  0  0  0
   -9.6172    5.2111   25.9513 C   0  0  0  0  0  0  0  0  0  0  0  0
  -10.0424    3.9782   25.6873 C   0  0  0  0  0  0  0  0  0  0  0  0
   -7.5056    1.8167   27.4088 C   0  0  0  0  0  0  0  0  0  0  0  0
   -6.2319    1.8972   27.8053 N   0  0  0  0  0  0  0  0  0  0  0  0
   -5.5697    0.7500   28.1820 C   0  0  0  0  0  0  0  0  0  0  0  0
   -6.2045   -0.4233   28.0802 C   0  0  0  0  0  0  0  0  0  0  0  0
   -7.9663    0.5060   27.3448 C   0  0  0  0  0  0  0  0  0  0  0  0
   -7.4302   -0.5480   27.7381 C   0  0  0  0  0  0  0  0  0  0  0  0
   -4.2063    0.9780   28.5355 N   0  0  0  0  0  0  0  0  0  0  0  0
   -8.1754    6.7665   27.0580 C   0  0  0  0  0  0  0  0  0  0  0  0
   -7.5492    6.9909   28.1258 O   0  0  0  0  0  0  0  0  0  0  0  0
   -8.6685    7.8609   26.4225 N   0  0  0  0  0  0  0  0  0  0  0  0
   -3.4639   -0.0844   29.0390 C   0  0  0  0  0  0  0  0  0  0  0  0
   -2.1198    0.1722   29.3691 C   0  0  0  0  0  0  0  0  0  0  0  0
   -4.0941   -1.0950   29.7473 C   0  0  0  0  0  0  0  0  0  0  0  0
   -5.0483   -1.0480   30.3295 C   0  0  0  0  0  0  0  0  0  0  0  0
   -5.4546   -2.0162   31.3028 C   0  0  0  0  0  0  0  0  0  0  0  0
   -6.7102   -1.8458   32.0388 C   0  0  0  0  0  0  0  0  0  0  0  0
   -7.3298   -2.6277   32.8066 C   0  0  0  0  0  0  0  0  0  0  0  0
   -6.6315   -3.7796   33.2282 C   0  0  0  0  0  0  0  0  0  0  0  0
   -5.0346   -3.2205   31.5861 C   0  0  0  0  0  0  0  0  0  0  0  0
   -5.4843   -4.0934   32.5274 C   0  0  0  0  0  0  0  0  0  0  0  0
   -6.2732   -0.5757   29.6645 F   0  0  0  0  0  0  0  0  0  0  0  0
   -5.3142   -1.4253   27.3997 C   0  0  0  0  0  0  0  0  0  0  0  0
  2  7  1  0
  9 13  1  0
  4 14  1  0
 14 15  2  0
 14 16  1  0
 13 17  2  3
 17 18  1  0
 17 19  1  0
 19 20  2  3
 20 21  1  0
 20 27  1  0
 10 28  1  0
  7  8  2  0
  8  9  1  0
  9 10  2  0
 10 12  1  0
 12 11  2  0
 11  7  1  0
 21 22  2  0
 22 23  1  0
 23 24  2  0
 24 26  1  0
 26 25  2  0
 25 21  1  0
  1  2  2  0
  2  3  1  0
  3  6  2  0
  6  5  1  0
  5  4  2  0
  4  1  1  0
M  END
$$$$
