No_2078-complexes_sdf/6BKW-FPZ/2024-09-17-14-21-01/
     RDKit          3D

 15 16  0  0  0  0  0  0  0  0999 V2000
   -7.9040    3.9820   27.1177 C   0  0  0  0  0  0  0  0  0  0  0  0
   -8.2057    2.8231   26.8733 C   0  0  0  0  0  0  0  0  0  0  0  0
   -8.7695    5.0740   26.7916 C   0  0  0  0  0  0  0  0  0  0  0  0
   -9.9618    4.7598   26.1630 C   0  0  0  0  0  0  0  0  0  0  0  0
   -7.3763    1.7038   27.3414 C   0  0  0  0  0  0  0  0  0  0  0  0
   -9.4134    2.4504   26.3004 C   0  0  0  0  0  0  0  0  0  0  0  0
  -10.2558    3.4522   25.9218 C   0  0  0  0  0  0  0  0  0  0  0  0
   -6.7485    0.8320   26.7248 C   0  0  0  0  0  0  0  0  0  0  0  0
   -6.1382   -0.1736   27.3570 C   0  0  0  0  0  0  0  0  0  0  0  0
   -5.4044    0.0875   28.4722 C   0  0  0  0  0  0  0  0  0  0  0  0
   -4.7414   -1.0116   29.1856 C   0  0  0  0  0  0  0  0  0  0  0  0
   -4.1669   -0.7290   30.4640 C   0  0  0  0  0  0  0  0  0  0  0  0
   -4.1538    0.6251   30.8299 C   0  0  0  0  0  0  0  0  0  0  0  0
   -4.1975    1.3676   29.8404 C   0  0  0  0  0  0  0  0  0  0  0  0
   -4.8942    1.3315   28.8182 C   0  0  0  0  0  0  0  0  0  0  0  0
  2  5  1  0
  5  8  2  3
  8  9  1  0
  9 10  1  0
  1  2  2  0
  2  6  1  0
  6  7  2  0
  7  4  1  0
  4  3  2  0
  3  1  1  0
 10 11  2  0
 11 12  1  0
 12 13  2  0
 13 14  1  0
 14 15  2  0
 15 10  1  0
M  END
$$$$
