No_2699-complexes_sdf/6BKW-FPZ/2024-09-17-14-21-01/
     RDKit          3D

 27 29  0  0  0  0  0  0  0  0999 V2000
   -7.7129    4.2099   27.0854 C   0  0  0  0  0  0  0  0  0  0  0  0
   -8.2112    3.0637   26.9225 C   0  0  0  0  0  0  0  0  0  0  0  0
   -9.5629    2.7997   27.0678 C   0  0  0  0  0  0  0  0  0  0  0  0
   -8.5911    5.3704   27.2036 C   0  0  0  0  0  0  0  0  0  0  0  0
   -9.9544    5.1489   27.1401 C   0  0  0  0  0  0  0  0  0  0  0  0
  -10.4577    3.9280   27.0818 C   0  0  0  0  0  0  0  0  0  0  0  0
   -8.2286    6.6955   27.3659 N   0  0  0  0  0  0  0  0  0  0  0  0
  -10.0413    1.4005   26.9315 C   0  0  0  0  0  0  0  0  0  0  0  0
   -9.1312    0.4438   27.0621 C   0  0  0  0  0  0  0  0  0  0  0  0
   -7.7334    0.7107   27.0310 C   0  0  0  0  0  0  0  0  0  0  0  0
   -7.2788    1.9551   27.0100 C   0  0  0  0  0  0  0  0  0  0  0  0
   -6.7770   -0.4264   26.9953 C   0  0  0  0  0  0  0  0  0  0  0  0
   -6.9269   -1.4215   26.8107 O   0  0  0  0  0  0  0  0  0  0  0  0
   -5.4867    0.0250   27.3375 O   0  0  0  0  0  0  0  0  0  0  0  0
   -4.3707   -0.5833   26.9056 C   0  0  0  0  0  0  0  0  0  0  0  0
   -3.2953    0.2807   27.1464 C   0  0  0  0  0  0  0  0  0  0  0  0
   -2.3206    0.3019   26.3836 O   0  0  0  0  0  0  0  0  0  0  0  0
   -8.0806    7.6068   26.3233 C   0  0  0  0  0  0  0  0  0  0  0  0
   -3.0897    0.6952   28.4307 O   0  0  0  0  0  0  0  0  0  0  0  0
  -11.9195    3.7313   27.2151 C   0  0  0  0  0  0  0  0  0  0  0  0
  -12.7573    4.4007   26.2606 C   0  0  0  0  0  0  0  0  0  0  0  0
  -14.1321    4.4802   26.5392 C   0  0  0  0  0  0  0  0  0  0  0  0
  -14.6555    3.8335   27.6710 C   0  0  0  0  0  0  0  0  0  0  0  0
  -12.5366    3.2288   28.4039 C   0  0  0  0  0  0  0  0  0  0  0  0
  -13.8636    3.2605   28.6528 C   0  0  0  0  0  0  0  0  0  0  0  0
   -7.4853    8.8163   27.0625 C   0  0  0  0  0  0  0  0  0  0  0  0
   -8.6742    7.5977   25.4307 O   0  0  0  0  0  0  0  0  0  0  0  0
  4  7  1  0
 10 12  1  0
 12 13  2  0
 12 14  1  0
 14 15  1  0
 15 16  1  0
 16 17  2  0
  7 18  1  0
 16 19  1  0
  6 20  1  0
 18 26  1  0
 18 27  2  0
 20 21  2  0
 21 22  1  0
 22 23  2  0
 23 25  1  0
 25 24  2  0
 24 20  1  0
  1  2  2  0
  3  6  2  0
  6  5  1  0
  5  4  2  0
  4  1  1  0
  2  3  1  0
  3  8  1  0
  8  9  2  0
  9 10  1  0
 10 11  2  0
 11  2  1  0
M  END
$$$$
