No_2632-complexes_sdf/6BKW-FPZ/2024-09-17-14-21-01/
     RDKit          3D

 21 23  0  0  0  0  0  0  0  0999 V2000
   -7.7129    4.2099   27.0854 C   0  0  0  0  0  0  0  0  0  0  0  0
   -7.7814    5.1722   27.8972 C   0  0  0  0  0  0  0  0  0  0  0  0
   -8.8255    3.2789   27.1191 C   0  0  0  0  0  0  0  0  0  0  0  0
   -9.9209    3.4734   27.9101 C   0  0  0  0  0  0  0  0  0  0  0  0
   -9.9736    4.7085   28.6831 C   0  0  0  0  0  0  0  0  0  0  0  0
   -8.8840    5.5441   28.6612 C   0  0  0  0  0  0  0  0  0  0  0  0
   -8.7102    2.0171   26.3293 C   0  0  0  0  0  0  0  0  0  0  0  0
   -9.2831    1.9661   25.0865 C   0  0  0  0  0  0  0  0  0  0  0  0
   -9.3793    1.0527   24.3919 C   0  0  0  0  0  0  0  0  0  0  0  0
   -8.6477   -0.1912   24.6996 C   0  0  0  0  0  0  0  0  0  0  0  0
   -8.1197    0.9073   26.7829 C   0  0  0  0  0  0  0  0  0  0  0  0
   -8.0163   -0.2051   25.9864 C   0  0  0  0  0  0  0  0  0  0  0  0
  -11.0675    2.6087   27.9443 C   0  0  0  0  0  0  0  0  0  0  0  0
  -11.0083    1.4661   28.0587 O   0  0  0  0  0  0  0  0  0  0  0  0
  -12.2345    3.1924   28.4118 N   0  0  0  0  0  0  0  0  0  0  0  0
  -13.4492    2.4266   28.7089 C   0  0  0  0  0  0  0  0  0  0  0  0
  -14.2424    2.9278   29.5030 C   0  0  0  0  0  0  0  0  0  0  0  0
  -14.5986    2.3474   30.6504 C   0  0  0  0  0  0  0  0  0  0  0  0
  -14.4525    0.8998   30.7424 C   0  0  0  0  0  0  0  0  0  0  0  0
  -13.6032    0.3171   29.8161 C   0  0  0  0  0  0  0  0  0  0  0  0
  -13.1817    1.0662   28.8395 C   0  0  0  0  0  0  0  0  0  0  0  0
  3  7  1  0
  4 13  1  0
 13 14  2  0
 13 15  1  0
 15 16  1  0
  7  8  2  0
  8  9  1  0
  9 10  2  0
 10 12  1  0
 12 11  2  0
 11  7  1  0
  1  2  2  0
  2  6  1  0
  6  5  2  0
  5  4  1  0
  4  3  2  0
  3  1  1  0
 16 17  2  0
 17 18  1  0
 18 19  2  0
 19 20  1  0
 20 21  2  0
 21 16  1  0
M  END
$$$$
