No_2019-complexes_sdf/6BKW-FPZ/2024-09-17-14-21-01/
     RDKit          3D

 14 14  0  0  0  0  0  0  0  0999 V2000
   -7.2496    3.8871   27.4508 C   0  0  0  0  0  0  0  0  0  0  0  0
   -7.9379    4.9063   27.8518 C   0  0  0  0  0  0  0  0  0  0  0  0
   -9.3460    4.8223   27.8695 C   0  0  0  0  0  0  0  0  0  0  0  0
   -7.8628    2.6163   27.1065 C   0  0  0  0  0  0  0  0  0  0  0  0
   -9.2787    2.5744   27.1970 C   0  0  0  0  0  0  0  0  0  0  0  0
  -10.0108    3.6770   27.6340 C   0  0  0  0  0  0  0  0  0  0  0  0
  -11.4855    3.5731   27.7420 C   0  0  0  0  0  0  0  0  0  0  0  0
  -11.9299    2.8562   28.8221 C   0  0  0  0  0  0  0  0  0  0  0  0
  -11.5548    1.7633   29.1630 C   0  0  0  0  0  0  0  0  0  0  0  0
  -12.3549    0.7040   28.9004 C   0  0  0  0  0  0  0  0  0  0  0  0
  -12.4424    0.2248   27.8995 C   0  0  0  0  0  0  0  0  0  0  0  0
  -13.2481   -1.0543   27.6349 C   0  0  0  0  0  0  0  0  0  0  0  0
  -13.7556   -1.6602   28.7222 C   0  0  0  0  0  0  0  0  0  0  0  0
  -13.5711   -1.1486   29.9673 C   0  0  0  0  0  0  0  0  0  0  0  0
  6  7  1  0
  7  8  1  0
  8  9  2  3
  9 10  1  0
 10 11  2  3
 11 12  1  0
 12 13  2  3
 13 14  1  0
  1  2  2  0
  2  3  1  0
  3  6  2  0
  6  5  1  0
  5  4  2  0
  4  1  1  0
M  END
$$$$
