No_2586-complexes_sdf/6BKW-FPZ/2024-09-17-14-21-01/
     RDKit          3D

 12 12  0  0  0  0  0  0  0  0999 V2000
   -7.9040    3.9820   27.1177 C   0  0  0  0  0  0  0  0  0  0  0  0
   -7.8663    4.8694   27.9238 C   0  0  0  0  0  0  0  0  0  0  0  0
   -9.0501    3.8017   26.2617 C   0  0  0  0  0  0  0  0  0  0  0  0
   -9.1826    2.7026   25.3575 C   0  0  1  0  0  0  0  0  0  0  0  0
   -8.6940    6.0131   27.8614 C   0  0  0  0  0  0  0  0  0  0  0  0
   -9.9755    4.8547   26.2361 C   0  0  0  0  0  0  0  0  0  0  0  0
   -9.7463    5.9398   27.0364 C   0  0  0  0  0  0  0  0  0  0  0  0
   -8.7094    1.4766   25.7702 C   0  0  0  0  0  0  0  0  0  0  0  0
   -9.8873    2.8128   24.1493 C   0  0  0  0  0  0  0  0  0  0  0  0
   -8.7616    0.3825   24.9403 C   0  0  0  0  0  0  0  0  0  0  0  0
  -10.4056    3.9936   23.7211 C   0  0  0  0  0  0  0  0  0  0  0  0
   -9.4070    0.5105   23.7426 C   0  0  0  0  0  0  0  0  0  0  0  0
  3  4  1  0
  4  8  1  1
  4  9  1  0
  8 10  1  0
  9 11  2  0
 10 12  1  0
  1  2  2  0
  2  5  1  0
  5  7  2  0
  7  6  1  0
  6  3  2  0
  3  1  1  0
M  END
$$$$
