No_2619-complexes_sdf/6BKW-FPZ/2024-09-17-14-21-01/
     RDKit          3D

 17 19  0  0  0  0  0  0  0  0999 V2000
   -7.7129    4.2099   27.0854 C   0  0  0  0  0  0  0  0  0  0  0  0
   -7.7814    5.1722   27.8972 C   0  0  0  0  0  0  0  0  0  0  0  0
   -8.8776    3.8408   26.3416 C   0  0  0  0  0  0  0  0  0  0  0  0
   -9.9844    4.6492   26.4743 C   0  0  0  0  0  0  0  0  0  0  0  0
   -8.8033    6.1375   27.8728 C   0  0  0  0  0  0  0  0  0  0  0  0
   -9.9554    5.8280   27.1736 C   0  0  0  0  0  0  0  0  0  0  0  0
   -8.6892    2.5936   25.5906 C   0  0  0  0  0  0  0  0  0  0  0  0
   -8.3785    1.4399   26.3375 C   0  0  0  0  0  0  0  0  0  0  0  0
   -8.3397    0.4443   26.0811 C   0  0  0  0  0  0  0  0  0  0  0  0
   -7.8841   -0.7231   26.9787 C   0  0  0  0  0  0  0  0  0  0  0  0
   -7.2342   -0.2864   28.0590 C   0  0  0  0  0  0  0  0  0  0  0  0
   -6.9472    1.0440   28.3102 C   0  0  0  0  0  0  0  0  0  0  0  0
   -7.4513    1.9501   27.5158 C   0  0  0  0  0  0  0  0  0  0  0  0
   -7.2808    3.2776   27.8023 N   0  0  0  0  0  0  0  0  0  0  0  0
  -11.1394    4.3659   25.5941 C   0  0  0  0  0  0  0  0  0  0  0  0
  -12.3037    3.8943   26.1721 C   0  0  0  0  0  0  0  0  0  0  0  0
  -13.3978    3.5884   25.3771 C   0  0  0  0  0  0  0  0  0  0  0  0
  4 15  1  0
 15 16  2  3
 16 17  1  0
  3  7  1  0
  7  8  2  0
 13 14  2  0
 14  1  1  0
  8  9  1  0
  9 10  2  0
 10 11  1  0
 11 12  2  0
 12 13  1  0
 13  8  1  0
  1  2  2  0
  2  5  1  0
  5  6  2  0
  6  4  1  0
  4  3  2  0
  3  1  1  0
M  END
$$$$
