No_2142-complexes_sdf/6BKW-FPZ/2024-09-17-14-21-01/
     RDKit          3D

 21 23  0  0  0  0  0  0  0  0999 V2000
   -7.9040    3.9820   27.1177 C   0  0  0  0  0  0  0  0  0  0  0  0
   -9.0711    4.3164   27.0630 C   0  0  0  0  0  0  0  0  0  0  0  0
   -9.5294    5.4517   27.7215 C   0  0  0  0  0  0  0  0  0  0  0  0
   -7.4336    2.7132   26.5681 C   0  0  0  0  0  0  0  0  0  0  0  0
   -8.3353    1.8569   26.0442 C   0  0  0  0  0  0  0  0  0  0  0  0
   -7.9243    0.5609   25.6726 C   0  0  0  0  0  0  0  0  0  0  0  0
  -10.0396    3.4856   26.3639 C   0  0  0  0  0  0  0  0  0  0  0  0
   -9.6183    2.2835   25.9020 C   0  0  0  0  0  0  0  0  0  0  0  0
   -7.0421   -0.0155   26.2487 O   0  0  0  0  0  0  0  0  0  0  0  0
   -8.4890   -0.0184   24.6295 O   0  0  0  0  0  0  0  0  0  0  0  0
   -6.8645    4.7457   27.9327 C   0  0  0  0  0  0  0  0  0  0  0  0
   -7.3258    5.9641   28.5125 C   0  0  0  0  0  0  0  0  0  0  0  0
   -8.6391    6.3706   28.3364 C   0  0  0  0  0  0  0  0  0  0  0  0
  -11.3959    3.9247   26.1017 C   0  0  0  0  0  0  0  0  0  0  0  0
  -12.3261    3.7367   27.1573 C   0  0  0  0  0  0  0  0  0  0  0  0
  -12.0521    3.6180   28.3724 C   0  0  0  0  0  0  0  0  0  0  0  0
  -13.0584    3.4269   29.4680 C   0  0  0  0  0  0  0  0  0  0  0  0
  -14.3616    3.6286   29.1683 C   0  0  0  0  0  0  0  0  0  0  0  0
  -13.7521    3.9412   26.8323 C   0  0  0  0  0  0  0  0  0  0  0  0
  -14.7312    3.9092   27.8298 C   0  0  0  0  0  0  0  0  0  0  0  0
  -11.6778    4.3333   24.9727 O   0  0  0  0  0  0  0  0  0  0  0  0
  5  6  1  0
  6  9  2  0
  6 10  1  0
  7 14  1  0
 14 15  1  0
 14 21  2  0
 15 16  2  0
 16 17  1  0
 17 18  2  0
 18 20  1  0
 20 19  2  0
 19 15  1  0
  2  7  1  0
  7  8  2  0
  8  5  1  0
  5  4  2  0
  4  1  1  0
  1  2  1  0
  2  3  2  0
  3 13  1  0
 13 12  2  0
 12 11  1  0
 11  1  2  0
M  END
$$$$
