No_2276-complexes_sdf/6BKW-FPZ/2024-09-17-14-21-01/
     RDKit          3D

 18 19  0  0  0  0  0  0  0  0999 V2000
   -7.9040    3.9820   27.1177 C   0  0  0  0  0  0  0  0  0  0  0  0
   -8.2057    2.8231   26.8733 C   0  0  0  0  0  0  0  0  0  0  0  0
   -8.7695    5.0740   26.7916 C   0  0  0  0  0  0  0  0  0  0  0  0
   -9.9618    4.7598   26.1630 C   0  0  0  0  0  0  0  0  0  0  0  0
   -9.4200    2.4524   26.2849 C   0  0  0  0  0  0  0  0  0  0  0  0
  -10.2590    3.4815   25.9250 C   0  0  0  0  0  0  0  0  0  0  0  0
   -8.1836    6.4186   27.1101 C   0  0  0  0  0  0  0  0  0  0  0  0
   -8.2399    7.4092   27.2583 N   0  0  0  0  0  0  0  0  0  0  0  0
   -7.5182    1.5037   27.1987 C   0  0  0  0  0  0  0  0  0  0  0  0
   -8.0868    0.6635   27.5192 F   0  0  0  0  0  0  0  0  0  0  0  0
   -6.5239    1.9030   28.2234 F   0  0  0  0  0  0  0  0  0  0  0  0
   -6.6601    1.1808   26.1086 F   0  0  0  0  0  0  0  0  0  0  0  0
  -11.4998    3.1978   25.1795 C   0  0  0  0  0  0  0  0  0  0  0  0
  -12.6251    3.1447   25.8899 C   0  0  0  0  0  0  0  0  0  0  0  0
  -13.8338    3.2717   25.3939 C   0  0  0  0  0  0  0  0  0  0  0  0
  -13.9451    3.2558   23.9571 C   0  0  0  0  0  0  0  0  0  0  0  0
  -11.5193    3.3132   23.7840 C   0  0  0  0  0  0  0  0  0  0  0  0
  -12.7860    3.3758   23.1702 C   0  0  0  0  0  0  0  0  0  0  0  0
  3  7  1  0
  7  8  3  0
  2  9  1  0
  9 10  1  0
  9 11  1  0
  9 12  1  0
  6 13  1  0
 13 14  2  0
 14 15  1  0
 15 16  2  0
 16 18  1  0
 18 17  2  0
 17 13  1  0
  1  2  2  0
  2  5  1  0
  5  6  2  0
  6  4  1  0
  4  3  2  0
  3  1  1  0
M  END
$$$$
