No_2543-complexes_sdf/6BKW-FPZ/2024-09-17-14-21-01/
     RDKit          3D

 36 40  0  0  0  0  0  0  0  0999 V2000
   -7.9040    3.9820   27.1177 C   0  0  0  0  0  0  0  0  0  0  0  0
   -9.0711    4.3164   27.0630 C   0  0  0  0  0  0  0  0  0  0  0  0
   -9.8698    3.9665   25.9495 C   0  0  0  0  0  0  0  0  0  0  0  0
   -7.0332    4.5030   28.2025 C   0  0  0  0  0  0  0  0  0  0  0  0
  -10.9909    4.7237   25.5958 C   0  0  0  0  0  0  0  0  0  0  0  0
   -7.5840    5.4918   28.9036 N   0  0  0  0  0  0  0  0  0  0  0  0
  -11.7865    4.4111   26.2861 C   0  0  0  0  0  0  0  0  0  0  0  0
  -13.1220    5.0869   26.1813 C   0  0  0  0  0  0  0  0  0  0  0  0
   -9.2777    5.4834   27.9811 C   0  0  0  0  0  0  0  0  0  0  0  0
  -14.3309    4.5486   26.3553 C   0  0  0  0  0  0  0  0  0  0  0  0
  -15.4620    5.2074   25.9086 C   0  0  0  0  0  0  0  0  0  0  0  0
   -5.8123    4.1653   28.4855 N   0  0  0  0  0  0  0  0  0  0  0  0
   -9.4264    2.8850   25.1166 C   0  0  0  0  0  0  0  0  0  0  0  0
  -10.0527    2.6164   23.9518 C   0  0  0  0  0  0  0  0  0  0  0  0
  -10.4585    3.4945   23.0934 C   0  0  0  0  0  0  0  0  0  0  0  0
  -11.0365    3.0918   21.8217 C   0  0  0  0  0  0  0  0  0  0  0  0
  -10.8238    1.8290   21.4203 C   0  0  0  0  0  0  0  0  0  0  0  0
  -10.2172    0.8705   22.2592 C   0  0  0  0  0  0  0  0  0  0  0  0
   -9.7816    1.2493   23.4999 C   0  0  0  0  0  0  0  0  0  0  0  0
  -12.0262    3.2673   27.2107 C   0  0  0  0  0  0  0  0  0  0  0  0
  -13.2996    2.8607   27.6578 C   0  0  0  0  0  0  0  0  0  0  0  0
  -14.3859    3.5708   27.3113 C   0  0  0  0  0  0  0  0  0  0  0  0
  -16.0798    6.2765   26.5107 C   0  0  0  0  0  0  0  0  0  0  0  0
  -15.9592    4.8757   24.5879 C   0  0  0  0  0  0  0  0  0  0  0  0
  -15.5612    3.8245   23.9815 C   0  0  0  0  0  0  0  0  0  0  0  0
  -15.2121    2.8037   24.2701 C   0  0  0  0  0  0  0  0  0  0  0  0
  -14.7572    1.6597   23.3960 C   0  0  0  0  0  0  0  0  0  0  0  0
  -14.7691    1.9306   22.0711 C   0  0  0  0  0  0  0  0  0  0  0  0
  -15.2158    3.1127   21.5856 C   0  0  0  0  0  0  0  0  0  0  0  0
  -15.5730    4.1203   22.4280 C   0  0  0  0  0  0  0  0  0  0  0  0
  -17.0779    5.6122   24.2994 N   0  0  0  0  0  0  0  0  0  0  0  0
  -17.5913    6.6367   24.9110 C   0  0  0  0  0  0  0  0  0  0  0  0
  -17.0328    7.0693   26.1520 C   0  0  0  0  0  0  0  0  0  0  0  0
  -15.7379    3.1277   27.7939 C   0  0  0  0  0  0  0  0  0  0  0  0
  -15.9648    2.5932   28.9761 Cl  0  0  0  0  0  0  0  0  0  0  0  0
  -16.7302    3.3269   26.8871 O   0  0  0  0  0  0  0  0  0  0  0  0
  1  2  1  0
  2  3  2  3
  1  4  1  0
  3  5  1  0
  4  6  2  0
  2  9  1  0
  6  9  1  0
 10 11  1  0
  4 12  1  0
  3 13  1  0
 13 14  1  0
 24 25  1  0
 22 34  1  0
 34 35  1  0
 34 36  2  0
  5  7  1  0
 14 15  2  0
 15 16  1  0
 16 17  2  0
 17 18  1  0
 18 19  2  0
 19 14  1  0
 25 26  2  0
 26 27  1  0
 27 28  2  0
 28 29  1  0
 29 30  2  0
 30 25  1  0
 11 23  2  0
 23 33  1  0
 33 32  2  0
 32 31  1  0
 31 24  2  0
 24 11  1  0
  7  8  2  0
  8 10  1  0
 10 22  2  0
 22 21  1  0
 21 20  2  0
 20  7  1  0
M  END
$$$$
