No_2615-complexes_sdf/6BKW-FPZ/2024-09-17-14-21-01/
     RDKit          3D

 17 18  0  0  0  0  0  0  0  0999 V2000
   -7.2496    3.8871   27.4508 C   0  0  0  0  0  0  0  0  0  0  0  0
   -7.9379    4.9063   27.8518 C   0  0  0  0  0  0  0  0  0  0  0  0
   -9.3376    4.8647   27.7795 C   0  0  0  0  0  0  0  0  0  0  0  0
   -7.8544    2.6294   27.0414 C   0  0  0  0  0  0  0  0  0  0  0  0
   -9.2852    2.6570   27.0666 C   0  0  0  0  0  0  0  0  0  0  0  0
  -10.0126    3.7528   27.4890 C   0  0  0  0  0  0  0  0  0  0  0  0
  -11.4946    3.6924   27.5201 C   0  0  0  0  0  0  0  0  0  0  0  0
  -12.0181    2.6419   28.0792 C   0  0  0  0  0  0  0  0  0  0  0  0
  -11.6565    1.5060   28.1760 C   0  0  0  0  0  0  0  0  0  0  0  0
  -10.3855    0.8406   27.7375 C   0  0  2  0  0  0  0  0  0  0  0  0
   -9.5388    1.2128   27.2927 C   0  0  0  0  0  0  0  0  0  0  0  0
   -7.1297    6.4317   28.1368 Cl  0  0  0  0  0  0  0  0  0  0  0  0
  -10.6313   -0.7359   27.8762 C   0  0  0  0  0  0  0  0  0  0  0  0
  -11.5078   -1.2544   28.3711 C   0  0  0  0  0  0  0  0  0  0  0  0
  -11.5399   -2.6795   28.5356 C   0  0  0  0  0  0  0  0  0  0  0  0
  -12.6228   -3.3297   29.1654 C   0  0  0  0  0  0  0  0  0  0  0  0
  -12.5284   -0.1836   28.8031 C   0  0  0  0  0  0  0  0  0  0  0  0
  6  7  1  0
  7  8  1  0
  8  9  2  0
  9 10  1  0
  5 11  1  0
 10 11  1  6
  2 12  1  0
 10 13  1  0
 13 14  2  3
 14 15  1  0
 15 16  2  0
 14 17  1  0
  1  2  2  0
  2  3  1  0
  3  6  2  0
  6  5  1  0
  5  4  2  0
  4  1  1  0
M  END
$$$$
