No_2126-complexes_sdf/6BKW-FPZ/2024-09-17-14-21-01/
     RDKit          3D

 28 30  0  0  0  0  0  0  0  0999 V2000
   -7.2496    3.8871   27.4508 C   0  0  0  0  0  0  0  0  0  0  0  0
   -7.9379    4.9063   27.8518 C   0  0  0  0  0  0  0  0  0  0  0  0
   -7.5112    6.1898   27.6280 C   0  0  0  0  0  0  0  0  0  0  0  0
   -7.4783    2.5435   27.5904 C   0  0  0  0  0  0  0  0  0  0  0  0
   -8.8194    2.2030   27.8879 C   0  0  0  0  0  0  0  0  0  0  0  0
   -9.7541    3.2253   28.0908 C   0  0  0  0  0  0  0  0  0  0  0  0
   -9.3329    4.6048   28.1115 C   0  0  0  0  0  0  0  0  0  0  0  0
   -6.5893    1.4860   27.1789 C   0  0  0  0  0  0  0  0  0  0  0  0
   -5.4440    1.3065   28.0603 C   0  0  0  0  0  0  0  0  0  0  0  0
   -4.5387    0.2323   27.8648 C   0  0  0  0  0  0  0  0  0  0  0  0
   -4.8700   -0.6969   26.9134 C   0  0  0  0  0  0  0  0  0  0  0  0
   -5.9994   -0.5604   26.0994 C   0  0  0  0  0  0  0  0  0  0  0  0
   -6.9017    0.5036   26.3213 C   0  0  0  0  0  0  0  0  0  0  0  0
   -3.3061    0.1558   28.6849 C   0  0  0  0  0  0  0  0  0  0  0  0
   -2.1813   -0.1144   28.1462 N   0  0  0  0  0  0  0  0  0  0  0  0
   -3.3952    0.2147   30.1610 C   0  0  0  0  0  0  0  0  0  0  0  0
   -3.0550   -0.7824   30.9775 C   0  0  0  0  0  0  0  0  0  0  0  0
   -1.7855   -1.3896   30.4375 C   0  0  0  0  0  0  0  0  0  0  0  0
   -1.4140   -1.0731   29.0663 C   0  0  0  0  0  0  0  0  0  0  0  0
  -11.1321    2.8862   28.4829 C   0  0  0  0  0  0  0  0  0  0  0  0
  -12.0835    3.8611   28.7041 C   0  0  1  0  0  0  0  0  0  0  0  0
  -11.5362    1.5464   28.6507 C   0  0  0  0  0  0  0  0  0  0  0  0
  -12.4142    4.7993   27.8214 C   0  0  0  0  0  0  0  0  0  0  0  0
  -13.0303    3.6716   29.8291 C   0  0  0  0  0  0  0  0  0  0  0  0
  -14.1744    3.3424   29.8489 C   0  0  0  0  0  0  0  0  0  0  0  0
  -14.9832    3.2535   31.0169 C   0  0  0  0  0  0  0  0  0  0  0  0
  -14.3310    3.3889   32.2423 C   0  0  0  0  0  0  0  0  0  0  0  0
  -12.9997    3.7296   32.3304 C   0  0  0  0  0  0  0  0  0  0  0  0
  4  8  1  0
 10 14  1  0
  6 20  1  0
 20 21  1  0
 20 22  1  0
 21 23  1  6
 21 24  1  0
 24 25  2  3
 25 26  1  0
 26 27  2  3
 27 28  1  0
  3  2  1  0
  1  2  2  0
  2  7  1  0
  7  6  2  0
  6  5  1  0
  5  4  2  0
  4  1  1  0
  8  9  2  0
  9 10  1  0
 10 11  2  0
 11 12  1  0
 12 13  2  0
 13  8  1  0
 14 15  2  0
 15 19  1  0
 19 18  2  0
 18 17  1  0
 17 16  2  0
 16 14  1  0
M  END
$$$$
