No_2495-complexes_sdf/6BKW-FPZ/2024-09-17-14-21-01/
     RDKit          3D

 19 20  0  0  0  0  0  0  0  0999 V2000
   -7.7129    4.2099   27.0854 C   0  0  0  0  0  0  0  0  0  0  0  0
   -7.7814    5.1722   27.8972 C   0  0  0  0  0  0  0  0  0  0  0  0
   -8.7889    3.2468   27.2220 C   0  0  0  0  0  0  0  0  0  0  0  0
   -8.5940    1.9755   26.6525 C   0  0  0  0  0  0  0  0  0  0  0  0
   -9.4990    1.3567   25.9026 C   0  0  1  0  0  0  0  0  0  0  0  0
   -8.9326    5.8778   28.0043 C   0  0  0  0  0  0  0  0  0  0  0  0
   -9.9466    3.8809   27.5976 C   0  0  0  0  0  0  0  0  0  0  0  0
  -11.0926    2.9249   27.6987 C   0  0  0  0  0  0  0  0  0  0  0  0
  -10.0935    5.1132   28.0874 C   0  0  0  0  0  0  0  0  0  0  0  0
   -9.0836    0.1868   25.2649 C   0  0  0  0  0  0  0  0  0  0  0  0
  -10.9784    1.7319   26.7214 C   0  0  2  0  0  0  0  0  0  0  0  0
   -9.4507    0.2586   23.9389 C   0  0  0  0  0  0  0  0  0  0  0  0
  -11.2771    2.4139   29.1694 C   0  0  0  0  0  0  0  0  0  0  0  0
  -12.3550    3.6498   27.1378 C   0  0  0  0  0  0  0  0  0  0  0  0
  -11.2904    0.3744   27.3375 C   0  0  0  0  0  0  0  0  0  0  0  0
   -9.8838    1.3638   23.2867 C   0  0  0  0  0  0  0  0  0  0  0  0
  -10.3360    2.4135   23.9048 C   0  0  0  0  0  0  0  0  0  0  0  0
  -10.7760    3.6229   23.0548 C   0  0  0  0  0  0  0  0  0  0  0  0
  -11.1023    4.8697   23.7205 C   0  0  0  0  0  0  0  0  0  0  0  0
  3  4  1  0
  7  8  1  0
  5 10  1  1
  5 11  1  0
  8 11  1  0
 10 12  1  0
  8 13  1  0
  8 14  1  0
 11 15  1  1
 12 16  1  0
 16 17  2  3
 17 18  1  0
 18 19  1  0
  4  5  1  0
  1  2  2  0
  2  6  1  0
  6  9  2  0
  9  7  1  0
  7  3  2  0
  3  1  1  0
M  END
$$$$
