No_2810-complexes_sdf/6BKW-FPZ/2024-09-17-14-21-01/
     RDKit          3D

 20 21  0  0  0  0  0  0  0  0999 V2000
   -7.2496    3.8871   27.4508 C   0  0  0  0  0  0  0  0  0  0  0  0
   -8.5096    4.0291   27.2770 C   0  0  0  0  0  0  0  0  0  0  0  0
   -9.3451    2.8786   26.9046 C   0  0  0  0  0  0  0  0  0  0  0  0
   -6.6065    2.5680   27.5073 C   0  0  0  0  0  0  0  0  0  0  0  0
   -7.4233    1.4858   27.2402 C   0  0  0  0  0  0  0  0  0  0  0  0
   -8.7362    1.6525   26.9989 C   0  0  0  0  0  0  0  0  0  0  0  0
   -9.1023    5.3710   27.2131 C   0  0  0  0  0  0  0  0  0  0  0  0
  -10.3176    5.4276   27.6392 F   0  0  0  0  0  0  0  0  0  0  0  0
   -9.0262    5.9304   25.9595 F   0  0  0  0  0  0  0  0  0  0  0  0
   -8.3305    6.3045   27.9433 F   0  0  0  0  0  0  0  0  0  0  0  0
   -6.7703    0.2031   27.2438 C   0  0  0  0  0  0  0  0  0  0  0  0
   -5.5247    0.0202   27.8279 C   0  0  0  0  0  0  0  0  0  0  0  0
   -4.8260   -0.9569   28.0539 C   0  0  0  0  0  0  0  0  0  0  0  0
   -5.4200   -2.1999   27.7793 C   0  0  0  0  0  0  0  0  0  0  0  0
   -7.3707   -1.0577   27.2407 C   0  0  0  0  0  0  0  0  0  0  0  0
   -6.7529   -2.2217   27.3996 C   0  0  0  0  0  0  0  0  0  0  0  0
   -3.3947   -0.9558   28.5632 C   0  0  0  0  0  0  0  0  0  0  0  0
   -2.8919    0.2321   28.7755 F   0  0  0  0  0  0  0  0  0  0  0  0
   -3.2781   -1.5976   29.7492 F   0  0  0  0  0  0  0  0  0  0  0  0
   -2.7026   -1.5648   27.5679 F   0  0  0  0  0  0  0  0  0  0  0  0
  2  7  1  0
  7  8  1  0
  7  9  1  0
  7 10  1  0
  5 11  1  0
 13 17  1  0
 17 18  1  0
 17 19  1  0
 17 20  1  0
  1  2  2  0
  2  3  1  0
  3  6  2  0
  6  5  1  0
  5  4  2  0
  4  1  1  0
 11 12  2  0
 12 13  1  0
 13 14  2  0
 14 16  1  0
 16 15  2  0
 15 11  1  0
M  END
$$$$
