No_2420-complexes_sdf/6BKW-FPZ/2024-09-17-14-21-01/
     RDKit          3D

 22 25  0  0  0  0  0  0  0  0999 V2000
   -7.7129    4.2099   27.0854 C   0  0  0  0  0  0  0  0  0  0  0  0
   -7.7814    5.1722   27.8972 C   0  0  0  0  0  0  0  0  0  0  0  0
   -8.8776    3.8408   26.3416 C   0  0  0  0  0  0  0  0  0  0  0  0
   -9.9844    4.6492   26.4743 C   0  0  0  0  0  0  0  0  0  0  0  0
   -8.7830    6.1594   27.8870 C   0  0  0  0  0  0  0  0  0  0  0  0
   -9.9269    5.8192   27.1183 C   0  0  0  0  0  0  0  0  0  0  0  0
   -8.8618    2.6242   25.5633 C   0  0  0  0  0  0  0  0  0  0  0  0
   -8.2819    1.4836   26.1793 C   0  0  0  0  0  0  0  0  0  0  0  0
   -8.1204    0.3164   25.5040 C   0  0  0  0  0  0  0  0  0  0  0  0
   -8.6889    0.2851   24.2076 C   0  0  0  0  0  0  0  0  0  0  0  0
   -9.3106    1.3730   23.6051 C   0  0  0  0  0  0  0  0  0  0  0  0
   -9.3584    2.5540   24.2891 C   0  0  0  0  0  0  0  0  0  0  0  0
   -8.5869   -0.9812   23.4015 C   0  0  0  0  0  0  0  0  0  0  0  0
   -9.1669   -1.1071   22.2382 C   0  0  0  0  0  0  0  0  0  0  0  0
   -9.8177    0.1035   21.6362 C   0  0  0  0  0  0  0  0  0  0  0  0
   -9.8735    1.2955   22.3216 C   0  0  0  0  0  0  0  0  0  0  0  0
  -10.4798    2.3227   21.6689 N   0  0  0  0  0  0  0  0  0  0  0  0
  -10.0518    3.4811   21.6322 C   0  0  0  0  0  0  0  0  0  0  0  0
  -11.6314    2.0100   20.8851 C   0  0  0  0  0  0  0  0  0  0  0  0
  -11.0191    4.6232   21.7832 C   0  0  0  0  0  0  0  0  0  0  0  0
  -12.6954    2.9431   21.1530 C   0  0  0  0  0  0  0  0  0  0  0  0
  -12.2864    4.3820   21.1317 C   0  0  0  0  0  0  0  0  0  0  0  0
  3  7  1  0
 16 17  1  0
 17 18  1  0
 17 19  1  0
 18 20  1  0
 19 21  1  0
 20 22  1  0
 21 22  1  0
  1  2  2  0
  2  5  1  0
  5  6  2  0
  6  4  1  0
  4  3  2  0
  3  1  1  0
  7  8  2  0
  8  9  1  0
  9 10  2  0
 11 12  2  0
 12  7  1  0
 10 11  1  0
 11 16  1  0
 16 15  2  0
 15 14  1  0
 14 13  2  0
 13 10  1  0
M  END
$$$$
