No_2231-complexes_sdf/6BKW-FPZ/2024-09-17-14-21-01/
     RDKit          3D

 15 16  0  0  0  0  0  0  0  0999 V2000
   -7.7129    4.2099   27.0854 C   0  0  0  0  0  0  0  0  0  0  0  0
   -7.7814    5.1722   27.8972 C   0  0  0  0  0  0  0  0  0  0  0  0
   -8.8998    3.8713   26.3707 C   0  0  0  0  0  0  0  0  0  0  0  0
   -8.9563    2.6796   25.5490 C   0  0  0  0  0  0  0  0  0  0  0  0
   -8.8131    6.1334   27.9344 C   0  0  0  0  0  0  0  0  0  0  0  0
   -9.9804    5.8121   27.1929 C   0  0  0  0  0  0  0  0  0  0  0  0
   -9.9861    4.6836   26.4532 C   0  0  0  0  0  0  0  0  0  0  0  0
   -8.3568    1.4858   26.0897 C   0  0  0  0  0  0  0  0  0  0  0  0
   -9.0262    0.5760   26.4077 C   0  0  0  0  0  0  0  0  0  0  0  0
  -10.2590    0.5818   26.7692 C   0  0  0  0  0  0  0  0  0  0  0  0
  -10.9584    1.7746   26.9009 C   0  0  0  0  0  0  0  0  0  0  0  0
  -12.1854    1.9259   27.6540 C   0  0  0  0  0  0  0  0  0  0  0  0
  -10.5205    2.1241   25.7038 C   0  0  0  0  0  0  0  0  0  0  0  0
  -11.2499    2.2315   24.5137 C   0  0  0  0  0  0  0  0  0  0  0  0
  -10.7988    1.7203   23.3242 C   0  0  0  0  0  0  0  0  0  0  0  0
  3  4  1  0
 11 12  1  0
 13 14  1  0
 14 15  1  0
  4  8  2  0
  8  9  1  0
  9 10  2  0
 10 11  1  0
 11 13  2  0
 13  4  1  0
  1  2  2  0
  2  5  1  0
  5  6  2  0
  6  7  1  0
  7  3  2  0
  3  1  1  0
M  END
$$$$
