No_2265-complexes_sdf/6BKW-FPZ/2024-09-17-14-21-01/
     RDKit          3D

 28 30  0  0  0  0  0  0  0  0999 V2000
   -7.9040    3.9820   27.1177 C   0  0  0  0  0  0  0  0  0  0  0  0
   -8.2057    2.8231   26.8733 C   0  0  0  0  0  0  0  0  0  0  0  0
   -7.4766    1.7477   27.4593 C   0  0  0  0  0  0  0  0  0  0  0  0
   -8.7468    5.1251   26.6967 C   0  0  0  0  0  0  0  0  0  0  0  0
   -9.7234    4.8589   25.8202 C   0  0  0  0  0  0  0  0  0  0  0  0
   -9.9711    3.5858   25.4266 C   0  0  0  0  0  0  0  0  0  0  0  0
   -9.2266    2.4957   25.9600 C   0  0  0  0  0  0  0  0  0  0  0  0
   -6.6425    0.9223   26.7531 C   0  0  0  0  0  0  0  0  0  0  0  0
   -5.9067   -0.0723   27.5013 C   0  0  2  0  0  0  0  0  0  0  0  0
   -4.8126   -0.1406   27.6207 C   0  0  0  0  0  0  0  0  0  0  0  0
   -4.0698   -1.0643   28.5099 C   0  0  0  0  0  0  0  0  0  0  0  0
   -2.6984   -1.0826   28.7607 C   0  0  0  0  0  0  0  0  0  0  0  0
   -1.9492   -0.1519   27.9862 C   0  0  0  0  0  0  0  0  0  0  0  0
   -2.5244    0.7399   27.1477 C   0  0  0  0  0  0  0  0  0  0  0  0
   -3.8552    0.8104   26.9931 C   0  0  0  0  0  0  0  0  0  0  0  0
   -8.6644    6.5501   27.0364 C   0  0  0  0  0  0  0  0  0  0  0  0
   -8.4311    6.9591   28.2022 N   0  0  0  0  0  0  0  0  0  0  0  0
   -8.5008    7.4345   26.0897 O   0  0  0  0  0  0  0  0  0  0  0  0
   -6.8612   -1.1301   27.9632 C   0  0  0  0  0  0  0  0  0  0  0  0
   -7.2603   -2.0964   27.1243 C   0  0  0  0  0  0  0  0  0  0  0  0
   -8.1391   -2.9697   27.5240 C   0  0  0  0  0  0  0  0  0  0  0  0
   -8.6169   -2.9414   28.8579 C   0  0  0  0  0  0  0  0  0  0  0  0
   -8.1102   -2.0377   29.7544 C   0  0  0  0  0  0  0  0  0  0  0  0
   -7.2323   -1.1158   29.3593 C   0  0  0  0  0  0  0  0  0  0  0  0
   -8.7635   -3.9517   26.6102 C   0  0  1  0  0  0  0  0  0  0  0  0
   -9.5773   -3.6649   25.7738 Cl  0  0  0  0  0  0  0  0  0  0  0  0
   -8.0948   -5.2586   26.7630 C   0  0  0  0  0  0  0  0  0  0  0  0
   -7.5688   -5.7947   27.5669 O   0  0  0  0  0  0  0  0  0  0  0  0
  2  3  1  0
  3  8  2  3
  8  9  1  0
  4 16  1  0
 16 17  1  0
 16 18  2  0
  9 19  1  6
 21 25  1  0
 25 26  1  6
 25 27  1  0
 27 28  2  0
  9 10  1  0
  1  2  2  0
  2  7  1  0
  7  6  2  0
  6  5  1  0
  5  4  2  0
  4  1  1  0
 10 11  2  0
 11 12  1  0
 12 13  2  0
 13 14  1  0
 14 15  2  0
 15 10  1  0
 19 20  2  0
 20 21  1  0
 21 22  2  0
 22 23  1  0
 23 24  2  0
 24 19  1  0
M  END
$$$$
