No_2011-complexes_sdf/6BKW-FPZ/2024-09-17-14-21-01/
     RDKit          3D

 24 25  0  0  0  0  0  0  0  0999 V2000
   -7.7129    4.2099   27.0854 C   0  0  0  0  0  0  0  0  0  0  0  0
   -8.2112    3.0637   26.9225 C   0  0  0  0  0  0  0  0  0  0  0  0
   -8.5108    5.3904   26.9436 C   0  0  0  0  0  0  0  0  0  0  0  0
   -9.7256    5.1955   26.3518 C   0  0  0  0  0  0  0  0  0  0  0  0
   -9.4995    2.8258   26.4878 C   0  0  0  0  0  0  0  0  0  0  0  0
  -10.2542    3.9691   26.2055 C   0  0  0  0  0  0  0  0  0  0  0  0
   -7.9135    6.7086   27.1885 C   0  0  0  0  0  0  0  0  0  0  0  0
   -7.2143    1.6300   27.3319 Cl  0  0  0  0  0  0  0  0  0  0  0  0
   -8.6521    7.7255   27.0041 F   0  0  0  0  0  0  0  0  0  0  0  0
   -7.4927    6.7387   28.5442 F   0  0  0  0  0  0  0  0  0  0  0  0
   -6.7948    6.9103   26.5327 F   0  0  0  0  0  0  0  0  0  0  0  0
  -11.5844    3.8501   25.6130 C   0  0  2  0  0  0  0  0  0  0  0  0
  -12.6648    3.4477   26.4092 C   0  0  0  0  0  0  0  0  0  0  0  0
  -12.5541    3.2174   27.6497 C   0  0  0  0  0  0  0  0  0  0  0  0
  -13.7430    2.8869   28.4964 C   0  0  0  0  0  0  0  0  0  0  0  0
  -13.6191    2.5873   29.8933 C   0  0  0  0  0  0  0  0  0  0  0  0
  -12.3679    2.8696   30.4222 C   0  0  0  0  0  0  0  0  0  0  0  0
  -11.2952    3.3124   29.6088 C   0  0  0  0  0  0  0  0  0  0  0  0
  -11.3780    3.5540   28.3639 C   0  0  0  0  0  0  0  0  0  0  0  0
  -11.5508    3.8163   24.1918 C   0  0  0  0  0  0  0  0  0  0  0  0
  -12.6574    4.1303   23.4147 C   0  0  0  0  0  0  0  0  0  0  0  0
  -12.6039    4.2079   22.0123 C   0  0  0  0  0  0  0  0  0  0  0  0
  -11.3228    3.9925   21.3803 C   0  0  0  0  0  0  0  0  0  0  0  0
  -10.2030    3.7267   22.1497 C   0  0  0  0  0  0  0  0  0  0  0  0
  3  7  1  0
  2  8  1  0
  7  9  1  0
  7 10  1  0
  7 11  1  0
  6 12  1  0
 12 13  1  1
 12 20  1  0
 20 21  2  3
 21 22  1  0
 22 23  2  3
 23 24  1  0
 13 14  1  0
 14 15  2  0
 15 16  1  0
 16 17  2  0
 17 18  1  0
 18 19  2  0
 19 14  1  0
  1  2  2  0
  2  5  1  0
  5  6  2  0
  6  4  1  0
  4  3  2  0
  3  1  1  0
M  END
$$$$
