No_2453-complexes_sdf/6BKW-FPZ/2024-09-17-14-21-01/
     RDKit          3D

 40 44  0  0  0  0  0  0  0  0999 V2000
   -7.9040    3.9820   27.1177 C   0  0  0  0  0  0  0  0  0  0  0  0
   -9.0711    4.3164   27.0630 C   0  0  0  0  0  0  0  0  0  0  0  0
   -9.9692    3.7224   26.1073 C   0  0  0  0  0  0  0  0  0  0  0  0
   -6.9787    4.6761   28.1003 C   0  0  0  0  0  0  0  0  0  0  0  0
   -9.4538    2.6801   25.3673 C   0  0  0  0  0  0  0  0  0  0  0  0
   -8.1927    2.1957   25.6621 C   0  0  0  0  0  0  0  0  0  0  0  0
   -7.4333    2.8255   26.6299 C   0  0  0  0  0  0  0  0  0  0  0  0
  -10.3066    1.9975   24.3777 C   0  0  1  0  0  0  0  0  0  0  0  0
  -10.6559    2.6408   23.2832 C   0  0  0  0  0  0  0  0  0  0  0  0
  -10.3430    4.0877   23.1288 C   0  0  0  0  0  0  0  0  0  0  0  0
  -10.7089    4.7827   21.9427 C   0  0  0  0  0  0  0  0  0  0  0  0
  -11.0259    2.1699   22.0163 C   0  0  0  0  0  0  0  0  0  0  0  0
  -11.3947    2.8217   20.8792 C   0  0  0  0  0  0  0  0  0  0  0  0
  -11.1919    4.1920   20.8680 C   0  0  0  0  0  0  0  0  0  0  0  0
  -10.6352    0.6459   24.5635 C   0  0  0  0  0  0  0  0  0  0  0  0
  -10.3746   -0.0831   25.4602 N   0  0  0  0  0  0  0  0  0  0  0  0
  -10.8030    0.0245   26.6323 C   0  0  0  0  0  0  0  0  0  0  0  0
  -11.3375   -0.6899   27.3255 C   0  0  0  0  0  0  0  0  0  0  0  0
  -11.4054   -2.0137   27.1169 C   0  0  0  0  0  0  0  0  0  0  0  0
   -9.4311   -1.0966   25.2568 C   0  0  0  0  0  0  0  0  0  0  0  0
  -10.4848   -2.7830   26.4036 C   0  0  0  0  0  0  0  0  0  0  0  0
   -9.8617   -2.4255   25.3067 C   0  0  2  0  0  0  0  0  0  0  0  0
  -11.4945    0.1067   23.7414 O   0  0  0  0  0  0  0  0  0  0  0  0
   -7.4395    5.7553   28.6597 O   0  0  0  0  0  0  0  0  0  0  0  0
   -5.7830    4.2709   28.2366 O   0  0  0  0  0  0  0  0  0  0  0  0
   -9.2842   -3.3460   24.3894 C   0  0  0  0  0  0  0  0  0  0  0  0
   -8.4104   -3.3215   23.7918 O   0  0  0  0  0  0  0  0  0  0  0  0
  -10.1780   -4.4273   24.1496 O   0  0  0  0  0  0  0  0  0  0  0  0
  -12.3592   -0.1457   28.3397 C   0  0  0  0  0  0  0  0  0  0  0  0
  -13.5840    0.3265   27.9683 C   0  0  0  0  0  0  0  0  0  0  0  0
  -14.3951    0.9231   28.8809 C   0  0  0  0  0  0  0  0  0  0  0  0
  -14.0080    1.0142   30.2360 C   0  0  0  0  0  0  0  0  0  0  0  0
  -12.7864    0.4445   30.5927 C   0  0  0  0  0  0  0  0  0  0  0  0
  -11.9658   -0.0877   29.7225 C   0  0  0  0  0  0  0  0  0  0  0  0
  -15.0246    1.7778   31.4086 Cl  0  0  0  0  0  0  0  0  0  0  0  0
  -14.0024    0.2691   26.5845 C   0  0  0  0  0  0  0  0  0  0  0  0
  -15.1405    0.5596   26.1353 C   0  0  0  0  0  0  0  0  0  0  0  0
  -16.0801    1.1001   26.9921 C   0  0  0  0  0  0  0  0  0  0  0  0
  -15.7276    1.3665   28.4083 C   0  0  0  0  0  0  0  0  0  0  0  0
  -15.5453    0.4471   24.7248 C   0  0  0  0  0  0  0  0  0  0  0  0
  1  4  1  0
  5  8  1  0
  8 15  1  6
 15 16  1  0
 16 17  1  0
 17 18  2  0
 18 19  1  0
 16 20  1  0
 19 21  2  0
 20 22  1  0
 21 22  1  0
 15 23  2  0
  4 24  1  0
  4 25  2  0
 22 26  1  1
 26 27  2  0
 26 28  1  0
 18 29  1  0
 32 35  1  0
 37 40  1  0
  8  9  1  0
 29 30  2  0
 31 32  2  0
 32 33  1  0
 33 34  2  0
 34 29  1  0
 30 31  1  0
 31 39  1  0
 39 38  2  0
 38 37  1  0
 37 36  2  0
 36 30  1  0
  9 10  2  0
 10 11  1  0
 11 14  2  0
 14 13  1  0
 13 12  2  0
 12  9  1  0
  1  2  2  0
  2  3  1  0
  3  5  2  0
  5  6  1  0
  6  7  2  0
  7  1  1  0
M  END
$$$$
