No_2367-complexes_sdf/6BKW-FPZ/2024-09-17-14-21-01/
     RDKit          3D

 19 21  0  0  0  0  0  0  0  0999 V2000
   -7.9040    3.9820   27.1177 C   0  0  0  0  0  0  0  0  0  0  0  0
   -8.2057    2.8231   26.8733 C   0  0  0  0  0  0  0  0  0  0  0  0
   -7.0130    4.3706   28.1140 C   0  0  0  0  0  0  0  0  0  0  0  0
   -9.3829    2.4374   26.1668 C   0  0  0  0  0  0  0  0  0  0  0  0
  -10.0975    3.4171   25.5988 C   0  0  0  0  0  0  0  0  0  0  0  0
   -9.7335    4.7745   25.7705 C   0  0  0  0  0  0  0  0  0  0  0  0
   -8.7317    5.1107   26.5933 C   0  0  0  0  0  0  0  0  0  0  0  0
   -8.3983    6.4679   26.8933 C   0  0  0  0  0  0  0  0  0  0  0  0
   -7.3346    6.7850   27.7126 C   0  0  0  0  0  0  0  0  0  0  0  0
   -6.7763    5.7820   28.3880 C   0  0  0  0  0  0  0  0  0  0  0  0
   -7.5271    1.7900   27.4553 F   0  0  0  0  0  0  0  0  0  0  0  0
  -11.2202    3.1057   24.6799 C   0  0  0  0  0  0  0  0  0  0  0  0
  -11.3536    3.3660   23.5698 C   0  0  0  0  0  0  0  0  0  0  0  0
  -10.3908    3.8840   22.7916 C   0  0  0  0  0  0  0  0  0  0  0  0
  -10.4385    4.2267   21.3690 C   0  0  0  0  0  0  0  0  0  0  0  0
  -11.5915    3.8983   20.6983 C   0  0  0  0  0  0  0  0  0  0  0  0
  -12.6938    3.3823   21.4168 C   0  0  0  0  0  0  0  0  0  0  0  0
  -12.5609    3.1229   22.7206 C   0  0  0  0  0  0  0  0  0  0  0  0
  -12.2006    2.4846   25.4254 O   0  0  0  0  0  0  0  0  0  0  0  0
  2 11  1  0
  5 12  1  0
 12 13  1  0
 12 19  2  0
 13 14  2  0
 14 15  1  0
 15 16  2  0
 16 17  1  0
 17 18  2  0
 18 13  1  0
  1  3  1  0
  3 10  2  0
 10  9  1  0
  9  8  2  0
  8  7  1  0
  1  2  2  0
  2  4  1  0
  4  5  2  0
  5  6  1  0
  6  7  2  0
  7  1  1  0
M  END
$$$$
