No_2165-complexes_sdf/6BKW-FPZ/2024-09-17-14-21-01/
     RDKit          3D

 19 20  0  0  0  0  0  0  0  0999 V2000
   -7.9040    3.9820   27.1177 C   0  0  0  0  0  0  0  0  0  0  0  0
   -7.8663    4.8694   27.9238 C   0  0  0  0  0  0  0  0  0  0  0  0
   -7.4547    2.7080   27.4594 C   0  0  0  0  0  0  0  0  0  0  0  0
   -6.1474    2.6388   27.8014 C   0  0  0  0  0  0  0  0  0  0  0  0
   -8.5539    6.1392   27.6636 C   0  0  0  0  0  0  0  0  0  0  0  0
   -5.5162    1.3823   28.1415 C   0  0  0  0  0  0  0  0  0  0  0  0
   -4.2075    1.3041   28.6355 C   0  0  0  0  0  0  0  0  0  0  0  0
   -8.7864    4.1526   25.9696 C   0  0  0  0  0  0  0  0  0  0  0  0
   -9.3280    3.0345   25.2248 C   0  0  0  0  0  0  0  0  0  0  0  0
   -8.7480    6.5665   26.5928 C   0  0  0  0  0  0  0  0  0  0  0  0
   -9.3133    5.4854   25.7001 C   0  0  0  0  0  0  0  0  0  0  0  0
   -6.2300    0.1854   27.8423 C   0  0  0  0  0  0  0  0  0  0  0  0
   -3.6080    0.1169   29.1184 C   0  0  0  0  0  0  0  0  0  0  0  0
   -5.5839   -1.0633   28.2368 C   0  0  0  0  0  0  0  0  0  0  0  0
   -4.3569   -1.0685   28.8572 C   0  0  0  0  0  0  0  0  0  0  0  0
   -9.9748    3.1488   24.1436 C   0  0  0  0  0  0  0  0  0  0  0  0
  -10.3849    2.0469   23.2872 C   0  0  0  0  0  0  0  0  0  0  0  0
   -9.9029    0.7614   23.7340 C   0  0  0  0  0  0  0  0  0  0  0  0
   -9.2428    0.7142   24.7839 C   0  0  0  0  0  0  0  0  0  0  0  0
  1  2  1  0
  1  3  2  3
  3  4  1  0
  2  5  1  0
  1  8  1  0
  8  9  2  3
  5 10  1  0
  8 11  1  0
 10 11  1  0
  9 16  1  0
 16 17  2  3
 17 18  1  0
 18 19  2  0
  4  6  1  0
  6  7  2  0
  7 13  1  0
 13 15  2  0
 15 14  1  0
 14 12  2  0
 12  6  1  0
M  END
$$$$
