No_2135-complexes_sdf/6BKW-FPZ/2024-09-17-14-21-01/
     RDKit          3D

 25 28  0  0  0  0  0  0  0  0999 V2000
   -7.9040    3.9820   27.1177 C   0  0  0  0  0  0  0  0  0  0  0  0
   -9.0711    4.3164   27.0630 C   0  0  0  0  0  0  0  0  0  0  0  0
   -9.8698    3.9665   25.9494 C   0  0  0  0  0  0  0  0  0  0  0  0
   -7.0332    4.5030   28.2025 C   0  0  0  0  0  0  0  0  0  0  0  0
  -10.9909    4.7237   25.5958 C   0  0  0  0  0  0  0  0  0  0  0  0
   -7.4989    5.5573   28.9524 C   0  0  0  0  0  0  0  0  0  0  0  0
  -11.7350    4.2316   24.5284 C   0  0  0  0  0  0  0  0  0  0  0  0
  -11.2838    3.2467   23.6902 C   0  0  0  0  0  0  0  0  0  0  0  0
  -10.1288    2.5811   23.9926 C   0  0  0  0  0  0  0  0  0  0  0  0
   -9.3812    2.9944   25.1034 C   0  0  0  0  0  0  0  0  0  0  0  0
   -9.4806    5.4316   27.8950 C   0  0  0  0  0  0  0  0  0  0  0  0
   -8.7091    6.0105   28.8141 C   0  0  0  0  0  0  0  0  0  0  0  0
  -12.0379    2.8214   22.4801 C   0  0  0  0  0  0  0  0  0  0  0  0
  -11.5157    2.9483   21.3861 C   0  0  0  0  0  0  0  0  0  0  0  0
  -11.9700    2.6579   20.1355 C   0  0  0  0  0  0  0  0  0  0  0  0
  -13.3787    2.5108   22.5745 C   0  0  0  0  0  0  0  0  0  0  0  0
  -14.0590    2.2262   21.3518 C   0  0  0  0  0  0  0  0  0  0  0  0
  -13.3387    2.3249   20.1646 C   0  0  0  0  0  0  0  0  0  0  0  0
   -9.5769    1.5277   23.1451 C   0  0  0  0  0  0  0  0  0  0  0  0
   -9.0473    0.3824   23.9104 C   0  0  0  0  0  0  0  0  0  0  0  0
   -8.3789   -0.5813   23.2256 C   0  0  0  0  0  0  0  0  0  0  0  0
   -7.5692   -1.5119   23.8261 C   0  0  0  0  0  0  0  0  0  0  0  0
   -7.4556   -1.5496   25.2373 C   0  0  0  0  0  0  0  0  0  0  0  0
   -8.0930   -0.5024   25.9390 C   0  0  0  0  0  0  0  0  0  0  0  0
   -8.7726    0.4487   25.3132 C   0  0  0  0  0  0  0  0  0  0  0  0
  8 13  1  0
  9 19  1  0
 19 20  1  0
  3  2  1  0
  1  2  2  0
  2 11  1  0
 11 12  2  0
 12  6  1  0
  6  4  2  0
  4  1  1  0
 13 14  2  0
 14 15  1  0
 15 18  2  0
 18 17  1  0
 17 16  2  0
 16 13  1  0
  3  5  2  0
  5  7  1  0
  7  8  2  0
  8  9  1  0
  9 10  2  0
 10  3  1  0
 20 21  2  0
 21 22  1  0
 22 23  2  0
 23 24  1  0
 24 25  2  0
 25 20  1  0
M  END
$$$$
