No_2790-complexes_sdf/6BKW-FPZ/2024-09-17-14-21-01/
     RDKit          3D

 17 18  0  0  0  0  0  0  0  0999 V2000
   -7.9040    3.9820   27.1177 C   0  0  2  0  0  0  0  0  0  0  0  0
   -9.0711    4.3164   27.0630 C   0  0  1  0  0  0  0  0  0  0  0  0
   -9.5294    5.4517   27.7215 C   0  0  0  0  0  0  0  0  0  0  0  0
   -9.9845    3.5634   26.2189 C   0  0  0  0  0  0  0  0  0  0  0  0
  -10.7684    4.0785   25.5182 C   0  0  0  0  0  0  0  0  0  0  0  0
   -7.0668    4.5918   28.0499 N   0  0  0  0  0  0  0  0  0  0  0  0
  -10.8857    3.8516   24.3059 C   0  0  0  0  0  0  0  0  0  0  0  0
  -10.3844    2.6621   23.7312 C   0  0  0  0  0  0  0  0  0  0  0  0
   -9.5756    1.9061   24.5728 C   0  0  0  0  0  0  0  0  0  0  0  0
   -9.2226    2.4648   25.7421 C   0  0  0  0  0  0  0  0  0  0  0  0
   -7.9454    2.1904   26.3760 C   0  0  1  0  0  0  0  0  0  0  0  0
   -7.1139    4.4996   26.2230 O   0  0  0  0  0  0  0  0  0  0  0  0
   -8.0441    1.4041   27.6007 C   0  0  0  0  0  0  0  0  0  0  0  0
   -6.9125    1.8647   25.7348 O   0  0  0  0  0  0  0  0  0  0  0  0
   -7.6566    5.4758   28.9217 C   0  0  0  0  0  0  0  0  0  0  0  0
   -8.8154    5.9623   28.7202 N   0  0  0  0  0  0  0  0  0  0  0  0
   -7.3004    1.5121   25.9353 Cl  0  0  0  0  0  0  0  0  0  0  0  0
  1  2  1  0
  2  3  1  0
  2  4  1  6
  1  6  1  0
 10 11  1  0
  1 12  1  6
 11 13  1  1
 11 14  1  0
  6 15  1  0
  3 16  1  0
 15 16  1  0
 14 17  1  0
  4  5  2  0
  5  7  1  0
  7  8  2  0
  8  9  1  0
  9 10  2  0
 10  4  1  0
M  END
$$$$
