No_2900-complexes_sdf/6BKW-FPZ/2024-09-17-14-21-01/
     RDKit          3D

 15 15  0  0  0  0  0  0  0  0999 V2000
   -7.9040    3.9820   27.1177 C   0  0  0  0  0  0  0  0  0  0  0  0
   -9.0711    4.3164   27.0630 C   0  0  0  0  0  0  0  0  0  0  0  0
   -9.5182    5.5541   27.5777 C   0  0  0  0  0  0  0  0  0  0  0  0
   -7.4468    2.6843   26.6499 C   0  0  0  0  0  0  0  0  0  0  0  0
   -8.3856    1.7878   26.2216 C   0  0  0  0  0  0  0  0  0  0  0  0
   -9.6812    2.2328   26.0889 C   0  0  0  0  0  0  0  0  0  0  0  0
  -10.0147    3.4312   26.5259 C   0  0  0  0  0  0  0  0  0  0  0  0
   -7.9132    0.4733   25.8127 C   0  0  0  0  0  0  0  0  0  0  0  0
   -8.0164    0.2707   24.5764 F   0  0  0  0  0  0  0  0  0  0  0  0
   -8.7023   -0.4956   26.4325 F   0  0  0  0  0  0  0  0  0  0  0  0
   -6.6928    0.1332   26.1959 F   0  0  0  0  0  0  0  0  0  0  0  0
  -10.7164    5.7094   28.0975 F   0  0  0  0  0  0  0  0  0  0  0  0
   -9.3525    6.7006   26.7297 F   0  0  0  0  0  0  0  0  0  0  0  0
   -8.6318    6.0326   28.6242 F   0  0  0  0  0  0  0  0  0  0  0  0
   -6.8436    4.6382   27.7489 O   0  0  0  0  0  0  0  0  0  0  0  0
  2  3  1  0
  5  8  1  0
  8  9  1  0
  8 10  1  0
  8 11  1  0
  3 12  1  0
  3 13  1  0
  3 14  1  0
  1 15  1  0
  1  2  2  0
  2  7  1  0
  7  6  2  0
  6  5  1  0
  5  4  2  0
  4  1  1  0
M  END
$$$$
