No_2462-complexes_sdf/6BKW-FPZ/2024-09-17-14-21-01/
     RDKit          3D

 38 41  0  0  0  0  0  0  0  0999 V2000
   -7.9040    3.9820   27.1177 C   0  0  0  0  0  0  0  0  0  0  0  0
   -8.2057    2.8231   26.8733 C   0  0  0  0  0  0  0  0  0  0  0  0
   -8.7695    5.0740   26.7916 C   0  0  0  0  0  0  0  0  0  0  0  0
   -9.9618    4.7598   26.1630 C   0  0  0  0  0  0  0  0  0  0  0  0
   -9.4200    2.4524   26.2850 C   0  0  0  0  0  0  0  0  0  0  0  0
  -10.2590    3.4815   25.9250 C   0  0  0  0  0  0  0  0  0  0  0  0
   -8.3840    6.4693   27.0829 C   0  0  0  0  0  0  0  0  0  0  0  0
   -7.9048    6.7586   28.1698 O   0  0  0  0  0  0  0  0  0  0  0  0
   -8.8630    7.4473   26.2923 O   0  0  0  0  0  0  0  0  0  0  0  0
   -7.1107    1.7817   27.3333 C   0  0  0  0  0  0  0  0  0  0  0  0
   -7.3716    0.3681   27.2166 C   0  0  0  0  0  0  0  0  0  0  0  0
   -6.3793   -0.4668   27.6567 C   0  0  0  0  0  0  0  0  0  0  0  0
   -5.1765    0.0610   28.2091 C   0  0  0  0  0  0  0  0  0  0  0  0
   -4.1374   -0.7742   28.7448 C   0  0  0  0  0  0  0  0  0  0  0  0
   -4.9829    1.4331   28.3048 C   0  0  0  0  0  0  0  0  0  0  0  0
   -5.9002    2.2482   27.8721 C   0  0  0  0  0  0  0  0  0  0  0  0
   -4.1705   -1.1043   30.0738 C   0  0  0  0  0  0  0  0  0  0  0  0
   -3.1561   -1.6560   30.7287 C   0  0  0  0  0  0  0  0  0  0  0  0
   -2.0058   -2.0466   29.9602 C   0  0  0  0  0  0  0  0  0  0  0  0
   -1.9515   -1.7225   28.6356 C   0  0  0  0  0  0  0  0  0  0  0  0
   -2.9628   -0.9940   28.0091 C   0  0  0  0  0  0  0  0  0  0  0  0
   -2.8428   -0.6323   26.6141 C   0  0  0  0  0  0  0  0  0  0  0  0
   -3.2400   -1.9682   32.2078 C   0  0  0  0  0  0  0  0  0  0  0  0
   -2.4550   -1.6227   33.0149 F   0  0  0  0  0  0  0  0  0  0  0  0
   -4.3914   -1.4345   32.6931 F   0  0  0  0  0  0  0  0  0  0  0  0
   -3.3301   -3.3253   32.2940 F   0  0  0  0  0  0  0  0  0  0  0  0
   -6.5628   -1.8857   27.6426 C   0  0  0  0  0  0  0  0  0  0  0  0
   -7.5351   -2.4685   27.3662 C   0  0  0  0  0  0  0  0  0  0  0  0
   -7.7135   -3.9159   27.3611 C   0  0  0  0  0  0  0  0  0  0  0  0
   -6.6184   -4.6018   27.8228 C   0  0  0  0  0  0  0  0  0  0  0  0
   -5.4325   -4.0087   28.1984 C   0  0  0  0  0  0  0  0  0  0  0  0
   -5.3777   -2.6949   28.1276 C   0  0  0  0  0  0  0  0  0  0  0  0
   -4.2996   -4.8520   28.6273 C   0  0  0  0  0  0  0  0  0  0  0  0
   -3.1637   -4.9743   27.8664 C   0  0  0  0  0  0  0  0  0  0  0  0
   -2.0874   -5.7392   28.3408 C   0  0  0  0  0  0  0  0  0  0  0  0
   -0.8911   -5.8142   27.6089 C   0  0  0  0  0  0  0  0  0  0  0  0
   -0.8437   -5.1811   26.3759 C   0  0  0  0  0  0  0  0  0  0  0  0
   -1.9175   -4.4431   25.8781 C   0  0  0  0  0  0  0  0  0  0  0  0
  3  7  1  0
  7  8  2  0
  7  9  1  0
  2 10  1  0
 13 14  1  0
 21 22  1  0
 18 23  1  0
 23 24  1  0
 23 25  1  0
 23 26  1  0
 12 27  1  0
 31 33  1  0
 33 34  2  3
 34 35  1  0
 35 36  2  3
 36 37  1  0
 37 38  2  0
 10 11  2  0
 11 12  1  0
 12 13  2  0
 13 15  1  0
 15 16  2  0
 16 10  1  0
 14 17  2  0
 17 18  1  0
 18 19  2  0
 19 20  1  0
 20 21  2  0
 21 14  1  0
 27 28  2  0
 28 29  1  0
 29 30  2  0
 30 31  1  0
 31 32  2  0
 32 27  1  0
  1  2  2  0
  2  5  1  0
  5  6  2  0
  6  4  1  0
  4  3  2  0
  3  1  1  0
M  END
$$$$
