No_2960-complexes_sdf/6BKW-FPZ/2024-09-17-14-21-01/
     RDKit          3D

 20 22  0  0  0  0  0  0  0  0999 V2000
   -7.9040    3.9820   27.1177 C   0  0  0  0  0  0  0  0  0  0  0  0
   -7.8663    4.8694   27.9238 C   0  0  0  0  0  0  0  0  0  0  0  0
   -9.0491    3.8523   26.2542 C   0  0  0  0  0  0  0  0  0  0  0  0
   -8.7661    5.9491   27.9690 C   0  0  0  0  0  0  0  0  0  0  0  0
   -9.9295    4.8502   26.2323 C   0  0  0  0  0  0  0  0  0  0  0  0
   -9.8077    5.9288   27.0933 C   0  0  0  0  0  0  0  0  0  0  0  0
   -6.8002    2.6256   27.2024 Cl  0  0  0  0  0  0  0  0  0  0  0  0
   -9.3727    2.4820   25.0294 Br  0  0  0  0  0  0  0  0  0  0  0  0
  -10.9108    4.8697   25.3345 O   0  0  0  0  0  0  0  0  0  0  0  0
  -11.7918    3.9245   25.3992 C   0  0  0  0  0  0  0  0  0  0  0  0
  -12.3758    3.5472   24.0884 C   0  0  0  0  0  0  0  0  0  0  0  0
  -13.3232    2.5787   24.0499 C   0  0  0  0  0  0  0  0  0  0  0  0
  -13.8337    2.0785   25.2520 C   0  0  0  0  0  0  0  0  0  0  0  0
  -13.3116    2.4785   26.4666 C   0  0  0  0  0  0  0  0  0  0  0  0
  -12.3181    3.4494   26.5714 C   0  0  0  0  0  0  0  0  0  0  0  0
  -14.8168    1.1777   25.1472 F   0  0  0  0  0  0  0  0  0  0  0  0
  -13.8712    2.2123   22.7580 C   0  0  0  0  0  0  0  0  0  0  0  0
  -13.4986    2.8945   21.7179 C   0  0  0  0  0  0  0  0  0  0  0  0
  -12.4683    3.9116   21.8530 C   0  0  0  0  0  0  0  0  0  0  0  0
  -11.9632    4.2781   23.0345 C   0  0  0  0  0  0  0  0  0  0  0  0
  1  7  1  0
  3  8  1  0
  5  9  1  0
  9 10  1  0
 13 16  1  0
  1  2  2  0
  2  4  1  0
  4  6  2  0
  6  5  1  0
  5  3  2  0
  3  1  1  0
 10 11  2  0
 12 13  2  0
 13 14  1  0
 14 15  2  0
 15 10  1  0
 11 12  1  0
 12 17  1  0
 17 18  2  0
 18 19  1  0
 19 20  2  0
 20 11  1  0
M  END
$$$$
