No_2322-complexes_sdf/6BKW-FPZ/2024-09-17-14-21-01/
     RDKit          3D

 33 37  0  0  0  0  0  0  0  0999 V2000
   -7.2496    3.8871   27.4508 C   0  0  0  0  0  0  0  0  0  0  0  0
   -7.9379    4.9063   27.8518 C   0  0  0  0  0  0  0  0  0  0  0  0
   -7.5112    6.1898   27.6280 C   0  0  0  0  0  0  0  0  0  0  0  0
   -7.8078    2.6331   27.2522 C   0  0  0  0  0  0  0  0  0  0  0  0
   -9.0519    2.5742   27.1375 C   0  0  0  0  0  0  0  0  0  0  0  0
   -9.9394    3.5573   27.6551 C   0  0  0  0  0  0  0  0  0  0  0  0
   -9.3786    4.8562   27.8916 C   0  0  0  0  0  0  0  0  0  0  0  0
   -6.9273    1.4883   26.8946 C   0  0  0  0  0  0  0  0  0  0  0  0
   -6.9270    0.4418   27.8256 C   0  0  0  0  0  0  0  0  0  0  0  0
   -5.9202   -0.5341   27.8174 C   0  0  0  0  0  0  0  0  0  0  0  0
   -4.9767   -0.3874   26.8232 C   0  0  0  0  0  0  0  0  0  0  0  0
   -4.9713    0.4993   25.8924 C   0  0  0  0  0  0  0  0  0  0  0  0
   -5.8881    1.4723   25.9978 C   0  0  0  0  0  0  0  0  0  0  0  0
   -5.9836   -1.5832   28.8720 C   0  0  0  0  0  0  0  0  0  0  0  0
   -5.3263   -1.4126   29.9006 N   0  0  0  0  0  0  0  0  0  0  0  0
   -5.6647   -1.8607   31.1993 C   0  0  0  0  0  0  0  0  0  0  0  0
   -4.9295   -1.3303   32.3409 C   0  0  0  0  0  0  0  0  0  0  0  0
   -3.8646   -0.4382   32.0586 C   0  0  0  0  0  0  0  0  0  0  0  0
   -3.5524   -0.0038   30.7865 C   0  0  0  0  0  0  0  0  0  0  0  0
   -4.2727   -0.4301   29.7930 C   0  0  0  0  0  0  0  0  0  0  0  0
  -11.3798    3.3313   27.8515 C   0  0  0  0  0  0  0  0  0  0  0  0
  -11.7625    2.2906   28.7081 C   0  0  0  0  0  0  0  0  0  0  0  0
  -13.0881    1.9973   29.0215 C   0  0  0  0  0  0  0  0  0  0  0  0
  -14.0624    2.8892   28.5108 C   0  0  0  0  0  0  0  0  0  0  0  0
  -12.3483    4.2437   27.4455 C   0  0  0  0  0  0  0  0  0  0  0  0
  -13.6615    4.0197   27.7464 C   0  0  0  0  0  0  0  0  0  0  0  0
   -3.8150   -1.4632   26.9002 C   0  0  0  0  0  0  0  0  0  0  0  0
   -3.9886   -2.5435   26.0333 C   0  0  0  0  0  0  0  0  0  0  0  0
   -4.2252   -3.5360   26.6602 C   0  0  0  0  0  0  0  0  0  0  0  0
   -3.4978   -3.8520   27.7652 C   0  0  0  0  0  0  0  0  0  0  0  0
   -2.8949   -2.8134   28.5058 C   0  0  0  0  0  0  0  0  0  0  0  0
   -2.9535   -1.4661   27.9341 C   0  0  0  0  0  0  0  0  0  0  0  0
   -6.7137   -2.5661   28.6299 O   0  0  0  0  0  0  0  0  0  0  0  0
  4  8  1  0
 10 14  1  0
 14 15  1  0
 15 16  1  0
 17 18  1  0
 15 20  1  0
 19 20  1  0
  6 21  1  0
 11 27  1  0
 14 33  2  0
  3  2  1  0
 16 17  1  0
 18 19  1  0
 21 22  2  0
 22 23  1  0
 23 24  2  0
 24 26  1  0
 26 25  2  0
 25 21  1  0
  1  2  2  0
  2  7  1  0
  7  6  2  0
  6  5  1  0
  5  4  2  0
  4  1  1  0
 27 28  2  0
 28 29  1  0
 29 30  2  0
 30 31  1  0
 31 32  2  0
 32 27  1  0
  8  9  2  0
  9 10  1  0
 10 11  2  0
 11 12  1  0
 12 13  2  0
 13  8  1  0
M  END
$$$$
