No_2685-complexes_sdf/6BKW-FPZ/2024-09-17-14-21-01/
     RDKit          3D

 30 33  0  0  0  0  0  0  0  0999 V2000
   -7.9040    3.9820   27.1177 C   0  0  0  0  0  0  0  0  0  0  0  0
   -7.8663    4.8694   27.9238 C   0  0  0  0  0  0  0  0  0  0  0  0
   -9.0501    3.8017   26.2617 C   0  0  0  0  0  0  0  0  0  0  0  0
  -10.0189    4.7608   26.3707 C   0  0  0  0  0  0  0  0  0  0  0  0
   -8.6973    5.9722   27.8968 C   0  0  0  0  0  0  0  0  0  0  0  0
   -9.8216    5.8946   27.1241 C   0  0  0  0  0  0  0  0  0  0  0  0
   -9.1313    2.7565   25.4802 F   0  0  0  0  0  0  0  0  0  0  0  0
   -6.9976    2.9125   27.1125 O   0  0  0  0  0  0  0  0  0  0  0  0
   -7.2303    1.7486   27.9206 C   0  0  1  0  0  0  0  0  0  0  0  0
   -8.0835    0.7581   27.3580 C   0  0  0  0  0  0  0  0  0  0  0  0
   -7.8095   -0.5232   27.7145 C   0  0  0  0  0  0  0  0  0  0  0  0
   -6.6440   -0.8945   28.4244 C   0  0  0  0  0  0  0  0  0  0  0  0
   -5.6748    0.0802   28.6863 C   0  0  0  0  0  0  0  0  0  0  0  0
   -5.8672    1.3372   28.1807 C   0  0  0  0  0  0  0  0  0  0  0  0
   -4.3744   -0.2996   29.3303 C   0  0  0  0  0  0  0  0  0  0  0  0
   -3.9645   -1.5385   29.2940 C   0  0  0  0  0  0  0  0  0  0  0  0
   -4.6913   -2.4505   28.6166 C   0  0  0  0  0  0  0  0  0  0  0  0
   -6.1512   -2.2804   28.3975 C   0  0  2  0  0  0  0  0  0  0  0  0
   -3.4889    0.8497   29.7614 C   0  0  0  0  0  0  0  0  0  0  0  0
   -6.7892   -3.1310   27.4313 C   0  0  0  0  0  0  0  0  0  0  0  0
   -6.6055   -4.1661   27.3293 C   0  0  0  0  0  0  0  0  0  0  0  0
   -8.0599   -2.5257   26.8342 C   0  0  0  0  0  0  0  0  0  0  0  0
   -8.6774   -1.5403   27.5110 C   0  0  0  0  0  0  0  0  0  0  0  0
   -6.6291   -5.1862   26.8346 C   0  0  0  0  0  0  0  0  0  0  0  0
   -5.9831   -6.4018   27.1068 C   0  0  0  0  0  0  0  0  0  0  0  0
   -5.1257   -6.2315   28.1009 C   0  0  0  0  0  0  0  0  0  0  0  0
   -4.8469   -5.2168   28.8368 C   0  0  0  0  0  0  0  0  0  0  0  0
   -5.4719   -4.1318   28.5560 C   0  0  0  0  0  0  0  0  0  0  0  0
   -6.2988   -4.0554   30.0159 C   0  0  0  0  0  0  0  0  0  0  0  0
   -4.1728   -3.8170   27.5847 C   0  0  0  0  0  0  0  0  0  0  0  0
  1  2  2  0
  1  3  1  0
  3  4  2  0
  2  5  1  0
  4  6  1  0
  5  6  2  0
  3  7  1  0
  1  8  1  0
  9  8  1  6
  9 10  1  0
 10 11  2  0
 11 12  1  0
 12 13  2  0
  9 14  1  0
 13 14  1  0
 13 15  1  0
 15 16  2  0
 16 17  1  0
 12 18  1  0
 18 17  1  6
 15 19  1  0
 18 20  1  0
 20 21  2  3
 20 22  1  0
 11 23  1  0
 22 23  2  0
 21 24  1  0
 24 25  2  3
 25 26  1  0
 26 27  2  3
 27 28  1  0
 28 29  1  0
 28 30  1  0
M  END
$$$$
