No_2185-complexes_sdf/6BKW-FPZ/2024-09-17-14-21-01/
     RDKit          3D

 27 30  0  0  0  0  0  0  0  0999 V2000
   -7.2496    3.8871   27.4508 C   0  0  0  0  0  0  0  0  0  0  0  0
   -7.6161    2.7143   27.1523 C   0  0  0  0  0  0  0  0  0  0  0  0
   -8.8302    2.4659   26.5056 C   0  0  0  0  0  0  0  0  0  0  0  0
   -8.1584    5.0090   27.3234 C   0  0  0  0  0  0  0  0  0  0  0  0
   -9.3788    4.7965   26.7695 C   0  0  0  0  0  0  0  0  0  0  0  0
   -9.7028    3.5649   26.3276 C   0  0  0  0  0  0  0  0  0  0  0  0
   -6.5601    1.6614   27.4277 C   0  0  0  0  0  0  0  0  0  0  0  0
   -5.4099    1.9197   28.0803 C   0  0  0  0  0  0  0  0  0  0  0  0
   -7.0445    0.2715   27.2762 C   0  0  0  0  0  0  0  0  0  0  0  0
   -4.4848    0.8626   28.3279 C   0  0  0  0  0  0  0  0  0  0  0  0
   -6.0990   -0.7239   27.6419 C   0  0  0  0  0  0  0  0  0  0  0  0
   -4.8233   -0.4210   28.2028 C   0  0  0  0  0  0  0  0  0  0  0  0
   -7.7067    6.3662   27.7763 C   0  0  0  0  0  0  0  0  0  0  0  0
  -10.9917    3.3248   25.6384 C   0  0  0  0  0  0  0  0  0  0  0  0
  -12.0927    2.9249   26.2877 C   0  0  0  0  0  0  0  0  0  0  0  0
  -11.0699    3.4882   24.2139 C   0  0  0  0  0  0  0  0  0  0  0  0
  -10.9495    2.7405   23.4295 C   0  0  0  0  0  0  0  0  0  0  0  0
  -10.8745    3.0501   22.0186 C   0  0  0  0  0  0  0  0  0  0  0  0
  -10.9996    4.4063   21.5921 C   0  0  0  0  0  0  0  0  0  0  0  0
  -11.0450    5.3593   22.5951 C   0  0  0  0  0  0  0  0  0  0  0  0
  -11.0108    5.0371   23.8765 C   0  0  0  0  0  0  0  0  0  0  0  0
  -12.6743    2.7685   27.2893 C   0  0  0  0  0  0  0  0  0  0  0  0
  -13.9461    2.3705   27.6524 C   0  0  0  0  0  0  0  0  0  0  0  0
  -14.4400    2.2592   28.9754 C   0  0  0  0  0  0  0  0  0  0  0  0
  -13.5881    2.6926   30.0542 C   0  0  0  0  0  0  0  0  0  0  0  0
  -12.3429    3.2184   29.7954 C   0  0  0  0  0  0  0  0  0  0  0  0
  -11.8521    3.2965   28.5883 C   0  0  0  0  0  0  0  0  0  0  0  0
  2  7  1  0
  4 13  1  0
  6 14  1  0
 14 15  1  0
 14 16  1  0
 15 22  1  0
 22 23  2  0
 23 24  1  0
 24 25  2  0
 25 26  1  0
 26 27  2  0
 27 22  1  0
  1  2  2  0
  2  3  1  0
  3  6  2  0
  6  5  1  0
  5  4  2  0
  4  1  1  0
  7  8  2  0
  8 10  1  0
 10 12  2  0
 12 11  1  0
 11  9  2  0
  9  7  1  0
 16 17  2  0
 17 18  1  0
 18 19  2  0
 19 20  1  0
 20 21  2  0
 21 16  1  0
M  END
$$$$
