No_2731-complexes_sdf/6BKW-FPZ/2024-09-17-14-21-01/
     RDKit          3D

 12 13  0  0  0  0  0  0  0  0999 V2000
   -7.7129    4.2099   27.0854 C   0  0  0  0  0  0  0  0  0  0  0  0
   -7.7814    5.1722   27.8972 C   0  0  0  0  0  0  0  0  0  0  0  0
   -7.3155    2.9700   27.6145 C   0  0  0  0  0  0  0  0  0  0  0  0
   -7.9010    1.7962   27.2023 C   0  0  0  0  0  0  0  0  0  0  0  0
   -7.4186    0.5908   27.4662 C   0  0  0  0  0  0  0  0  0  0  0  0
   -8.6292    6.3374   27.5917 C   0  0  0  0  0  0  0  0  0  0  0  0
   -8.2184   -0.5648   27.2666 C   0  0  0  0  0  0  0  0  0  0  0  0
   -9.2395    1.8215   26.7176 C   0  0  0  0  0  0  0  0  0  0  0  0
   -9.9986    0.7357   26.5428 C   0  0  0  0  0  0  0  0  0  0  0  0
   -9.4771   -0.4706   26.7878 C   0  0  0  0  0  0  0  0  0  0  0  0
   -8.6781    4.2269   26.0469 C   0  0  0  0  0  0  0  0  0  0  0  0
   -9.1810    5.6919   26.2905 C   0  0  0  0  0  0  0  0  0  0  0  0
  1  2  1  0
  1  3  1  0
  3  4  1  0
  2  6  2  0
  1 11  1  0
  6 12  1  0
 11 12  2  0
  4  5  2  0
  5  7  1  0
  7 10  2  0
 10  9  1  0
  9  8  2  0
  8  4  1  0
M  END
$$$$
