No_2519-complexes_sdf/6BKW-FPZ/2024-09-17-14-21-01/
     RDKit          3D

 30 34  0  0  0  0  0  0  0  0999 V2000
   -7.9040    3.9820   27.1177 C   0  0  0  0  0  0  0  0  0  0  0  0
   -7.8663    4.8694   27.9238 C   0  0  0  0  0  0  0  0  0  0  0  0
   -9.0491    3.8523   26.2542 C   0  0  0  0  0  0  0  0  0  0  0  0
   -8.7661    5.9491   27.9690 C   0  0  0  0  0  0  0  0  0  0  0  0
   -9.9295    4.8502   26.2323 C   0  0  0  0  0  0  0  0  0  0  0  0
   -9.8077    5.9288   27.0933 C   0  0  0  0  0  0  0  0  0  0  0  0
   -6.9606    2.7994   27.1981 C   0  0  0  0  0  0  0  0  0  0  0  0
   -5.8717    2.9147   27.8925 N   0  0  0  0  0  0  0  0  0  0  0  0
   -7.2925    1.4919   26.7523 C   0  0  0  0  0  0  0  0  0  0  0  0
   -8.4898    1.0924   26.2450 C   0  0  0  0  0  0  0  0  0  0  0  0
   -6.3218    0.5009   27.1023 C   0  0  0  0  0  0  0  0  0  0  0  0
   -5.1480    0.7211   27.7634 C   0  0  0  0  0  0  0  0  0  0  0  0
   -4.9523    2.1070   28.1715 C   0  0  0  0  0  0  0  0  0  0  0  0
   -9.5020    0.6743   27.1817 C   0  0  0  0  0  0  0  0  0  0  0  0
   -8.7526    0.9773   24.8914 C   0  0  0  0  0  0  0  0  0  0  0  0
  -10.2834   -0.1240   27.2403 C   0  0  0  0  0  0  0  0  0  0  0  0
   -9.9017    0.1815   24.5456 C   0  0  0  0  0  0  0  0  0  0  0  0
  -10.7093   -0.3632   25.6424 C   0  0  0  0  0  0  0  0  0  0  0  0
   -4.1643   -0.2623   28.0826 C   0  0  0  0  0  0  0  0  0  0  0  0
   -3.4578   -0.3044   28.8495 C   0  0  0  0  0  0  0  0  0  0  0  0
   -2.3954   -1.2974   29.2242 C   0  0  0  0  0  0  0  0  0  0  0  0
   -2.3242   -2.3192   28.3610 C   0  0  0  0  0  0  0  0  0  0  0  0
   -4.0986   -1.4315   27.2321 C   0  0  0  0  0  0  0  0  0  0  0  0
   -3.1944   -2.3937   27.3263 C   0  0  0  0  0  0  0  0  0  0  0  0
  -11.8689   -1.1776   25.3318 C   0  0  0  0  0  0  0  0  0  0  0  0
  -12.5859   -1.7517   25.9088 N   0  0  0  0  0  0  0  0  0  0  0  0
  -11.8828   -1.5039   23.8799 C   0  0  0  0  0  0  0  0  0  0  0  0
  -11.1112   -1.0267   22.8964 C   0  0  0  0  0  0  0  0  0  0  0  0
  -10.0856   -0.1246   23.2553 C   0  0  0  0  0  0  0  0  0  0  0  0
  -12.5401   -1.5761   27.3294 C   0  0  0  0  0  0  0  0  0  0  0  0
  1  7  1  0
  9 10  1  0
 12 19  1  0
 26 30  1  0
 26 25  1  0
 18 25  1  0
 25 27  2  0
 27 28  1  0
 28 29  2  0
 29 17  1  0
 10 14  2  0
 14 16  1  0
 16 18  2  0
 18 17  1  0
 17 15  2  0
 15 10  1  0
 19 20  2  0
 20 21  1  0
 21 22  2  0
 22 24  1  0
 24 23  2  0
 23 19  1  0
  7  8  2  0
  8 13  1  0
 13 12  2  0
 12 11  1  0
 11  9  2  0
  9  7  1  0
  1  2  2  0
  2  4  1  0
  4  6  2  0
  6  5  1  0
  5  3  2  0
  3  1  1  0
M  END
$$$$
