No_2336-complexes_sdf/6BKW-FPZ/2024-09-17-14-21-01/
     RDKit          3D

 19 21  0  0  0  0  0  0  0  0999 V2000
   -7.2496    3.8871   27.4508 C   0  0  0  0  0  0  0  0  0  0  0  0
   -7.6161    2.7143   27.1523 C   0  0  0  0  0  0  0  0  0  0  0  0
   -7.1618    1.8631   27.5232 C   0  0  0  0  0  0  0  0  0  0  0  0
   -7.7575    4.8848   27.9618 C   0  0  0  0  0  0  0  0  0  0  0  0
   -7.5853    0.4757   27.3917 C   0  0  0  0  0  0  0  0  0  0  0  0
   -9.1666    5.1272   27.5722 C   0  0  0  0  0  0  0  0  0  0  0  0
   -9.8126    3.9953   27.0649 C   0  0  0  0  0  0  0  0  0  0  0  0
   -9.1347    2.7473   26.9715 C   0  0  0  0  0  0  0  0  0  0  0  0
   -8.9817    0.3993   27.0478 C   0  0  0  0  0  0  0  0  0  0  0  0
   -9.7939    1.5683   26.9103 C   0  0  0  0  0  0  0  0  0  0  0  0
  -11.2437    4.0963   26.8011 C   0  0  0  0  0  0  0  0  0  0  0  0
  -11.7529    4.0576   25.5788 C   0  0  0  0  0  0  0  0  0  0  0  0
  -13.0129    3.9540   25.1487 C   0  0  0  0  0  0  0  0  0  0  0  0
  -12.1919    4.1200   27.9013 C   0  0  0  0  0  0  0  0  0  0  0  0
  -13.5715    4.2272   27.6524 C   0  0  0  0  0  0  0  0  0  0  0  0
  -13.9770    4.2096   26.2727 C   0  0  0  0  0  0  0  0  0  0  0  0
  -15.4184    4.2947   25.9472 C   0  0  0  0  0  0  0  0  0  0  0  0
  -16.3090    4.6245   26.7134 C   0  0  0  0  0  0  0  0  0  0  0  0
  -15.8447    4.9389   28.1006 C   0  0  0  0  0  0  0  0  0  0  0  0
  7 11  1  0
 16 17  1  0
 17 18  2  3
 18 19  1  0
  1  2  2  0
  8  7  2  0
  7  6  1  0
  6  4  2  0
  4  1  1  0
  2  3  1  0
  3  5  2  0
  5  9  1  0
  9 10  2  0
 10  8  1  0
  8  2  1  0
 11 12  2  0
 12 13  1  0
 13 16  2  0
 16 15  1  0
 15 14  2  0
 14 11  1  0
M  END
$$$$
