No_2159-complexes_sdf/6BKW-FPZ/2024-09-17-14-21-01/
     RDKit          3D

 40 44  0  0  0  0  0  0  0  0999 V2000
   -7.7129    4.2099   27.0854 C   0  0  0  0  0  0  0  0  0  0  0  0
   -8.2112    3.0637   26.9225 C   0  0  0  0  0  0  0  0  0  0  0  0
   -7.5138    1.9223   27.4249 C   0  0  0  0  0  0  0  0  0  0  0  0
   -8.5309    5.4147   26.8151 C   0  0  0  0  0  0  0  0  0  0  0  0
   -9.6817    5.2393   26.1100 C   0  0  0  0  0  0  0  0  0  0  0  0
  -10.1032    3.9957   25.8534 C   0  0  0  0  0  0  0  0  0  0  0  0
   -9.4035    2.8430   26.2573 C   0  0  0  0  0  0  0  0  0  0  0  0
   -6.1481    1.9922   27.8210 C   0  0  0  0  0  0  0  0  0  0  0  0
   -5.4897    0.8126   28.2236 C   0  0  0  0  0  0  0  0  0  0  0  0
   -6.0879   -0.4018   28.1493 C   0  0  0  0  0  0  0  0  0  0  0  0
   -7.9411    0.6489   27.3619 N   0  0  0  0  0  0  0  0  0  0  0  0
   -7.3938   -0.4371   27.7698 C   0  0  0  0  0  0  0  0  0  0  0  0
   -7.9839    6.7615   27.0876 C   0  0  0  0  0  0  0  0  0  0  0  0
   -7.1481    6.8058   28.0377 F   0  0  0  0  0  0  0  0  0  0  0  0
   -8.3477    7.8005   26.5888 F   0  0  0  0  0  0  0  0  0  0  0  0
   -4.0738    0.7546   28.7456 C   0  0  0  0  0  0  0  0  0  0  0  0
   -3.5504   -0.1791   29.4075 N   0  0  0  0  0  0  0  0  0  0  0  0
   -2.4836   -0.8810   29.0334 C   0  0  0  0  0  0  0  0  0  0  0  0
   -4.0357   -0.3957   30.7502 C   0  0  0  0  0  0  0  0  0  0  0  0
   -4.6026   -1.4454   31.2031 C   0  0  0  0  0  0  0  0  0  0  0  0
   -4.1834   -2.1605   31.9327 C   0  0  0  0  0  0  0  0  0  0  0  0
   -3.2693   -1.6564   33.0805 C   0  0  0  0  0  0  0  0  0  0  0  0
   -2.6191   -0.4230   32.7392 C   0  0  0  0  0  0  0  0  0  0  0  0
   -3.1362    0.2612   31.7872 C   0  0  0  0  0  0  0  0  0  0  0  0
   -1.9817   -0.6293   27.7324 C   0  0  0  0  0  0  0  0  0  0  0  0
   -1.7017   -1.8057   29.7786 C   0  0  0  0  0  0  0  0  0  0  0  0
   -0.5985   -2.4205   29.3119 C   0  0  0  0  0  0  0  0  0  0  0  0
   -0.8436   -1.3101   27.1995 C   0  0  0  0  0  0  0  0  0  0  0  0
   -0.1549   -2.1406   27.9926 C   0  0  0  0  0  0  0  0  0  0  0  0
   -3.2728    1.5672   28.0661 O   0  0  0  0  0  0  0  0  0  0  0  0
  -11.3772    3.8519   25.0777 C   0  0  0  0  0  0  0  0  0  0  0  0
  -11.3381    3.7502   23.7538 C   0  0  0  0  0  0  0  0  0  0  0  0
  -10.2334    3.6252   23.0101 C   0  0  0  0  0  0  0  0  0  0  0  0
  -10.2102    3.5770   21.5985 C   0  0  0  0  0  0  0  0  0  0  0  0
  -11.3928    3.6796   20.9170 C   0  0  0  0  0  0  0  0  0  0  0  0
  -12.5496    3.9015   23.0216 C   0  0  0  0  0  0  0  0  0  0  0  0
  -12.5633    3.8590   21.6119 C   0  0  0  0  0  0  0  0  0  0  0  0
  -12.5760    3.8120   25.8754 C   0  0  0  0  0  0  0  0  0  0  0  0
  -12.6478    3.9337   27.2151 C   0  0  0  0  0  0  0  0  0  0  0  0
  -13.8512    4.0143   27.9223 C   0  0  0  0  0  0  0  0  0  0  0  0
  2  3  1  0
  4 13  1  0
 13 14  1  0
 13 15  1  0
  9 16  1  0
 16 17  1  0
 17 18  1  0
 17 19  1  0
 16 30  2  0
  6 31  1  0
 31 32  1  0
 31 38  1  0
 38 39  1  0
 39 40  2  0
 32 33  2  0
 33 34  1  0
 34 35  2  0
 35 37  1  0
 37 36  2  0
 36 32  1  0
 18 25  2  0
 25 28  1  0
 28 29  2  0
 29 27  1  0
 27 26  2  0
 26 18  1  0
  1  2  2  0
  2  7  1  0
  7  6  2  0
  6  5  1  0
  5  4  2  0
  4  1  1  0
 19 20  2  0
 20 21  1  0
 21 22  2  0
 22 23  1  0
 23 24  2  0
 24 19  1  0
  3  8  2  0
  8  9  1  0
  9 10  2  0
 10 12  1  0
 12 11  2  0
 11  3  1  0
M  END
$$$$
