No_2016-complexes_sdf/6BKW-FPZ/2024-09-17-14-21-01/
     RDKit          3D

 26 29  0  0  0  0  0  0  0  0999 V2000
   -7.7129    4.2099   27.0854 C   0  0  0  0  0  0  0  0  0  0  0  0
   -8.2112    3.0637   26.9225 C   0  0  0  0  0  0  0  0  0  0  0  0
   -8.5108    5.3904   26.9436 C   0  0  0  0  0  0  0  0  0  0  0  0
   -9.7256    5.1955   26.3518 C   0  0  0  0  0  0  0  0  0  0  0  0
   -9.4995    2.8258   26.4878 C   0  0  0  0  0  0  0  0  0  0  0  0
  -10.2542    3.9691   26.2055 C   0  0  0  0  0  0  0  0  0  0  0  0
   -7.9135    6.7086   27.1885 C   0  0  0  0  0  0  0  0  0  0  0  0
   -7.5950    1.7068   27.2240 C   0  0  0  0  0  0  0  0  0  0  0  0
   -6.2036    1.7732   27.6502 C   0  0  0  0  0  0  0  0  0  0  0  0
   -5.5222    0.5909   27.9562 C   0  0  0  0  0  0  0  0  0  0  0  0
   -6.1596   -0.6076   27.9653 C   0  0  0  0  0  0  0  0  0  0  0  0
   -8.0727    0.4706   27.2210 C   0  0  0  0  0  0  0  0  0  0  0  0
   -9.5001    0.4200   26.8511 C   0  0  0  0  0  0  0  0  0  0  0  0
   -7.4421   -0.6602   27.6278 C   0  0  0  0  0  0  0  0  0  0  0  0
  -10.1836    1.5803   26.4550 C   0  0  0  0  0  0  0  0  0  0  0  0
   -8.5694    7.8288   26.8199 N   0  0  0  0  0  0  0  0  0  0  0  0
   -4.0454    0.7628   28.3628 C   0  0  0  0  0  0  0  0  0  0  0  0
   -3.5921    0.0957   29.3643 N   0  0  0  0  0  0  0  0  0  0  0  0
   -3.6480   -1.0597   29.7592 C   0  0  0  0  0  0  0  0  0  0  0  0
   -3.5622   -1.9615   29.1294 C   0  0  0  0  0  0  0  0  0  0  0  0
   -3.9073   -1.1279   31.2884 C   0  0  0  0  0  0  0  0  0  0  0  0
   -3.8163   -0.1489   32.1348 C   0  0  0  0  0  0  0  0  0  0  0  0
   -3.6339   -2.4757   31.7814 C   0  0  0  0  0  0  0  0  0  0  0  0
   -3.5402   -3.3258   29.5940 C   0  0  0  0  0  0  0  0  0  0  0  0
   -3.6281   -3.5201   30.9553 N   0  0  0  0  0  0  0  0  0  0  0  0
   -6.7624    6.8114   27.8450 N   0  0  0  0  0  0  0  0  0  0  0  0
  3  7  1  0
  7 16  2  0
 10 17  1  0
 17 18  1  0
 18 19  1  0
 21 22  1  0
  7 26  1  0
 19 20  2  0
 20 24  1  0
 24 25  2  0
 25 23  1  0
 23 21  2  0
 21 19  1  0
  8  9  2  0
  9 10  1  0
 10 11  2  0
 11 14  1  0
 14 12  2  0
  1  2  2  0
  5  6  2  0
  6  4  1  0
  4  3  2  0
  3  1  1  0
  2  5  1  0
  5 15  1  0
 15 13  2  0
 13 12  1  0
 12  8  1  0
  8  2  1  0
M  END
$$$$
