No_2765-complexes_sdf/6BKW-FPZ/2024-09-17-14-21-01/
     RDKit          3D

  9  8  0  0  0  0  0  0  0  0999 V2000
   -7.7129    4.2099   27.0854 C   0  0  0  0  0  0  0  0  0  0  0  0
   -7.7814    5.1722   27.8972 C   0  0  0  0  0  0  0  0  0  0  0  0
   -7.2983    2.9533   27.5684 C   0  0  0  0  0  0  0  0  0  0  0  0
   -6.9398    2.0472   26.9820 C   0  0  0  0  0  0  0  0  0  0  0  0
   -6.2939    0.9312   27.6216 C   0  0  0  0  0  0  0  0  0  0  0  0
   -5.4014    0.2925   27.7580 C   0  0  0  0  0  0  0  0  0  0  0  0
   -4.6077   -0.5285   28.4997 C   0  0  0  0  0  0  0  0  0  0  0  0
   -3.3126   -0.4837   28.0123 C   0  0  0  0  0  0  0  0  0  0  0  0
   -2.9042    0.1913   26.9794 C   0  0  0  0  0  0  0  0  0  0  0  0
  1  2  2  0
  1  3  1  0
  3  4  1  0
  4  5  1  0
  5  6  3  0
  6  7  1  0
  7  8  1  0
  8  9  2  0
M  END
$$$$
