No_2285-complexes_sdf/6BKW-FPZ/2024-09-17-14-21-01/
     RDKit          3D

 17 19  0  0  0  0  0  0  0  0999 V2000
   -7.7129    4.2099   27.0854 C   0  0  0  0  0  0  0  0  0  0  0  0
   -8.2112    3.0637   26.9225 C   0  0  0  0  0  0  0  0  0  0  0  0
   -8.4224    5.2106   27.8516 C   0  0  0  0  0  0  0  0  0  0  0  0
   -9.5628    2.7160   27.4089 C   0  0  0  0  0  0  0  0  0  0  0  0
  -10.2428    3.7496   28.1155 C   0  0  0  0  0  0  0  0  0  0  0  0
   -7.8060    6.5538   27.9901 C   0  0  0  0  0  0  0  0  0  0  0  0
   -9.7056    4.9853   28.3055 C   0  0  0  0  0  0  0  0  0  0  0  0
  -10.0724    1.3719   27.2484 C   0  0  0  0  0  0  0  0  0  0  0  0
   -9.2426    0.3828   27.1621 C   0  0  0  0  0  0  0  0  0  0  0  0
   -7.8921    0.6764   27.1787 C   0  0  0  0  0  0  0  0  0  0  0  0
   -7.3283    1.9378   26.9298 C   0  0  0  0  0  0  0  0  0  0  0  0
  -11.6256    3.4956   28.6142 C   0  0  0  0  0  0  0  0  0  0  0  0
  -12.6863    3.5836   27.8657 C   0  0  0  0  0  0  0  0  0  0  0  0
  -14.0033    3.3361   28.3424 C   0  0  0  0  0  0  0  0  0  0  0  0
  -14.1235    2.8815   29.6662 C   0  0  0  0  0  0  0  0  0  0  0  0
  -13.0266    2.6657   30.4738 C   0  0  0  0  0  0  0  0  0  0  0  0
  -11.7830    2.9845   29.9671 C   0  0  0  0  0  0  0  0  0  0  0  0
  3  6  1  0
  5 12  1  0
 12 13  2  0
 13 14  1  0
 14 15  2  0
 15 16  1  0
 16 17  2  0
 17 12  1  0
  4  8  1  0
  8  9  2  0
  9 10  1  0
 10 11  2  0
 11  2  1  0
  1  2  2  0
  2  4  1  0
  4  5  2  0
  5  7  1  0
  7  3  2  0
  3  1  1  0
M  END
$$$$
