No_2972-complexes_sdf/6BKW-FPZ/2024-09-17-14-21-01/
     RDKit          3D

 16 18  0  0  0  0  0  0  0  0999 V2000
   -7.9040    3.9820   27.1177 C   0  0  0  0  0  0  0  0  0  0  0  0
   -7.8663    4.8694   27.9238 C   0  0  0  0  0  0  0  0  0  0  0  0
   -7.4547    2.7080   27.4594 C   0  0  0  0  0  0  0  0  0  0  0  0
   -8.7044    6.0412   27.8492 C   0  0  0  0  0  0  0  0  0  0  0  0
   -7.9501    1.5743   26.8848 C   0  0  0  0  0  0  0  0  0  0  0  0
   -8.8711    1.7575   25.8527 C   0  0  0  0  0  0  0  0  0  0  0  0
   -9.3585    2.9740   25.5109 C   0  0  0  0  0  0  0  0  0  0  0  0
   -8.9270    4.1096   26.1925 C   0  0  0  0  0  0  0  0  0  0  0  0
   -9.5518    5.3341   26.1504 C   0  0  0  0  0  0  0  0  0  0  0  0
   -9.3829    6.3930   26.8775 C   0  0  0  0  0  0  0  0  0  0  0  0
   -7.3439    0.2561   27.1356 C   0  0  0  0  0  0  0  0  0  0  0  0
   -8.1136   -0.8560   27.2664 C   0  0  0  0  0  0  0  0  0  0  0  0
   -7.6685   -1.9231   27.9243 C   0  0  0  0  0  0  0  0  0  0  0  0
   -5.9485    0.1525   27.4082 C   0  0  0  0  0  0  0  0  0  0  0  0
   -5.4062   -0.9400   28.0570 C   0  0  0  0  0  0  0  0  0  0  0  0
   -6.2972   -2.0230   28.3044 C   0  0  0  0  0  0  0  0  0  0  0  0
  5 11  1  0
  1  3  1  0
  3  5  2  0
  5  6  1  0
  6  7  2  0
  7  8  1  0
 11 12  2  0
 12 13  1  0
 13 16  2  0
 16 15  1  0
 15 14  2  0
 14 11  1  0
  1  2  2  0
  2  4  1  0
  4 10  2  0
 10  9  1  0
  9  8  2  0
  8  1  1  0
M  END
$$$$
