No_2958-complexes_sdf/6BKW-FPZ/2024-09-17-14-21-01/
     RDKit          3D

 32 35  0  0  0  0  0  0  0  0999 V2000
   -7.2496    3.8871   27.4508 C   0  0  0  0  0  0  0  0  0  0  0  0
   -7.9379    4.9063   27.8518 C   0  0  0  0  0  0  0  0  0  0  0  0
   -9.3376    4.8647   27.7795 C   0  0  0  0  0  0  0  0  0  0  0  0
   -7.8544    2.6294   27.0414 C   0  0  0  0  0  0  0  0  0  0  0  0
   -9.2852    2.6570   27.0666 C   0  0  0  0  0  0  0  0  0  0  0  0
  -10.0126    3.7528   27.4890 C   0  0  0  0  0  0  0  0  0  0  0  0
   -9.9609    1.3640   26.7239 C   0  0  0  0  0  0  0  0  0  0  0  0
  -10.7586    0.8639   27.5578 C   0  0  0  0  0  0  0  0  0  0  0  0
  -11.4523   -0.3839   27.3796 C   0  0  0  0  0  0  0  0  0  0  0  0
  -11.1327   -1.0627   26.2490 C   0  0  0  0  0  0  0  0  0  0  0  0
   -9.5575    0.6816   25.5793 C   0  0  0  0  0  0  0  0  0  0  0  0
  -10.1860   -0.5269   25.3389 C   0  0  0  0  0  0  0  0  0  0  0  0
   -7.4231    6.0981   28.3195 O   0  0  0  0  0  0  0  0  0  0  0  0
  -11.4915    3.7064   27.5276 C   0  0  0  0  0  0  0  0  0  0  0  0
  -12.1361    4.0278   28.7527 C   0  0  0  0  0  0  0  0  0  0  0  0
  -13.5443    4.0848   28.8697 C   0  0  0  0  0  0  0  0  0  0  0  0
  -14.2630    4.0106   27.6587 C   0  0  0  0  0  0  0  0  0  0  0  0
  -12.3235    3.6862   26.5365 C   0  0  0  0  0  0  0  0  0  0  0  0
  -13.6149    3.8397   26.4837 C   0  0  0  0  0  0  0  0  0  0  0  0
  -14.2112    4.3064   30.1728 C   0  0  0  0  0  0  0  0  0  0  0  0
  -14.8283    3.2692   30.6589 C   0  0  0  0  0  0  0  0  0  0  0  0
  -14.9978    2.1562   30.1920 C   0  0  0  0  0  0  0  0  0  0  0  0
  -15.6531    1.0223   30.8496 C   0  0  0  0  0  0  0  0  0  0  0  0
  -16.1326    1.2676   32.1386 C   0  0  0  0  0  0  0  0  0  0  0  0
  -15.9816    2.4603   32.7449 C   0  0  0  0  0  0  0  0  0  0  0  0
  -15.3315    3.5409   32.1283 C   0  0  0  0  0  0  0  0  0  0  0  0
  -12.4379   -0.9000   28.3523 C   0  0  0  0  0  0  0  0  0  0  0  0
  -12.2735   -2.1354   28.7798 C   0  0  0  0  0  0  0  0  0  0  0  0
  -11.2953   -2.8335   28.6446 C   0  0  0  0  0  0  0  0  0  0  0  0
  -10.1022   -2.4014   29.0884 C   0  0  0  0  0  0  0  0  0  0  0  0
   -8.9920   -2.7814   29.0108 C   0  0  0  0  0  0  0  0  0  0  0  0
   -7.7454   -2.1151   29.4573 C   0  0  0  0  0  0  0  0  0  0  0  0
  5  7  1  0
  2 13  1  0
  6 14  1  0
 16 20  1  0
 20 21  1  0
  9 27  1  0
 27 28  1  0
 28 29  1  0
 29 30  1  0
 30 31  2  3
 31 32  1  0
  7  8  2  0
  8  9  1  0
  9 10  2  0
 10 12  1  0
 12 11  2  0
 11  7  1  0
 14 15  2  0
 15 16  1  0
 16 17  2  0
 17 19  1  0
 19 18  2  0
 18 14  1  0
  1  2  2  0
  2  3  1  0
  3  6  2  0
  6  5  1  0
  5  4  2  0
  4  1  1  0
 21 22  2  0
 22 23  1  0
 23 24  2  0
 24 25  1  0
 25 26  2  0
 26 21  1  0
M  END
$$$$
