No_2847-complexes_sdf/6BKW-FPZ/2024-09-17-14-21-01/
     RDKit          3D

 23 25  0  0  0  0  0  0  0  0999 V2000
   -7.7129    4.2099   27.0854 C   0  0  0  0  0  0  0  0  0  0  0  0
   -8.9133    4.4736   27.0998 C   0  0  0  0  0  0  0  0  0  0  0  0
   -9.7937    3.7367   26.2091 C   0  0  0  0  0  0  0  0  0  0  0  0
   -6.8266    5.0441   28.0594 C   0  0  0  0  0  0  0  0  0  0  0  0
   -9.2322    2.6276   25.6126 C   0  0  0  0  0  0  0  0  0  0  0  0
  -10.0960    1.8717   24.7510 C   0  0  0  0  0  0  0  0  0  0  0  0
  -11.2836    2.4368   24.3506 C   0  0  0  0  0  0  0  0  0  0  0  0
  -11.7701    3.6086   24.8723 C   0  0  0  0  0  0  0  0  0  0  0  0
  -11.0280    4.3106   25.7851 C   0  0  0  0  0  0  0  0  0  0  0  0
   -9.4108    5.5839   27.8519 C   0  0  0  0  0  0  0  0  0  0  0  0
   -8.6597    6.4887   28.5595 C   0  0  0  0  0  0  0  0  0  0  0  0
   -7.3029    6.0555   28.6311 C   0  0  0  0  0  0  0  0  0  0  0  0
   -9.5986    0.6268   24.1494 C   0  0  0  0  0  0  0  0  0  0  0  0
   -9.3233   -0.3214   24.6480 O   0  0  0  0  0  0  0  0  0  0  0  0
   -9.4437    0.6950   22.7830 O   0  0  0  0  0  0  0  0  0  0  0  0
  -13.0606    4.1519   24.4790 C   0  0  0  0  0  0  0  0  0  0  0  0
  -13.9787    4.3163   25.3629 N   0  0  0  0  0  0  0  0  0  0  0  0
  -13.8574    4.0392   26.6408 C   0  0  0  0  0  0  0  0  0  0  0  0
  -14.8824    4.6408   27.5230 C   0  0  0  0  0  0  0  0  0  0  0  0
  -15.1475    5.0668   24.9715 C   0  0  0  0  0  0  0  0  0  0  0  0
  -16.0630    5.6656   25.8201 C   0  0  0  0  0  0  0  0  0  0  0  0
  -15.8886    5.4220   27.1736 C   0  0  0  0  0  0  0  0  0  0  0  0
  -13.1663    4.3959   23.2659 O   0  0  0  0  0  0  0  0  0  0  0  0
  2  3  1  0
  6 13  1  0
 13 14  1  0
 13 15  2  0
  8 16  1  0
 16 17  1  0
 17 18  1  0
 17 20  1  0
 19 22  1  0
 21 22  1  0
 16 23  2  0
 18 19  1  0
 21 20  1  0
  3  5  2  0
  5  6  1  0
  6  7  2  0
  7  8  1  0
  8  9  2  0
  9  3  1  0
  1  2  2  0
  2 10  1  0
 10 11  2  0
 11 12  1  0
 12  4  2  0
  4  1  1  0
M  END
$$$$
