No_2014-complexes_sdf/6BKW-FPZ/2024-09-17-14-21-01/
     RDKit          3D

 30 34  0  0  0  0  0  0  0  0999 V2000
   -7.9040    3.9820   27.1177 C   0  0  0  0  0  0  0  0  0  0  0  0
   -7.8663    4.8694   27.9238 C   0  0  0  0  0  0  0  0  0  0  0  0
   -9.0491    3.8523   26.2542 C   0  0  0  0  0  0  0  0  0  0  0  0
   -8.7661    5.9491   27.9690 C   0  0  0  0  0  0  0  0  0  0  0  0
   -9.9295    4.8502   26.2323 C   0  0  0  0  0  0  0  0  0  0  0  0
   -9.8077    5.9288   27.0933 C   0  0  0  0  0  0  0  0  0  0  0  0
   -9.0726    2.7074   25.3087 C   0  0  0  0  0  0  0  0  0  0  0  0
  -10.0632    2.7302   24.3178 C   0  0  0  0  0  0  0  0  0  0  0  0
  -10.9336    3.8766   24.2566 C   0  0  0  0  0  0  0  0  0  0  0  0
  -10.9057    4.8221   25.1699 C   0  0  0  0  0  0  0  0  0  0  0  0
  -11.9566    3.8116   23.1908 C   0  0  0  0  0  0  0  0  0  0  0  0
  -13.1546    3.4665   23.3028 C   0  0  0  0  0  0  0  0  0  0  0  0
  -14.0903    3.6057   22.3490 C   0  0  0  0  0  0  0  0  0  0  0  0
  -13.6666    4.0211   21.0563 C   0  0  0  0  0  0  0  0  0  0  0  0
  -11.5075    4.4275   21.8870 C   0  0  0  0  0  0  0  0  0  0  0  0
  -12.3573    4.4479   20.8581 C   0  0  0  0  0  0  0  0  0  0  0  0
   -6.7262    2.6829   27.2387 Cl  0  0  0  0  0  0  0  0  0  0  0  0
  -10.1285    1.6159   23.4342 C   0  0  0  0  0  0  0  0  0  0  0  0
   -9.8610    1.5479   22.4258 C   0  0  0  0  0  0  0  0  0  0  0  0
   -9.9158    0.3787   21.4932 C   0  0  0  0  0  0  0  0  0  0  0  0
  -10.5391   -0.7210   22.0108 C   0  0  0  0  0  0  0  0  0  0  0  0
  -10.7798    0.4753   24.0324 C   0  0  0  0  0  0  0  0  0  0  0  0
  -10.9754   -0.6557   23.3119 C   0  0  0  0  0  0  0  0  0  0  0  0
  -13.6919    2.9539   24.6399 C   0  0  0  0  0  0  0  0  0  0  0  0
  -14.3091    1.7474   24.7390 C   0  0  0  0  0  0  0  0  0  0  0  0
  -14.7401    1.2513   25.9538 C   0  0  0  0  0  0  0  0  0  0  0  0
  -14.5197    2.0087   27.1276 C   0  0  0  0  0  0  0  0  0  0  0  0
  -13.8790    3.2490   27.0578 C   0  0  0  0  0  0  0  0  0  0  0  0
  -13.4950    3.7245   25.8634 C   0  0  0  0  0  0  0  0  0  0  0  0
   -9.8114    4.9019   21.7856 Cl  0  0  0  0  0  0  0  0  0  0  0  0
  9 11  1  0
  1 17  1  0
  8 18  1  0
 12 24  1  0
 15 30  1  0
 24 25  2  0
 25 26  1  0
 26 27  2  0
 27 28  1  0
 28 29  2  0
 29 24  1  0
  5 10  2  0
 10  9  1  0
  9  8  2  0
  8  7  1  0
  7  3  2  0
 18 19  2  0
 19 20  1  0
 20 21  2  0
 21 23  1  0
 23 22  2  0
 22 18  1  0
 11 12  1  0
 12 13  2  0
 13 14  1  0
 14 16  2  0
 16 15  1  0
 15 11  2  0
  1  2  2  0
  2  4  1  0
  4  6  2  0
  6  5  1  0
  5  3  1  0
  3  1  1  0
M  END
$$$$
