No_2097-complexes_sdf/6BKW-FPZ/2024-09-17-14-21-01/
     RDKit          3D

 12 13  0  0  0  0  0  0  0  0999 V2000
   -7.2496    3.8871   27.4508 C   0  0  0  0  0  0  0  0  0  0  0  0
   -7.9379    4.9063   27.8518 C   0  0  0  0  0  0  0  0  0  0  0  0
   -9.3460    4.8223   27.8695 C   0  0  0  0  0  0  0  0  0  0  0  0
   -7.8628    2.6163   27.1065 C   0  0  0  0  0  0  0  0  0  0  0  0
   -9.1469    2.5852   27.1745 C   0  0  0  0  0  0  0  0  0  0  0  0
   -9.9792    3.6614   27.6254 C   0  0  0  0  0  0  0  0  0  0  0  0
  -11.4515    3.5310   27.7238 C   0  0  0  0  0  0  0  0  0  0  0  0
  -11.9258    2.4821   28.3098 C   0  0  0  0  0  0  0  0  0  0  0  0
  -13.3396    2.2911   28.5721 C   0  0  0  0  0  0  0  0  0  0  0  0
  -14.1580    3.3557   28.1872 C   0  0  0  0  0  0  0  0  0  0  0  0
  -13.6519    4.4832   27.5923 C   0  0  0  0  0  0  0  0  0  0  0  0
  -12.2664    4.6706   27.4023 C   0  0  0  0  0  0  0  0  0  0  0  0
  6  7  1  0
  1  2  2  0
  2  3  1  0
  3  6  2  0
  6  5  1  0
  5  4  2  0
  4  1  1  0
  7  8  2  0
  8  9  1  0
  9 10  2  0
 10 11  1  0
 11 12  2  0
 12  7  1  0
M  END
$$$$
