No_2896-complexes_sdf/6BKW-FPZ/2024-09-17-14-21-01/
     RDKit          3D

 13 13  0  0  0  0  0  0  0  0999 V2000
   -7.9040    3.9820   27.1177 C   0  0  0  0  0  0  0  0  0  0  0  0
   -8.2057    2.8231   26.8733 C   0  0  0  0  0  0  0  0  0  0  0  0
   -8.7695    5.0740   26.7916 C   0  0  0  0  0  0  0  0  0  0  0  0
   -8.4785    6.4289   27.2922 C   0  0  0  0  0  0  0  0  0  0  0  0
   -7.4254    1.6839   27.4940 C   0  0  0  0  0  0  0  0  0  0  0  0
   -7.7454    0.3390   27.3305 C   0  0  0  0  0  0  0  0  0  0  0  0
   -9.3220    2.3266   26.2587 C   0  0  0  0  0  0  0  0  0  0  0  0
  -10.1470    3.3241   25.6756 C   0  0  0  0  0  0  0  0  0  0  0  0
   -9.8786    4.7221   26.0100 C   0  0  0  0  0  0  0  0  0  0  0  0
   -8.9354    0.0587   26.6429 C   0  0  0  0  0  0  0  0  0  0  0  0
   -9.7082    1.0667   26.0709 C   0  0  0  0  0  0  0  0  0  0  0  0
  -10.2227    2.2737   25.7027 Cl  0  0  0  0  0  0  0  0  0  0  0  0
  -10.5581   -0.0517   25.1756 C   0  0  0  0  0  0  0  0  0  0  0  0
  3  4  1  0
  2  5  1  0
  5  6  2  3
  6 10  1  0
 10 11  2  3
  8 12  1  0
 11 13  1  0
  1  2  2  0
  2  7  1  0
  7  8  2  0
  8  9  1  0
  9  3  2  0
  3  1  1  0
M  END
$$$$
