No_2550-complexes_sdf/6BKW-FPZ/2024-09-17-14-21-01/
     RDKit          3D

 18 19  0  0  0  0  0  0  0  0999 V2000
   -7.7129    4.2099   27.0854 C   0  0  0  0  0  0  0  0  0  0  0  0
   -7.7814    5.1722   27.8972 C   0  0  0  0  0  0  0  0  0  0  0  0
   -7.3155    2.9699   27.6145 C   0  0  0  0  0  0  0  0  0  0  0  0
   -7.1760    1.9119   26.6708 C   0  0  0  0  0  0  0  0  0  0  0  0
   -6.6246    0.7144   27.2456 C   0  0  0  0  0  0  0  0  0  0  0  0
   -7.4988   -0.4098   27.3648 C   0  0  0  0  0  0  0  0  0  0  0  0
   -8.5735    6.2632   27.5049 C   0  0  0  0  0  0  0  0  0  0  0  0
   -8.5939    4.2326   25.9977 C   0  0  0  0  0  0  0  0  0  0  0  0
   -9.3951    5.2803   25.6112 C   0  0  0  0  0  0  0  0  0  0  0  0
   -9.2664    6.4371   26.3680 C   0  0  0  0  0  0  0  0  0  0  0  0
   -7.1531   -1.4170   28.1925 C   0  0  0  0  0  0  0  0  0  0  0  0
   -5.8868   -1.4278   28.8443 C   0  0  0  0  0  0  0  0  0  0  0  0
   -4.9995   -0.3344   28.6627 C   0  0  0  0  0  0  0  0  0  0  0  0
   -5.4337    0.7625   27.9847 C   0  0  0  0  0  0  0  0  0  0  0  0
   -3.7260   -0.2713   29.4296 C   0  0  0  0  0  0  0  0  0  0  0  0
   -3.8338    0.1741   30.5400 F   0  0  0  0  0  0  0  0  0  0  0  0
   -2.8287    0.5342   28.7578 F   0  0  0  0  0  0  0  0  0  0  0  0
   -3.1854   -1.4816   29.4379 F   0  0  0  0  0  0  0  0  0  0  0  0
  1  3  1  0
  3  4  1  0
  4  5  1  0
 13 15  1  0
 15 16  1  0
 15 17  1  0
 15 18  1  0
  1  2  2  0
  2  7  1  0
  7 10  2  0
 10  9  1  0
  9  8  2  0
  8  1  1  0
  5  6  2  0
  6 11  1  0
 11 12  2  0
 12 13  1  0
 13 14  2  0
 14  5  1  0
M  END
$$$$
