No_2258-complexes_sdf/6BKW-FPZ/2024-09-17-14-21-01/
     RDKit          3D

 18 19  0  0  0  0  0  0  0  0999 V2000
   -7.9040    3.9820   27.1177 C   0  0  0  0  0  0  0  0  0  0  0  0
   -9.0711    4.3164   27.0630 C   0  0  0  0  0  0  0  0  0  0  0  0
   -9.9692    3.7224   26.1073 C   0  0  0  0  0  0  0  0  0  0  0  0
   -6.9787    4.6761   28.1003 C   0  0  0  0  0  0  0  0  0  0  0  0
   -9.4538    2.6801   25.3673 C   0  0  0  0  0  0  0  0  0  0  0  0
   -8.1927    2.1957   25.6621 C   0  0  0  0  0  0  0  0  0  0  0  0
   -7.4333    2.8255   26.6299 C   0  0  0  0  0  0  0  0  0  0  0  0
  -10.1852    1.8711   24.3912 C   0  0  0  0  0  0  0  0  0  0  0  0
  -11.2471    1.4429   24.6133 C   0  0  0  0  0  0  0  0  0  0  0  0
  -12.0369    0.7108   23.5745 C   0  0  0  0  0  0  0  0  0  0  0  0
  -11.4310    0.5375   22.3240 C   0  0  0  0  0  0  0  0  0  0  0  0
  -10.1628    1.0731   22.0736 C   0  0  0  0  0  0  0  0  0  0  0  0
   -9.4878    1.7709   23.0615 C   0  0  0  0  0  0  0  0  0  0  0  0
   -7.4233    5.7357   28.6756 O   0  0  0  0  0  0  0  0  0  0  0  0
   -5.7593    4.2842   28.2511 O   0  0  0  0  0  0  0  0  0  0  0  0
  -12.3048   -0.3882   20.9671 Br  0  0  0  0  0  0  0  0  0  0  0  0
  -11.1561    4.1892   25.8464 F   0  0  0  0  0  0  0  0  0  0  0  0
  -13.5736    0.0565   23.8551 Cl  0  0  0  0  0  0  0  0  0  0  0  0
  1  4  1  0
  5  8  1  0
  4 14  2  0
  4 15  1  0
 11 16  1  0
  3 17  1  0
 10 18  1  0
  8  9  2  0
  9 10  1  0
 10 11  2  0
 11 12  1  0
 12 13  2  0
 13  8  1  0
  1  2  2  0
  2  3  1  0
  3  5  2  0
  5  6  1  0
  6  7  2  0
  7  1  1  0
M  END
$$$$
