No_2504-complexes_sdf/6BKW-FPZ/2024-09-17-14-21-01/
     RDKit          3D

 16 17  0  0  0  0  0  0  0  0999 V2000
   -7.9040    3.9820   27.1177 C   0  0  0  0  0  0  0  0  0  0  0  0
   -8.2057    2.8231   26.8733 C   0  0  0  0  0  0  0  0  0  0  0  0
   -9.2962    2.4021   26.1155 C   0  0  0  0  0  0  0  0  0  0  0  0
   -8.7358    5.0662   26.5917 C   0  0  0  0  0  0  0  0  0  0  0  0
   -9.7618    4.7023   25.7546 C   0  0  0  0  0  0  0  0  0  0  0  0
  -10.0066    3.4105   25.4922 C   0  0  0  0  0  0  0  0  0  0  0  0
   -8.3936    6.4769   26.8843 C   0  0  0  0  0  0  0  0  0  0  0  0
   -8.6672    7.3248   26.1418 F   0  0  0  0  0  0  0  0  0  0  0  0
   -7.0254    6.5035   27.1659 F   0  0  0  0  0  0  0  0  0  0  0  0
   -9.0366    6.6263   28.1853 F   0  0  0  0  0  0  0  0  0  0  0  0
   -7.3512    1.6649   27.4944 C   0  0  0  0  0  0  0  0  0  0  0  0
   -5.9596    1.9011   27.7422 C   0  0  0  0  0  0  0  0  0  0  0  0
   -5.1699    0.8526   28.2780 C   0  0  0  0  0  0  0  0  0  0  0  0
   -5.6806   -0.4373   28.3757 C   0  0  0  0  0  0  0  0  0  0  0  0
   -7.6166    0.2907   27.4557 C   0  0  0  0  0  0  0  0  0  0  0  0
   -6.9263   -0.6623   28.0118 C   0  0  0  0  0  0  0  0  0  0  0  0
  4  7  1  0
  7  8  1  0
  7  9  1  0
  7 10  1  0
  2 11  1  0
  1  2  2  0
  2  3  1  0
  3  6  2  0
  6  5  1  0
  5  4  2  0
  4  1  1  0
 11 12  2  0
 12 13  1  0
 13 14  2  0
 14 16  1  0
 16 15  2  0
 15 11  1  0
M  END
$$$$
