No_2655-complexes_sdf/6BKW-FPZ/2024-09-17-14-21-01/
     RDKit          3D

 17 18  0  0  0  0  0  0  0  0999 V2000
   -7.2496    3.8871   27.4508 C   0  0  0  0  0  0  0  0  0  0  0  0
   -7.9379    4.9063   27.8518 C   0  0  0  0  0  0  0  0  0  0  0  0
   -9.3460    4.8223   27.8695 C   0  0  0  0  0  0  0  0  0  0  0  0
   -7.8628    2.6163   27.1065 C   0  0  0  0  0  0  0  0  0  0  0  0
   -9.2787    2.5744   27.1970 C   0  0  0  0  0  0  0  0  0  0  0  0
  -10.0108    3.6770   27.6340 C   0  0  0  0  0  0  0  0  0  0  0  0
  -11.4855    3.5731   27.7420 C   0  0  0  0  0  0  0  0  0  0  0  0
  -12.0293    2.8456   27.0189 C   0  0  0  0  0  0  0  0  0  0  0  0
  -13.5102    2.7812   27.1373 C   0  0  0  0  0  0  0  0  0  0  0  0
  -14.1668    3.6327   28.0205 C   0  0  0  0  0  0  0  0  0  0  0  0
  -13.4479    4.4500   28.7472 C   0  0  0  0  0  0  0  0  0  0  0  0
  -12.0762    4.5704   28.6627 C   0  0  0  0  0  0  0  0  0  0  0  0
   -7.0970    1.4719   26.7594 C   0  0  0  0  0  0  0  0  0  0  0  0
   -6.0675    1.0573   27.5647 N   0  0  0  0  0  0  0  0  0  0  0  0
   -5.6737    0.0385   28.0001 C   0  0  0  0  0  0  0  0  0  0  0  0
   -4.4249   -0.0173   28.8442 C   0  0  0  0  0  0  0  0  0  0  0  0
   -4.0302    1.3987   28.9178 C   0  0  0  0  0  0  0  0  0  0  0  0
  6  7  1  0
  4 13  1  0
 13 14  1  0
 14 15  2  3
 15 16  1  0
 16 17  1  0
  1  2  2  0
  2  3  1  0
  3  6  2  0
  6  5  1  0
  5  4  2  0
  4  1  1  0
  7  8  2  0
  8  9  1  0
  9 10  2  0
 10 11  1  0
 11 12  2  0
 12  7  1  0
M  END
$$$$
