No_2397-complexes_sdf/6BKW-FPZ/2024-09-17-14-21-01/
     RDKit          3D

 23 25  0  0  0  0  0  0  0  0999 V2000
   -7.7129    4.2099   27.0854 C   0  0  0  0  0  0  0  0  0  0  0  0
   -8.2112    3.0637   26.9225 C   0  0  0  0  0  0  0  0  0  0  0  0
   -9.4446    2.8304   26.1868 C   0  0  0  0  0  0  0  0  0  0  0  0
   -8.6179    5.2785   27.1142 C   0  0  0  0  0  0  0  0  0  0  0  0
   -8.1572    6.6752   27.3575 C   0  0  0  0  0  0  0  0  0  0  0  0
  -10.2496    3.9105   26.0418 C   0  0  0  0  0  0  0  0  0  0  0  0
   -9.7712    5.1823   26.3860 C   0  0  0  0  0  0  0  0  0  0  0  0
   -7.1396    1.6298   27.1154 Cl  0  0  0  0  0  0  0  0  0  0  0  0
   -8.8108    7.7541   26.9712 N   0  0  0  0  0  0  0  0  0  0  0  0
   -7.0164    6.7454   28.0373 O   0  0  0  0  0  0  0  0  0  0  0  0
  -11.5084    3.7598   25.3448 C   0  0  0  0  0  0  0  0  0  0  0  0
  -11.5069    3.3231   24.0539 C   0  0  0  0  0  0  0  0  0  0  0  0
  -12.5994    3.3863   23.2788 C   0  0  0  0  0  0  0  0  0  0  0  0
  -12.5829    2.8984   21.9075 C   0  0  0  0  0  0  0  0  0  0  0  0
  -11.3671    2.4204   21.3789 C   0  0  0  0  0  0  0  0  0  0  0  0
  -10.2155    2.4086   22.1626 C   0  0  0  0  0  0  0  0  0  0  0  0
  -10.2369    2.8462   23.4391 C   0  0  0  0  0  0  0  0  0  0  0  0
  -12.7780    3.8530   26.1442 C   0  0  0  0  0  0  0  0  0  0  0  0
  -13.1037    2.8967   26.9595 C   0  0  0  0  0  0  0  0  0  0  0  0
  -14.2465    3.0395   27.7228 C   0  0  0  0  0  0  0  0  0  0  0  0
  -15.0690    4.1842   27.5650 C   0  0  0  0  0  0  0  0  0  0  0  0
  -14.7562    5.1542   26.6267 C   0  0  0  0  0  0  0  0  0  0  0  0
  -13.5778    5.0338   25.8990 C   0  0  0  0  0  0  0  0  0  0  0  0
  4  5  1  0
  2  8  1  0
  5  9  1  0
  5 10  2  0
  6 11  1  0
 11 12  1  0
 11 18  1  0
  1  2  2  0
  2  3  1  0
  3  6  2  0
  6  7  1  0
  7  4  2  0
  4  1  1  0
 12 13  2  0
 13 14  1  0
 14 15  2  0
 15 16  1  0
 16 17  2  0
 17 12  1  0
 18 19  2  0
 19 20  1  0
 20 21  2  0
 21 22  1  0
 22 23  2  0
 23 18  1  0
M  END
$$$$
