No_2237-complexes_sdf/6BKW-FPZ/2024-09-17-14-21-01/
     RDKit          3D

 18 19  0  0  0  0  0  0  0  0999 V2000
   -7.7129    4.2099   27.0854 C   0  0  0  0  0  0  0  0  0  0  0  0
   -8.9133    4.4736   27.0998 C   0  0  0  0  0  0  0  0  0  0  0  0
   -9.4643    5.5426   27.7628 C   0  0  0  0  0  0  0  0  0  0  0  0
   -6.8373    4.9942   27.9785 C   0  0  0  0  0  0  0  0  0  0  0  0
   -7.3932    6.0303   28.6784 C   0  0  0  0  0  0  0  0  0  0  0  0
   -8.7122    6.3429   28.5485 C   0  0  0  0  0  0  0  0  0  0  0  0
   -9.6392    3.5101   26.1298 C   0  0  0  0  0  0  0  0  0  0  0  0
  -10.2170    4.0922   25.0363 C   0  0  0  0  0  0  0  0  0  0  0  0
  -10.7417    3.4002   23.9547 C   0  0  0  0  0  0  0  0  0  0  0  0
  -10.6574    2.0207   24.0077 C   0  0  0  0  0  0  0  0  0  0  0  0
   -9.5152    2.1605   26.0832 C   0  0  0  0  0  0  0  0  0  0  0  0
  -10.0142    1.4008   25.0961 C   0  0  0  0  0  0  0  0  0  0  0  0
  -11.2288    1.2944   22.8610 C   0  0  0  0  0  0  0  0  0  0  0  0
  -12.5061    1.0665   22.8977 C   0  0  0  0  0  0  0  0  0  0  0  0
  -13.1204    0.4730   21.9423 C   0  0  0  0  0  0  0  0  0  0  0  0
  -14.5662    0.2345   21.8900 C   0  0  0  0  0  0  0  0  0  0  0  0
  -15.2790    0.7256   22.9709 C   0  0  0  0  0  0  0  0  0  0  0  0
  -16.6534    0.5179   23.0215 C   0  0  0  0  0  0  0  0  0  0  0  0
  2  7  1  0
 10 13  1  0
 13 14  1  0
 14 15  2  3
 15 16  1  0
 16 17  2  3
 17 18  1  0
  7  8  2  0
  8  9  1  0
  9 10  2  0
 10 12  1  0
 12 11  2  0
 11  7  1  0
  1  2  2  0
  2  3  1  0
  3  6  2  0
  6  5  1  0
  5  4  2  0
  4  1  1  0
M  END
$$$$
