No_2435-complexes_sdf/6BKW-FPZ/2024-09-17-14-21-01/
     RDKit          3D

 18 19  0  0  0  0  0  0  0  0999 V2000
   -7.2496    3.8871   27.4508 C   0  0  0  0  0  0  0  0  0  0  0  0
   -7.6161    2.7143   27.1523 C   0  0  0  0  0  0  0  0  0  0  0  0
   -8.6212    2.2239   26.4073 C   0  0  0  0  0  0  0  0  0  0  0  0
   -8.2540    4.9237   27.1711 C   0  0  0  0  0  0  0  0  0  0  0  0
   -9.3709    4.6018   26.4511 C   0  0  0  0  0  0  0  0  0  0  0  0
   -9.5922    3.3274   26.0949 C   0  0  0  0  0  0  0  0  0  0  0  0
   -7.9189    6.3259   27.5672 C   0  0  0  0  0  0  0  0  0  0  0  0
   -6.7913    6.6845   27.8021 C   0  0  0  0  0  0  0  0  0  0  0  0
   -9.0147    7.2296   27.2610 C   0  0  0  0  0  0  0  0  0  0  0  0
   -6.5903    1.5527   27.5514 C   0  0  0  0  0  0  0  0  0  0  0  0
   -5.3322    1.8949   28.1155 C   0  0  0  0  0  0  0  0  0  0  0  0
   -4.4332    0.8762   28.4390 C   0  0  0  0  0  0  0  0  0  0  0  0
   -4.8179   -0.4395   28.4124 C   0  0  0  0  0  0  0  0  0  0  0  0
   -6.9603    0.2050   27.3407 C   0  0  0  0  0  0  0  0  0  0  0  0
   -6.1081   -0.7662   27.8416 C   0  0  0  0  0  0  0  0  0  0  0  0
   -3.9355   -1.5032   28.8611 C   0  0  0  0  0  0  0  0  0  0  0  0
   -2.9849   -1.4066   29.5182 F   0  0  0  0  0  0  0  0  0  0  0  0
   -3.7844   -2.4311   27.7951 F   0  0  0  0  0  0  0  0  0  0  0  0
  4  7  1  0
  7  8  2  0
  7  9  1  0
  2 10  1  0
 13 16  1  0
 16 17  1  0
 16 18  1  0
  1  2  2  0
  2  3  1  0
  3  6  2  0
  6  5  1  0
  5  4  2  0
  4  1  1  0
 10 11  2  0
 11 12  1  0
 12 13  2  0
 13 15  1  0
 15 14  2  0
 14 10  1  0
M  END
$$$$
