No_2475-complexes_sdf/6BKW-FPZ/2024-09-17-14-21-01/
     RDKit          3D

 30 34  0  0  0  0  0  0  0  0999 V2000
   -7.7129    4.2099   27.0854 C   0  0  0  0  0  0  0  0  0  0  0  0
   -8.2112    3.0637   26.9225 C   0  0  2  0  0  0  0  0  0  0  0  0
   -7.0021    4.5281   28.2396 C   0  0  0  0  0  0  0  0  0  0  0  0
   -9.4237    2.7810   26.2714 C   0  0  0  0  0  0  0  0  0  0  0  0
   -9.8781    3.7859   25.4663 C   0  0  2  0  0  0  0  0  0  0  0  0
   -9.3689    5.0975   25.5965 C   0  0  0  0  0  0  0  0  0  0  0  0
   -8.4784    5.3402   26.5448 C   0  0  0  0  0  0  0  0  0  0  0  0
  -10.9798    3.5389   24.5162 C   0  0  0  0  0  0  0  0  0  0  0  0
  -12.1748    3.3346   24.9229 C   0  0  0  0  0  0  0  0  0  0  0  0
  -10.6702    3.5739   23.1295 C   0  0  0  0  0  0  0  0  0  0  0  0
  -13.2517    3.1581   24.0343 C   0  0  0  0  0  0  0  0  0  0  0  0
  -11.6210    3.4590   22.1597 C   0  0  0  0  0  0  0  0  0  0  0  0
  -12.9537    3.2325   22.6283 C   0  0  0  0  0  0  0  0  0  0  0  0
   -6.9977    5.7861   28.6726 N   0  0  0  0  0  0  0  0  0  0  0  0
   -8.1257    6.5533   26.9633 N   0  0  0  0  0  0  0  0  0  0  0  0
   -7.3877    6.7952   28.0622 C   0  0  0  0  0  0  0  0  0  0  0  0
   -7.5921    1.8289   27.5865 C   0  0  0  0  0  0  0  0  0  0  0  0
   -6.9654    0.8716   26.6957 C   0  0  0  0  0  0  0  0  0  0  0  0
   -7.1989   -0.3611   27.3181 C   0  0  0  0  0  0  0  0  0  0  0  0
   -7.5643   -1.4449   26.5237 C   0  0  0  0  0  0  0  0  0  0  0  0
   -7.8545   -2.5827   27.0464 C   0  0  0  0  0  0  0  0  0  0  0  0
   -8.0950   -2.6978   28.1030 C   0  0  0  0  0  0  0  0  0  0  0  0
   -7.7131   -1.7936   29.2129 C   0  0  0  0  0  0  0  0  0  0  0  0
   -7.3025   -0.5702   28.7166 C   0  0  0  0  0  0  0  0  0  0  0  0
   -7.4303   -1.2791   25.0303 C   0  0  0  0  0  0  0  0  0  0  0  0
   -8.3999   -0.4669   24.3755 C   0  0  0  0  0  0  0  0  0  0  0  0
   -8.1741   -0.0629   23.0804 C   0  0  0  0  0  0  0  0  0  0  0  0
   -6.3894   -1.8475   24.3289 C   0  0  0  0  0  0  0  0  0  0  0  0
   -6.1809   -1.5048   22.9673 C   0  0  0  0  0  0  0  0  0  0  0  0
   -7.1203   -0.6146   22.3558 C   0  0  0  0  0  0  0  0  0  0  0  0
  1  2  1  0
  2  4  1  0
  4  5  1  0
  5  6  1  0
  6  7  1  0
  5  8  1  1
  2 17  1  1
 17 18  1  0
 18 19  1  0
 20 25  1  0
  8  9  2  0
  9 11  1  0
 11 13  2  0
 13 12  1  0
 12 10  2  0
 10  8  1  0
 25 26  2  0
 26 27  1  0
 27 30  2  0
 30 29  1  0
 29 28  2  0
 28 25  1  0
 19 20  1  0
 20 21  2  0
 21 22  1  0
 22 23  2  0
 23 24  1  0
 24 19  2  0
  1  3  2  0
  3 14  1  0
 14 16  2  0
 16 15  1  0
 15  7  2  0
  7  1  1  0
M  END
$$$$
