No_229-complexes_sdf/6BKW-FPZ/2024-09-17-14-21-01/
     RDKit          3D

 14 15  0  0  0  0  0  0  0  0999 V2000
   -7.2496    3.8871   27.4508 C   0  0  0  0  0  0  0  0  0  0  0  0
   -7.6161    2.7143   27.1523 C   0  0  0  0  0  0  0  0  0  0  0  0
   -7.1619    1.8631   27.5232 C   0  0  0  0  0  0  0  0  0  0  0  0
   -8.0384    5.0867   27.3232 C   0  0  0  0  0  0  0  0  0  0  0  0
   -9.1223    5.1097   26.4856 C   0  0  0  0  0  0  0  0  0  0  0  0
   -8.9186    2.6660   26.4794 C   0  0  0  0  0  0  0  0  0  0  0  0
   -9.4406    1.4101   26.0775 C   0  0  0  0  0  0  0  0  0  0  0  0
   -9.6459    3.8442   26.1281 C   0  0  0  0  0  0  0  0  0  0  0  0
   -7.4728    0.4240   27.2193 C   0  0  0  0  0  0  0  0  0  0  0  0
   -8.6613    0.2776   26.4958 C   0  0  0  0  0  0  0  0  0  0  0  0
   -7.3509    6.6171   27.8748 Cl  0  0  0  0  0  0  0  0  0  0  0  0
  -10.8074    3.8143   25.2864 C   0  0  0  0  0  0  0  0  0  0  0  0
  -10.7267    4.0638   23.9291 C   0  0  0  0  0  0  0  0  0  0  0  0
  -11.8000    4.0772   23.0749 C   0  0  0  0  0  0  0  0  0  0  0  0
  4 11  1  0
  8 12  1  0
 12 13  2  3
 13 14  1  0
  1  2  2  0
  6  8  2  0
  8  5  1  0
  5  4  2  0
  4  1  1  0
  2  3  1  0
  3  9  2  0
  9 10  1  0
 10  7  2  0
  7  6  1  0
  6  2  1  0
M  END
$$$$
