No_2296-complexes_sdf/6BKW-FPZ/2024-09-17-14-21-01/
     RDKit          3D

 40 44  0  0  0  0  0  0  0  0999 V2000
   -7.7129    4.2099   27.0854 C   0  0  0  0  0  0  0  0  0  0  0  0
   -8.2112    3.0637   26.9225 C   0  0  0  0  0  0  0  0  0  0  0  0
   -8.5108    5.3904   26.9436 C   0  0  0  0  0  0  0  0  0  0  0  0
   -9.7256    5.1955   26.3518 C   0  0  0  0  0  0  0  0  0  0  0  0
   -9.4995    2.8258   26.4878 C   0  0  0  0  0  0  0  0  0  0  0  0
  -10.2542    3.9691   26.2055 C   0  0  0  0  0  0  0  0  0  0  0  0
   -7.9470    6.5632   27.1671 F   0  0  0  0  0  0  0  0  0  0  0  0
   -7.2102    1.6332   27.3245 Cl  0  0  0  0  0  0  0  0  0  0  0  0
  -11.6105    3.8298   25.6192 C   0  0  0  0  0  0  0  0  0  0  0  0
  -12.6576    3.8716   26.4600 C   0  0  0  0  0  0  0  0  0  0  0  0
  -13.9663    4.0207   26.0534 C   0  0  0  0  0  0  0  0  0  0  0  0
  -14.1676    3.9587   24.6428 C   0  0  0  0  0  0  0  0  0  0  0  0
  -11.8335    3.8967   24.2308 C   0  0  0  0  0  0  0  0  0  0  0  0
  -13.0791    3.9909   23.7619 C   0  0  0  0  0  0  0  0  0  0  0  0
  -12.4511    3.9817   27.9797 C   0  0  0  0  0  0  0  0  0  0  0  0
  -12.6284    2.7545   28.6938 C   0  0  2  0  0  0  0  0  0  0  0  0
  -11.6635    1.8902   28.5628 C   0  0  0  0  0  0  0  0  0  0  0  0
  -13.9912    2.1798   28.6247 C   0  0  2  0  0  0  0  0  0  0  0  0
  -14.2419    1.3534   29.6277 C   0  0  0  0  0  0  0  0  0  0  0  0
  -14.8634    0.4909   29.5335 C   0  0  0  0  0  0  0  0  0  0  0  0
  -15.1575   -0.5314   30.6282 C   0  0  0  0  0  0  0  0  0  0  0  0
  -14.5584   -0.2803   31.8454 C   0  0  0  0  0  0  0  0  0  0  0  0
  -13.8671    0.8941   32.0436 C   0  0  0  0  0  0  0  0  0  0  0  0
  -13.6058    1.6963   30.9864 C   0  0  0  0  0  0  0  0  0  0  0  0
  -15.5436    0.0226   28.2812 C   0  0  0  0  0  0  0  0  0  0  0  0
  -16.3525   -0.7404   28.1907 C   0  0  0  0  0  0  0  0  0  0  0  0
  -17.0164   -0.8440   27.0048 C   0  0  0  0  0  0  0  0  0  0  0  0
  -16.6314   -0.0981   25.9134 C   0  0  0  0  0  0  0  0  0  0  0  0
  -15.6401    0.7871   26.0060 C   0  0  0  0  0  0  0  0  0  0  0  0
  -15.0880    0.9559   27.2132 C   0  0  0  0  0  0  0  0  0  0  0  0
  -14.2547    1.9969   27.5160 N   0  0  0  0  0  0  0  0  0  0  0  0
  -15.5325    4.0700   24.1051 C   0  0  2  0  0  0  0  0  0  0  0  0
  -15.9673    4.9216   23.2333 Cl  0  0  0  0  0  0  0  0  0  0  0  0
  -16.4065    3.6469   25.0909 O   0  0  0  0  0  0  0  0  0  0  0  0
  -17.6819    4.1318   25.2104 C   0  0  0  0  0  0  0  0  0  0  0  0
  -17.9216    4.8619   26.3014 C   0  0  0  0  0  0  0  0  0  0  0  0
  -17.0210    4.9668   27.1836 F   0  0  0  0  0  0  0  0  0  0  0  0
  -19.0725    4.4155   26.9511 F   0  0  0  0  0  0  0  0  0  0  0  0
  -18.1796    6.1228   25.8696 F   0  0  0  0  0  0  0  0  0  0  0  0
  -18.4732    3.6029   24.4360 O   0  0  0  0  0  0  0  0  0  0  0  0
  3  7  1  0
  2  8  1  0
  6  9  1  0
 10 15  1  0
 15 16  1  0
 16 17  1  6
 16 18  1  0
 18 19  1  0
 20 25  1  0
 18 31  1  6
 30 31  1  0
 12 32  1  0
 32 33  1  1
 32 34  1  0
 34 35  1  0
 35 36  1  0
 36 37  1  0
 36 38  1  0
 36 39  1  0
 35 40  2  0
 25 26  2  0
 26 27  1  0
 27 28  2  0
 28 29  1  0
 29 30  2  0
 30 25  1  0
 19 20  1  0
 20 21  2  0
 21 22  1  0
 22 23  2  0
 23 24  1  0
 24 19  2  0
  9 10  1  0
 10 11  2  0
 11 12  1  0
 12 14  2  0
 14 13  1  0
 13  9  2  0
  1  2  2  0
  2  5  1  0
  5  6  2  0
  6  4  1  0
  4  3  2  0
  3  1  1  0
M  END
$$$$
