No_211-complexes_sdf/6BKW-FPZ/2024-09-17-14-21-01/
     RDKit          3D

 15 16  0  0  0  0  0  0  0  0999 V2000
   -7.7129    4.2099   27.0854 C   0  0  0  0  0  0  0  0  0  0  0  0
   -8.2112    3.0637   26.9225 C   0  0  0  0  0  0  0  0  0  0  0  0
   -7.0021    4.5281   28.2396 C   0  0  0  0  0  0  0  0  0  0  0  0
   -9.4237    2.7810   26.2714 C   0  0  0  0  0  0  0  0  0  0  0  0
   -9.8631    3.8236   25.4749 C   0  0  0  0  0  0  0  0  0  0  0  0
   -9.3184    5.1096   25.5970 C   0  0  0  0  0  0  0  0  0  0  0  0
   -8.3462    5.3099   26.4965 C   0  0  0  0  0  0  0  0  0  0  0  0
  -10.9744    3.5975   24.5149 C   0  0  0  0  0  0  0  0  0  0  0  0
  -10.8864    2.6389   23.6376 C   0  0  0  0  0  0  0  0  0  0  0  0
   -9.7349    1.7622   23.6316 C   0  0  0  0  0  0  0  0  0  0  0  0
   -9.6307    0.7275   22.6289 C   0  0  0  0  0  0  0  0  0  0  0  0
   -8.5410   -0.1541   22.5523 C   0  0  0  0  0  0  0  0  0  0  0  0
   -7.6419   -0.1301   23.6534 C   0  0  0  0  0  0  0  0  0  0  0  0
   -7.8558    0.7443   24.7160 C   0  0  0  0  0  0  0  0  0  0  0  0
   -8.8255    1.6149   24.7703 C   0  0  0  0  0  0  0  0  0  0  0  0
  5  8  1  0
  8  9  2  3
  9 10  1  0
  3  1  1  0
 10 11  2  0
 11 12  1  0
 12 13  2  0
 13 14  1  0
 14 15  2  0
 15 10  1  0
  1  2  2  0
  2  4  1  0
  4  5  2  0
  5  6  1  0
  6  7  2  0
  7  1  1  0
M  END
$$$$
