No_2710-complexes_sdf/6BKW-FPZ/2024-09-17-14-21-01/
     RDKit          3D

 23 26  0  0  0  0  0  0  0  0999 V2000
   -7.9040    3.9820   27.1177 C   0  0  0  0  0  0  0  0  0  0  0  0
   -7.8663    4.8694   27.9238 C   0  0  0  0  0  0  0  0  0  0  0  0
   -9.0491    3.8523   26.2542 C   0  0  0  0  0  0  0  0  0  0  0  0
   -8.7661    5.9491   27.9690 C   0  0  0  0  0  0  0  0  0  0  0  0
   -9.9295    4.8502   26.2323 C   0  0  0  0  0  0  0  0  0  0  0  0
   -9.8077    5.9288   27.0933 C   0  0  0  0  0  0  0  0  0  0  0  0
   -6.9606    2.7994   27.1981 C   0  0  0  0  0  0  0  0  0  0  0  0
   -7.3628    1.4634   26.8684 C   0  0  0  0  0  0  0  0  0  0  0  0
   -6.4858    0.4634   27.0820 C   0  0  0  0  0  0  0  0  0  0  0  0
   -5.2352    0.7316   27.7289 C   0  0  0  0  0  0  0  0  0  0  0  0
   -4.9365    2.0389   28.1259 C   0  0  0  0  0  0  0  0  0  0  0  0
   -5.7259    3.0042   27.9295 C   0  0  0  0  0  0  0  0  0  0  0  0
   -4.3025   -0.3867   27.9874 C   0  0  0  0  0  0  0  0  0  0  0  0
   -4.3797   -1.4574   27.6796 C   0  0  0  0  0  0  0  0  0  0  0  0
   -5.5693   -1.8148   26.8521 C   0  0  0  0  0  0  0  0  0  0  0  0
   -6.6151   -0.8933   26.6294 C   0  0  0  0  0  0  0  0  0  0  0  0
  -10.9090    4.8039   25.2976 O   0  0  0  0  0  0  0  0  0  0  0  0
  -11.7711    3.8610   25.4261 C   0  0  0  0  0  0  0  0  0  0  0  0
  -12.7137    3.8632   24.3878 C   0  0  0  0  0  0  0  0  0  0  0  0
  -13.8161    2.9833   24.3761 C   0  0  0  0  0  0  0  0  0  0  0  0
  -13.8826    2.2856   25.1145 C   0  0  0  0  0  0  0  0  0  0  0  0
  -12.0092    2.8301   26.3401 C   0  0  0  0  0  0  0  0  0  0  0  0
  -13.0246    2.0598   26.3137 C   0  0  0  0  0  0  0  0  0  0  0  0
  1  7  1  0
  5 17  1  0
 17 18  1  0
 10 13  2  0
 13 14  1  0
 14 15  2  0
 15 16  1  0
 16  9  2  0
  1  2  2  0
  2  4  1  0
  4  6  2  0
  6  5  1  0
  5  3  2  0
  3  1  1  0
 18 19  2  0
 19 20  1  0
 20 21  2  0
 21 23  1  0
 23 22  2  0
 22 18  1  0
  7  8  2  0
  8  9  1  0
  9 10  1  0
 10 11  1  0
 11 12  2  0
 12  7  1  0
M  END
$$$$
