No_2688-complexes_sdf/6BKW-FPZ/2024-09-17-14-21-01/
     RDKit          3D

 26 30  0  0  0  0  0  0  0  0999 V2000
   -7.9040    3.9820   27.1177 C   0  0  0  0  0  0  0  0  0  0  0  0
   -9.0711    4.3164   27.0630 C   0  0  0  0  0  0  0  0  0  0  0  0
   -9.5294    5.4517   27.7215 C   0  0  0  0  0  0  0  0  0  0  0  0
   -9.9845    3.5634   26.2189 C   0  0  0  0  0  0  0  0  0  0  0  0
   -9.6295    2.5733   25.6121 C   0  0  0  0  0  0  0  0  0  0  0  0
   -6.9226    4.6383   28.0851 C   0  0  0  0  0  0  0  0  0  0  0  0
   -8.7450    1.6589   26.1522 C   0  0  0  0  0  0  0  0  0  0  0  0
   -7.5511    2.3838   26.8169 C   0  0  0  0  0  0  0  0  0  0  0  0
  -10.3614    1.9447   24.4712 C   0  0  1  0  0  0  0  0  0  0  0  0
  -10.2896    2.6994   23.2548 C   0  0  0  0  0  0  0  0  0  0  0  0
  -10.4923    2.1780   22.0013 C   0  0  0  0  0  0  0  0  0  0  0  0
  -10.7549    0.7806   21.9182 C   0  0  0  0  0  0  0  0  0  0  0  0
   -9.9122    0.6033   24.0628 C   0  0  2  0  0  0  0  0  0  0  0  0
   -9.9385    0.1485   23.0471 C   0  0  0  0  0  0  0  0  0  0  0  0
  -11.8258    1.7832   24.8389 C   0  0  0  0  0  0  0  0  0  0  0  0
  -12.5984    2.8384   24.6289 C   0  0  0  0  0  0  0  0  0  0  0  0
  -12.2981    0.6810   25.4263 C   0  0  0  0  0  0  0  0  0  0  0  0
  -13.9140    2.9283   25.1852 C   0  0  0  0  0  0  0  0  0  0  0  0
  -13.6244    0.6895   25.9969 C   0  0  0  0  0  0  0  0  0  0  0  0
  -14.3953    1.8067   25.8004 C   0  0  0  0  0  0  0  0  0  0  0  0
   -9.1066    6.7259   27.1531 C   0  0  0  0  0  0  0  0  0  0  0  0
   -7.6758    7.0466   27.5947 C   0  0  0  0  0  0  0  0  0  0  0  0
   -6.7188    5.9432   27.4174 C   0  0  0  0  0  0  0  0  0  0  0  0
   -9.4657   -0.3537   25.2226 C   0  0  2  0  0  0  0  0  0  0  0  0
   -8.2851    0.4185   25.6007 C   0  0  0  0  0  0  0  0  0  0  0  0
   -9.1382   -1.7536   24.8096 C   0  0  0  0  0  0  0  0  0  0  0  0
  2  3  1  0
  1  6  1  0
  5  9  1  0
  9 10  1  0
 11 12  1  0
  9 13  1  0
  9 15  1  1
  3 21  1  0
 21 22  1  0
  6 23  1  0
 22 23  1  0
 13 24  1  0
  7 25  1  0
 24 25  1  0
 24 26  1  6
 10 11  1  0
 12 14  1  0
 13 14  1  1
  1  2  2  0
  2  4  1  0
  4  5  2  0
  5  7  1  0
  7  8  2  0
  8  1  1  0
 15 16  2  0
 16 18  1  0
 18 20  2  0
 20 19  1  0
 19 17  2  0
 17 15  1  0
M  END
$$$$
