No_2146-complexes_sdf/6BKW-FPZ/2024-09-17-14-21-01/
     RDKit          3D

 20 22  0  0  0  0  0  0  0  0999 V2000
   -7.9040    3.9820   27.1177 C   0  0  0  0  0  0  0  0  0  0  0  0
   -7.8663    4.8694   27.9238 C   0  0  0  0  0  0  0  0  0  0  0  0
   -9.0806    3.1428   27.1220 C   0  0  0  0  0  0  0  0  0  0  0  0
  -10.1072    3.3606   27.8219 C   0  0  0  0  0  0  0  0  0  0  0  0
   -8.9918    5.4653   28.5483 C   0  0  0  0  0  0  0  0  0  0  0  0
  -10.1493    4.6383   28.6025 C   0  0  0  0  0  0  0  0  0  0  0  0
   -8.9761    1.8223   26.3519 C   0  0  0  0  0  0  0  0  0  0  0  0
   -8.1423    0.8407   26.6779 C   0  0  0  0  0  0  0  0  0  0  0  0
   -8.0123   -0.3172   25.9925 C   0  0  0  0  0  0  0  0  0  0  0  0
   -9.7315    1.7277   25.1938 C   0  0  0  0  0  0  0  0  0  0  0  0
  -10.5387    2.8199   24.7355 C   0  0  0  0  0  0  0  0  0  0  0  0
  -11.1166    2.7678   23.4840 C   0  0  0  0  0  0  0  0  0  0  0  0
   -9.5845    0.6188   24.4329 C   0  0  0  0  0  0  0  0  0  0  0  0
  -10.3582    0.5415   23.2167 C   0  0  0  0  0  0  0  0  0  0  0  0
  -11.0621    1.6172   22.7647 C   0  0  0  0  0  0  0  0  0  0  0  0
   -8.7327   -0.4436   24.7716 C   0  0  0  0  0  0  0  0  0  0  0  0
   -8.5370   -1.5734   23.9338 C   0  0  0  0  0  0  0  0  0  0  0  0
   -7.5150   -2.0112   23.6216 C   0  0  0  0  0  0  0  0  0  0  0  0
   -7.2964   -3.1762   22.7339 C   0  0  0  0  0  0  0  0  0  0  0  0
   -6.1302   -3.6574   22.4096 C   0  0  0  0  0  0  0  0  0  0  0  0
  3  7  1  0
 16 17  1  0
 17 18  2  3
 18 19  1  0
 19 20  2  0
 10 11  2  0
 11 12  1  0
 12 15  2  0
 15 14  1  0
 14 13  2  0
  1  2  2  0
  2  5  1  0
  5  6  2  0
  6  4  1  0
  4  3  2  0
  3  1  1  0
  7  8  2  0
  8  9  1  0
  9 16  2  0
 16 13  1  0
 13 10  1  0
 10  7  1  0
M  END
$$$$
