No_252-complexes_sdf/6BKW-FPZ/2024-09-17-14-21-01/
     RDKit          3D

 23 26  0  0  0  0  0  0  0  0999 V2000
   -7.9040    3.9820   27.1177 C   0  0  0  0  0  0  0  0  0  0  0  0
   -9.0711    4.3164   27.0630 C   0  0  0  0  0  0  0  0  0  0  0  0
   -9.5182    5.5541   27.5777 C   0  0  0  0  0  0  0  0  0  0  0  0
   -7.4468    2.6843   26.6499 C   0  0  0  0  0  0  0  0  0  0  0  0
   -8.3856    1.7878   26.2216 C   0  0  0  0  0  0  0  0  0  0  0  0
   -9.6812    2.2328   26.0889 C   0  0  0  0  0  0  0  0  0  0  0  0
  -10.0147    3.4312   26.5259 C   0  0  0  0  0  0  0  0  0  0  0  0
   -7.7098    0.5124   25.8113 C   0  0  0  0  0  0  0  0  0  0  0  0
   -8.2689   -0.0684   24.7436 C   0  0  0  0  0  0  0  0  0  0  0  0
   -7.6747   -1.3065   24.2645 C   0  0  0  0  0  0  0  0  0  0  0  0
   -6.6625   -1.9091   25.0623 C   0  0  0  0  0  0  0  0  0  0  0  0
   -6.7129   -0.1788   26.5483 C   0  0  0  0  0  0  0  0  0  0  0  0
   -6.2113   -1.3086   26.2341 C   0  0  0  0  0  0  0  0  0  0  0  0
   -8.6022    6.6891   27.2880 C   0  0  0  0  0  0  0  0  0  0  0  0
   -7.2344    6.4117   27.1036 C   0  0  0  0  0  0  0  0  0  0  0  0
   -6.8519    5.0639   27.0872 C   0  0  0  0  0  0  0  0  0  0  0  0
  -11.4594    3.8079   26.3507 C   0  0  0  0  0  0  0  0  0  0  0  0
  -12.1620    3.1272   27.0207 C   0  0  0  0  0  0  0  0  0  0  0  0
  -13.5123    3.4850   27.2618 C   0  0  0  0  0  0  0  0  0  0  0  0
  -14.1890    3.2379   28.4396 C   0  0  0  0  0  0  0  0  0  0  0  0
  -13.6594    2.1866   29.2609 C   0  0  0  0  0  0  0  0  0  0  0  0
  -12.3764    1.7355   29.0435 C   0  0  0  0  0  0  0  0  0  0  0  0
  -11.6087    2.2878   28.1183 C   0  0  0  0  0  0  0  0  0  0  0  0
  5  8  1  0
  7 17  1  0
 17 18  1  0
 18 19  2  0
 19 20  1  0
 20 21  2  0
 21 22  1  0
 22 23  2  0
 23 18  1  0
  2  7  1  0
  7  6  2  0
  6  5  1  0
  5  4  2  0
  4  1  1  0
  1  2  1  0
  2  3  2  0
  3 14  1  0
 14 15  2  0
 15 16  1  0
 16  1  2  0
  8  9  2  0
  9 10  1  0
 10 11  2  0
 11 13  1  0
 13 12  2  0
 12  8  1  0
M  END
$$$$
