No_2544-complexes_sdf/6BKW-FPZ/2024-09-17-14-21-01/
     RDKit          3D

 22 25  0  0  0  0  0  0  0  0999 V2000
   -7.2496    3.8871   27.4508 C   0  0  0  0  0  0  0  0  0  0  0  0
   -8.5096    4.0291   27.2770 C   0  0  0  0  0  0  0  0  0  0  0  0
   -9.3451    2.8786   26.9046 C   0  0  0  0  0  0  0  0  0  0  0  0
   -6.6065    2.5680   27.5073 C   0  0  0  0  0  0  0  0  0  0  0  0
   -7.4233    1.4858   27.2402 C   0  0  2  0  0  0  0  0  0  0  0  0
   -8.7362    1.6525   26.9989 C   0  0  0  0  0  0  0  0  0  0  0  0
   -9.0996    5.3741   27.2135 C   0  0  0  0  0  0  0  0  0  0  0  0
  -10.4796    5.9528   27.7496 Cl  0  0  0  0  0  0  0  0  0  0  0  0
   -6.7944    0.1476   27.3468 C   0  0  0  0  0  0  0  0  0  0  0  0
   -5.5597    0.0447   27.8361 C   0  0  0  0  0  0  0  0  0  0  0  0
   -5.2016   -1.1530   28.2803 C   0  0  0  0  0  0  0  0  0  0  0  0
   -5.9246   -2.2844   27.9968 C   0  0  0  0  0  0  0  0  0  0  0  0
   -7.5050   -1.0008   27.0747 C   0  0  0  0  0  0  0  0  0  0  0  0
   -7.1153   -2.1863   27.4768 C   0  0  0  0  0  0  0  0  0  0  0  0
   -8.2193    6.4134   26.5466 C   0  0  0  0  0  0  0  0  0  0  0  0
   -7.5858    7.4119   27.3739 C   0  0  0  0  0  0  0  0  0  0  0  0
   -3.7651   -1.2768   28.9478 C   0  0  0  0  0  0  0  0  0  0  0  0
   -2.9397   -0.1338   29.0320 C   0  0  0  0  0  0  0  0  0  0  0  0
   -3.5575    1.1409   28.6033 C   0  0  0  0  0  0  0  0  0  0  0  0
   -4.7373    1.2034   28.1011 C   0  0  2  0  0  0  0  0  0  0  0  0
   -5.3589    2.4353   27.8369 N   0  0  0  0  0  0  0  0  0  0  0  0
   -7.0389    8.3614   26.6459 O   0  0  0  0  0  0  0  0  0  0  0  0
  1  2  1  0
  2  3  2  0
  1  4  2  0
  4  5  1  0
  3  6  1  0
  5  6  1  1
  2  7  1  0
  7  8  1  0
  5  9  1  0
  9 10  2  0
 10 11  1  0
 11 12  2  0
  9 13  1  0
 12 14  1  0
 13 14  2  0
  7 15  1  0
 15 16  1  0
 11 17  1  0
 17 18  2  0
 18 19  1  0
 10 20  1  0
 20 19  1  1
  4 21  1  0
 20 21  1  0
 16 22  2  0
M  END
$$$$
