No_2630-complexes_sdf/6BKW-FPZ/2024-09-17-14-21-01/
     RDKit          3D

 32 35  0  0  0  0  0  0  0  0999 V2000
   -7.2496    3.8871   27.4508 C   0  0  0  0  0  0  0  0  0  0  0  0
   -7.6161    2.7143   27.1523 C   0  0  0  0  0  0  0  0  0  0  0  0
   -6.9719    1.5838   27.5324 C   0  0  0  0  0  0  0  0  0  0  0  0
   -5.6316    1.7305   27.9933 C   0  0  2  0  0  0  0  0  0  0  0  0
   -4.8829    0.5418   28.3979 C   0  0  0  0  0  0  0  0  0  0  0  0
   -5.9097    4.0890   28.0607 C   0  0  0  0  0  0  0  0  0  0  0  0
   -5.1895    3.0612   28.3190 C   0  0  0  0  0  0  0  0  0  0  0  0
   -3.8702    0.6451   29.1136 N   0  0  0  0  0  0  0  0  0  0  0  0
   -8.0689    5.0966   27.1808 C   0  0  0  0  0  0  0  0  0  0  0  0
   -7.8440    6.3645   27.8378 C   0  0  0  0  0  0  0  0  0  0  0  0
   -9.1062    5.0260   26.2464 C   0  0  0  0  0  0  0  0  0  0  0  0
   -3.1131   -0.4274   29.6241 C   0  0  0  0  0  0  0  0  0  0  0  0
   -2.2976   -0.2943   30.7172 C   0  0  0  0  0  0  0  0  0  0  0  0
   -3.2080   -1.5827   28.8406 C   0  0  0  0  0  0  0  0  0  0  0  0
   -5.5108   -0.5374   28.1803 O   0  0  0  0  0  0  0  0  0  0  0  0
   -1.7677   -1.4780   31.2478 C   0  0  0  0  0  0  0  0  0  0  0  0
   -2.4400   -2.7319   29.3584 C   0  0  0  0  0  0  0  0  0  0  0  0
   -1.7691   -2.6426   30.5689 C   0  0  0  0  0  0  0  0  0  0  0  0
   -8.5867    7.4531   27.3682 C   0  0  0  0  0  0  0  0  0  0  0  0
   -9.5814    3.7961   25.8060 C   0  0  0  0  0  0  0  0  0  0  0  0
   -8.8551    2.5838   26.2888 C   0  0  0  0  0  0  0  0  0  0  0  0
  -10.6777    3.6494   24.9203 C   0  0  1  0  0  0  0  0  0  0  0  0
  -10.5390    3.3768   23.6220 C   0  0  0  0  0  0  0  0  0  0  0  0
   -9.9976    2.4456   23.0784 C   0  0  0  0  0  0  0  0  0  0  0  0
   -9.9049    2.1371   21.6699 C   0  0  0  0  0  0  0  0  0  0  0  0
  -11.0193    4.4243   22.6693 C   0  0  0  0  0  0  0  0  0  0  0  0
  -10.9403    4.3379   21.3367 C   0  0  0  0  0  0  0  0  0  0  0  0
  -10.3231    3.1598   20.8360 C   0  0  0  0  0  0  0  0  0  0  0  0
  -11.9936    3.6275   25.5420 C   0  0  0  0  0  0  0  0  0  0  0  0
  -12.1589    3.6777   26.8954 C   0  0  0  0  0  0  0  0  0  0  0  0
  -12.7524    3.0814   27.5839 C   0  0  0  0  0  0  0  0  0  0  0  0
  -12.8666    3.2304   29.1221 C   0  0  0  0  0  0  0  0  0  0  0  0
  2  3  1  0
  3  4  1  0
  4  5  1  1
  1  6  1  0
  4  7  1  0
  6  7  1  0
  5  8  1  0
  5 15  2  0
 10 19  1  0
 20 22  1  0
 22 23  1  0
 22 29  1  1
 29 30  1  0
 30 31  2  3
 31 32  1  0
  8 12  1  0
 10  9  1  0
 23 24  2  0
 24 25  1  0
 25 28  2  0
 28 27  1  0
 27 26  2  0
 26 23  1  0
 12 13  2  0
 13 16  1  0
 16 18  2  0
 18 17  1  0
 17 14  2  0
 14 12  1  0
  1  2  2  0
  2 21  1  0
 21 20  2  0
 20 11  1  0
 11  9  2  0
  9  1  1  0
M  END
$$$$
