No_2069-complexes_sdf/6BKW-FPZ/2024-09-17-14-21-01/
     RDKit          3D

 24 26  0  0  0  0  0  0  0  0999 V2000
   -7.7129    4.2099   27.0854 C   0  0  0  0  0  0  0  0  0  0  0  0
   -7.7814    5.1722   27.8972 C   0  0  0  0  0  0  0  0  0  0  0  0
   -7.3155    2.9700   27.6145 C   0  0  0  0  0  0  0  0  0  0  0  0
   -7.6814    1.8188   26.9581 C   0  0  0  0  0  0  0  0  0  0  0  0
   -7.2010    0.5770   27.3247 C   0  0  0  0  0  0  0  0  0  0  0  0
   -5.9696    0.6081   28.0083 C   0  0  0  0  0  0  0  0  0  0  0  0
   -5.3021    1.7942   28.3184 C   0  0  0  0  0  0  0  0  0  0  0  0
   -5.9222    2.9618   28.0230 C   0  0  0  0  0  0  0  0  0  0  0  0
   -8.4168    6.5271   27.5690 C   0  0  0  0  0  0  0  0  0  0  0  0
   -8.6547    4.3291   26.0224 C   0  0  0  0  0  0  0  0  0  0  0  0
   -9.4024    5.5041   25.7254 C   0  0  0  0  0  0  0  0  0  0  0  0
   -9.1954    6.6109   26.5081 C   0  0  0  0  0  0  0  0  0  0  0  0
   -5.3078   -0.7107   28.3194 C   0  0  0  0  0  0  0  0  0  0  0  0
   -4.1730   -0.9698   28.4862 N   0  0  0  0  0  0  0  0  0  0  0  0
   -3.6501   -2.1090   28.9493 C   0  0  0  0  0  0  0  0  0  0  0  0
   -6.1482   -1.6778   28.6098 O   0  0  0  0  0  0  0  0  0  0  0  0
   -3.2831   -3.0957   28.2004 C   0  0  0  0  0  0  0  0  0  0  0  0
   -2.9546   -4.2501   28.6246 C   0  0  0  0  0  0  0  0  0  0  0  0
   -2.7331   -4.4825   30.0500 C   0  0  0  0  0  0  0  0  0  0  0  0
   -3.0366   -3.4364   30.9088 C   0  0  0  0  0  0  0  0  0  0  0  0
   -3.5011   -2.1592   30.4385 C   0  0  0  0  0  0  0  0  0  0  0  0
   -3.7620   -1.0593   31.3435 C   0  0  0  0  0  0  0  0  0  0  0  0
   -4.4638   -1.1179   32.3718 C   0  0  0  0  0  0  0  0  0  0  0  0
   -2.9260    0.1908   31.1698 C   0  0  0  0  0  0  0  0  0  0  0  0
  6 13  1  0
 13 14  1  0
 14 15  1  0
 13 16  2  0
 21 22  1  0
 22 23  2  0
 22 24  1  0
  3  1  1  0
 15 17  2  0
 17 18  1  0
 18 19  2  0
 19 20  1  0
 20 21  2  0
 21 15  1  0
  3  4  2  0
  4  5  1  0
  5  6  2  0
  6  7  1  0
  7  8  2  0
  8  3  1  0
  1  2  2  0
  2  9  1  0
  9 12  2  0
 12 11  1  0
 11 10  2  0
 10  1  1  0
M  END
$$$$
