No_2250-complexes_sdf/6BKW-FPZ/2024-09-17-14-21-01/
     RDKit          3D

 25 28  0  0  0  0  0  0  0  0999 V2000
   -7.7129    4.2099   27.0854 C   0  0  0  0  0  0  0  0  0  0  0  0
   -8.2112    3.0637   26.9225 C   0  0  0  0  0  0  0  0  0  0  0  0
   -7.0021    4.5281   28.2396 C   0  0  0  0  0  0  0  0  0  0  0  0
   -7.5497    1.9016   27.4549 C   0  0  0  0  0  0  0  0  0  0  0  0
   -8.0700    0.6173   27.2932 C   0  0  0  0  0  0  0  0  0  0  0  0
   -9.3589    0.5577   26.6828 C   0  0  0  0  0  0  0  0  0  0  0  0
  -10.0040    1.6252   26.1809 C   0  0  0  0  0  0  0  0  0  0  0  0
   -9.4269    2.8857   26.2743 C   0  0  0  0  0  0  0  0  0  0  0  0
   -8.4271    5.3530   26.4842 C   0  0  0  0  0  0  0  0  0  0  0  0
   -8.1382    6.7251   26.9088 C   0  0  0  0  0  0  0  0  0  0  0  0
   -6.8583    5.9179   28.7517 C   0  0  0  0  0  0  0  0  0  0  0  0
   -7.3780    6.9333   28.0310 C   0  0  0  0  0  0  0  0  0  0  0  0
  -11.2944    1.4263   25.4770 C   0  0  0  0  0  0  0  0  0  0  0  0
  -11.5091    0.6189   24.7566 C   0  0  0  0  0  0  0  0  0  0  0  0
  -12.7832    0.4457   24.0138 C   0  0  0  0  0  0  0  0  0  0  0  0
  -13.4458    1.2341   23.9905 C   0  0  0  0  0  0  0  0  0  0  0  0
  -13.3462    2.4888   24.7629 C   0  0  0  0  0  0  0  0  0  0  0  0
  -12.1649    2.6587   25.5123 C   0  0  0  0  0  0  0  0  0  0  0  0
   -8.7402    7.7060   26.2311 O   0  0  0  0  0  0  0  0  0  0  0  0
   -7.4550   -0.5504   27.8634 C   0  0  0  0  0  0  0  0  0  0  0  0
   -6.0898   -0.5604   28.1042 C   0  0  0  0  0  0  0  0  0  0  0  0
   -5.4416   -1.6655   28.7338 C   0  0  0  0  0  0  0  0  0  0  0  0
   -6.2431   -2.7496   29.0250 C   0  0  0  0  0  0  0  0  0  0  0  0
   -8.1240   -1.7039   28.2312 C   0  0  0  0  0  0  0  0  0  0  0  0
   -7.5796   -2.7460   28.8245 C   0  0  0  0  0  0  0  0  0  0  0  0
  1  2  1  0
  7 13  1  0
 10 19  1  0
  5 20  1  0
  1  3  2  0
  3 11  1  0
 11 12  2  0
 12 10  1  0
 10  9  2  0
  9  1  1  0
 13 14  2  0
 14 15  1  0
 15 16  2  0
 16 17  1  0
 17 18  2  0
 18 13  1  0
 20 21  2  0
 21 22  1  0
 22 23  2  0
 23 25  1  0
 25 24  2  0
 24 20  1  0
  2  4  2  0
  4  5  1  0
  5  6  2  0
  6  7  1  0
  7  8  2  0
  8  2  1  0
M  END
$$$$
