No_2514-complexes_sdf/6BKW-FPZ/2024-09-17-14-21-01/
     RDKit          3D

 29 32  0  0  0  0  0  0  0  0999 V2000
   -7.7129    4.2099   27.0854 C   0  0  0  0  0  0  0  0  0  0  0  0
   -8.2112    3.0637   26.9225 C   0  0  0  0  0  0  0  0  0  0  0  0
   -8.5108    5.3904   26.9436 C   0  0  0  0  0  0  0  0  0  0  0  0
   -7.9752    6.6981   27.2112 C   0  0  1  0  0  0  0  0  0  0  0  0
   -9.5213    2.8209   26.4688 C   0  0  0  0  0  0  0  0  0  0  0  0
  -10.2979    3.9327   26.2378 C   0  0  0  0  0  0  0  0  0  0  0  0
   -9.7894    5.2123   26.4395 C   0  0  0  0  0  0  0  0  0  0  0  0
   -7.3451    1.8185   27.1796 C   0  0  0  0  0  0  0  0  0  0  0  0
   -6.1581    1.9961   27.7424 N   0  0  0  0  0  0  0  0  0  0  0  0
   -5.3004    0.8490   27.9655 C   0  0  0  0  0  0  0  0  0  0  0  0
   -5.8462   -0.3503   27.7326 C   0  0  0  0  0  0  0  0  0  0  0  0
   -7.6842    0.4824   27.0151 C   0  0  0  0  0  0  0  0  0  0  0  0
   -7.0322   -0.5289   27.3065 C   0  0  0  0  0  0  0  0  0  0  0  0
   -4.0680    1.1901   28.4883 N   0  0  0  0  0  0  0  0  0  0  0  0
   -6.7167    6.8597   28.1174 Cl  0  0  0  0  0  0  0  0  0  0  0  0
   -8.4950    7.8924   26.5502 C   0  0  0  0  0  0  0  0  0  0  0  0
   -3.2428    0.1617   28.8957 C   0  0  0  0  0  0  0  0  0  0  0  0
   -3.6584   -1.1338   28.7920 C   0  0  0  0  0  0  0  0  0  0  0  0
   -4.9055   -1.4121   28.2709 C   0  0  0  0  0  0  0  0  0  0  0  0
   -2.7570   -2.1890   29.2103 C   0  0  1  0  0  0  0  0  0  0  0  0
   -2.9753   -3.1956   29.4430 F   0  0  0  0  0  0  0  0  0  0  0  0
   -1.2983   -1.7642   29.1242 C   0  0  0  0  0  0  0  0  0  0  0  0
   -0.4308   -2.6177   29.4227 C   0  0  0  0  0  0  0  0  0  0  0  0
   -0.2827   -2.9294   30.5383 C   0  0  0  0  0  0  0  0  0  0  0  0
   -1.1347   -2.5724   31.6193 C   0  0  0  0  0  0  0  0  0  0  0  0
   -0.6379   -2.4799   32.9530 C   0  0  0  0  0  0  0  0  0  0  0  0
    0.5826   -3.1632   33.2110 C   0  0  0  0  0  0  0  0  0  0  0  0
    1.3884   -3.5724   32.2552 C   0  0  0  0  0  0  0  0  0  0  0  0
    1.0545   -3.3597   30.9687 C   0  0  0  0  0  0  0  0  0  0  0  0
  3  4  1  0
  2  8  1  0
  4 15  1  0
  4 16  1  6
 18 20  1  0
 20 21  1  6
 20 22  1  0
 22 23  1  0
 23 24  1  0
 24 25  2  0
 25 26  1  0
 26 27  2  0
 27 28  1  0
 28 29  2  0
 29 24  1  0
 11 19  2  0
 19 18  1  0
 18 17  2  0
 17 14  1  0
 14 10  2  0
  1  2  2  0
  2  5  1  0
  5  6  2  0
  6  7  1  0
  7  3  2  0
  3  1  1  0
  8  9  2  0
  9 10  1  0
 10 11  1  0
 11 13  1  0
 13 12  2  0
 12  8  1  0
M  END
$$$$
