No_2363-complexes_sdf/6BKW-FPZ/2024-09-17-14-21-01/
     RDKit          3D

 17 18  0  0  0  0  0  0  0  0999 V2000
   -7.7129    4.2099   27.0854 C   0  0  0  0  0  0  0  0  0  0  0  0
   -8.9133    4.4736   27.0998 C   0  0  0  0  0  0  0  0  0  0  0  0
   -9.4643    5.5426   27.7628 C   0  0  0  0  0  0  0  0  0  0  0  0
   -9.8091    3.6358   26.2841 C   0  0  0  0  0  0  0  0  0  0  0  0
   -9.4101    2.5938   25.7918 C   0  0  0  0  0  0  0  0  0  0  0  0
   -6.8108    4.9290   28.1313 C   0  0  0  0  0  0  0  0  0  0  0  0
   -9.0967    1.6282   26.3174 C   0  0  0  0  0  0  0  0  0  0  0  0
   -9.2365    1.4215   27.7675 C   0  0  0  0  0  0  0  0  0  0  0  0
   -7.4018    5.9832   28.8016 C   0  0  0  0  0  0  0  0  0  0  0  0
   -8.6475    6.3382   28.5925 C   0  0  0  0  0  0  0  0  0  0  0  0
   -8.3594    0.4320   25.7361 C   0  0  0  0  0  0  0  0  0  0  0  0
   -8.8120   -0.6221   25.9714 N   0  0  0  0  0  0  0  0  0  0  0  0
   -9.3686    0.0569   28.2810 C   0  0  0  0  0  0  0  0  0  0  0  0
   -8.9306   -0.9760   27.3785 C   0  0  0  0  0  0  0  0  0  0  0  0
   -9.9793    2.3040   24.3797 C   0  0  0  0  0  0  0  0  0  0  0  0
  -10.5076    3.3349   23.5625 C   0  0  0  0  0  0  0  0  0  0  0  0
  -10.6916    4.5232   24.2336 C   0  0  0  0  0  0  0  0  0  0  0  0
  2  4  1  0
  4  5  2  3
  5  7  1  0
  5 15  1  0
 15 16  2  3
 16 17  1  0
  1  2  2  0
  2  3  1  0
  3 10  2  0
 10  9  1  0
  9  6  2  0
  6  1  1  0
  7  8  2  0
  8 13  1  0
 13 14  2  0
 14 12  1  0
 12 11  2  0
 11  7  1  0
M  END
$$$$
