No_3497-complexes_sdf/6BKW-FPZ/2024-09-17-14-21-01/
     RDKit          3D

 10  9  0  0  0  0  0  0  0  0999 V2000
   -7.7129    4.2099   27.0854 C   0  0  0  0  0  0  0  0  0  0  0  0
   -8.9133    4.4736   27.0998 C   0  0  0  0  0  0  0  0  0  0  0  0
   -9.4643    5.5426   27.7628 C   0  0  0  0  0  0  0  0  0  0  0  0
   -9.5376    4.3102   25.7199 C   0  0  0  0  0  0  0  0  0  0  0  0
   -7.4402    2.6777   27.1210 C   0  0  0  0  0  0  0  0  0  0  0  0
   -6.3107    2.1535   27.7133 C   0  0  0  0  0  0  0  0  0  0  0  0
   -6.1633    0.7595   27.6801 C   0  0  0  0  0  0  0  0  0  0  0  0
   -4.9555    0.1667   28.2438 C   0  0  0  0  0  0  0  0  0  0  0  0
   -4.0367    1.1116   28.8019 C   0  0  0  0  0  0  0  0  0  0  0  0
   -4.3020    2.4020   28.7221 N   0  0  0  0  0  0  0  0  0  0  0  0
  1  2  1  0
  2  3  1  0
  2  4  1  0
  1  5  1  0
  5  6  2  3
  6  7  1  0
  7  8  2  3
  8  9  1  0
  9 10  2  0
M  END
$$$$
