No_3041-complexes_sdf/6BKW-FPZ/2024-09-17-14-21-01/
     RDKit          3D

 34 37  0  0  0  0  0  0  0  0999 V2000
   -7.2496    3.8871   27.4508 C   0  0  0  0  0  0  0  0  0  0  0  0
   -7.6161    2.7143   27.1523 C   0  0  0  0  0  0  0  0  0  0  0  0
   -8.8302    2.4659   26.5056 C   0  0  0  0  0  0  0  0  0  0  0  0
   -8.1584    5.0090   27.3234 C   0  0  0  0  0  0  0  0  0  0  0  0
   -9.3788    4.7965   26.7695 C   0  0  0  0  0  0  0  0  0  0  0  0
   -9.7028    3.5649   26.3276 C   0  0  0  0  0  0  0  0  0  0  0  0
   -6.8005    1.6683   27.3584 F   0  0  0  0  0  0  0  0  0  0  0  0
   -7.7258    6.2593   27.7277 O   0  0  0  0  0  0  0  0  0  0  0  0
  -11.0189    3.3535   25.6665 C   0  0  0  0  0  0  0  0  0  0  0  0
  -12.1487    3.0715   26.3311 C   0  0  0  0  0  0  0  0  0  0  0  0
  -11.0738    3.4191   24.2308 C   0  0  0  0  0  0  0  0  0  0  0  0
  -12.2520    3.3469   23.5439 C   0  0  0  0  0  0  0  0  0  0  0  0
  -13.4002    3.0068   25.7107 C   0  0  0  0  0  0  0  0  0  0  0  0
  -13.4232    3.1548   24.3314 C   0  0  0  0  0  0  0  0  0  0  0  0
   -8.9954    1.0552   26.0402 C   0  0  0  0  0  0  0  0  0  0  0  0
   -8.6628    0.6918   24.8476 C   0  0  0  0  0  0  0  0  0  0  0  0
   -8.9146   -0.5046   24.2852 C   0  0  0  0  0  0  0  0  0  0  0  0
   -9.6368   -1.4029   25.0607 C   0  0  0  0  0  0  0  0  0  0  0  0
   -9.7096    0.1394   26.8404 C   0  0  0  0  0  0  0  0  0  0  0  0
  -10.0342   -1.0833   26.4012 C   0  0  0  0  0  0  0  0  0  0  0  0
  -14.5951    3.0312   23.6170 O   0  0  0  0  0  0  0  0  0  0  0  0
  -10.7531   -2.0685   27.1983 C   0  0  0  0  0  0  0  0  0  0  0  0
  -11.8926   -2.0898   27.2331 O   0  0  0  0  0  0  0  0  0  0  0  0
  -10.0397   -2.8308   28.0159 O   0  0  0  0  0  0  0  0  0  0  0  0
   -8.4999   -0.8690   22.9430 C   0  0  0  0  0  0  0  0  0  0  0  0
   -7.3075   -0.9874   22.8170 F   0  0  0  0  0  0  0  0  0  0  0  0
   -8.9210    0.1767   22.0935 F   0  0  0  0  0  0  0  0  0  0  0  0
   -9.1117   -1.9413   22.4252 F   0  0  0  0  0  0  0  0  0  0  0  0
   -8.8381   -2.7599   28.2826 C   0  0  0  0  0  0  0  0  0  0  0  0
   -8.5191   -2.5918   29.5759 C   0  0  0  0  0  0  0  0  0  0  0  0
   -7.0851   -2.4066   29.9769 C   0  0  0  0  0  0  0  0  0  0  0  0
   -6.1471   -2.2449   28.9549 C   0  0  0  0  0  0  0  0  0  0  0  0
   -6.5303   -2.3190   27.6456 C   0  0  0  0  0  0  0  0  0  0  0  0
   -7.8623   -2.4885   27.3483 C   0  0  0  0  0  0  0  0  0  0  0  0
  2  7  1  0
  4  8  1  0
  6  9  1  0
  3 15  1  0
 14 21  1  0
 20 22  1  0
 22 23  2  0
 22 24  1  0
 17 25  1  0
 25 26  1  0
 25 27  1  0
 25 28  1  0
 24 29  1  0
  9 10  2  0
 10 13  1  0
 13 14  2  0
 14 12  1  0
 12 11  2  0
 11  9  1  0
  1  2  2  0
  2  3  1  0
  3  6  2  0
  6  5  1  0
  5  4  2  0
  4  1  1  0
 29 30  2  0
 30 31  1  0
 31 32  2  0
 32 33  1  0
 33 34  2  0
 34 29  1  0
 15 16  2  0
 16 17  1  0
 17 18  2  0
 18 20  1  0
 20 19  2  0
 19 15  1  0
M  END
$$$$
