No_3546-complexes_sdf/6BKW-FPZ/2024-09-17-14-21-01/
     RDKit          3D

 17 18  0  0  0  0  0  0  0  0999 V2000
   -7.2496    3.8871   27.4508 C   0  0  0  0  0  0  0  0  0  0  0  0
   -7.9379    4.9063   27.8518 C   0  0  0  0  0  0  0  0  0  0  0  0
   -7.4895    6.2027   27.7481 C   0  0  0  0  0  0  0  0  0  0  0  0
   -7.8057    2.6324   27.3137 C   0  0  0  0  0  0  0  0  0  0  0  0
   -9.1037    2.5748   27.2441 C   0  0  0  0  0  0  0  0  0  0  0  0
   -9.9471    3.6001   27.6377 C   0  0  0  0  0  0  0  0  0  0  0  0
   -9.4099    4.8269   27.8836 C   0  0  0  0  0  0  0  0  0  0  0  0
  -11.4279    3.4022   27.7930 C   0  0  0  0  0  0  0  0  0  0  0  0
  -11.8924    2.5153   28.6272 C   0  0  0  0  0  0  0  0  0  0  0  0
  -13.2187    2.4681   29.0830 C   0  0  0  0  0  0  0  0  0  0  0  0
  -14.0870    3.4021   28.5252 C   0  0  0  0  0  0  0  0  0  0  0  0
  -12.2986    4.5178   27.4566 C   0  0  0  0  0  0  0  0  0  0  0  0
  -13.6044    4.4976   27.7981 C   0  0  0  0  0  0  0  0  0  0  0  0
   -6.7979    1.2791   26.9148 Cl  0  0  0  0  0  0  0  0  0  0  0  0
  -15.5338    3.4061   28.8832 C   0  0  0  0  0  0  0  0  0  0  0  0
  -16.3324    3.1517   28.2139 N   0  0  0  0  0  0  0  0  0  0  0  0
  -17.6597    3.1716   28.5206 C   0  0  0  0  0  0  0  0  0  0  0  0
  2  3  1  0
  6  8  1  0
  4 14  1  0
 11 15  1  0
 15 16  2  3
 16 17  1  0
  1  2  2  0
  2  7  1  0
  7  6  2  0
  6  5  1  0
  5  4  2  0
  4  1  1  0
  8  9  2  0
  9 10  1  0
 10 11  2  0
 11 13  1  0
 13 12  2  0
 12  8  1  0
M  END
$$$$
