No_3526-complexes_sdf/6BKW-FPZ/2024-09-17-14-21-01/
     RDKit          3D

 37 41  0  0  0  0  0  0  0  0999 V2000
   -7.2496    3.8871   27.4508 C   0  0  0  0  0  0  0  0  0  0  0  0
   -7.9379    4.9063   27.8518 C   0  0  0  0  0  0  0  0  0  0  0  0
   -9.3460    4.8223   27.8695 C   0  0  0  0  0  0  0  0  0  0  0  0
   -7.8628    2.6163   27.1065 C   0  0  0  0  0  0  0  0  0  0  0  0
   -9.2787    2.5744   27.1970 C   0  0  0  0  0  0  0  0  0  0  0  0
  -10.0108    3.6770   27.6340 C   0  0  0  0  0  0  0  0  0  0  0  0
  -11.4855    3.5731   27.7420 C   0  0  0  0  0  0  0  0  0  0  0  0
  -11.9299    2.8562   28.8221 C   0  0  0  0  0  0  0  0  0  0  0  0
  -13.2794    2.8349   29.2460 C   0  0  0  0  0  0  0  0  0  0  0  0
  -14.1511    3.6034   28.4508 C   0  0  0  0  0  0  0  0  0  0  0  0
  -13.7255    4.3534   27.3764 C   0  0  0  0  0  0  0  0  0  0  0  0
  -12.3282    4.4505   27.0679 C   0  0  0  0  0  0  0  0  0  0  0  0
   -7.1207    1.4580   26.7810 C   0  0  0  0  0  0  0  0  0  0  0  0
   -6.0590    1.1856   27.4818 O   0  0  0  0  0  0  0  0  0  0  0  0
   -7.4402    0.7613   25.7638 O   0  0  0  0  0  0  0  0  0  0  0  0
   -7.3088    6.1190   28.1188 N   0  0  0  0  0  0  0  0  0  0  0  0
   -5.4912   -0.0713   27.6068 C   0  0  0  0  0  0  0  0  0  0  0  0
   -4.2677   -0.0951   27.5639 C   0  0  0  0  0  0  0  0  0  0  0  0
   -3.5195   -1.3564   27.7008 C   0  0  0  0  0  0  0  0  0  0  0  0
   -4.2983   -2.4900   27.8637 C   0  0  0  0  0  0  0  0  0  0  0  0
   -6.2021   -1.1088   27.5415 C   0  0  0  0  0  0  0  0  0  0  0  0
   -5.6835   -2.3528   27.8052 C   0  0  0  0  0  0  0  0  0  0  0  0
  -13.7663    1.9806   30.3367 C   0  0  1  0  0  0  0  0  0  0  0  0
  -13.6951    2.5068   31.4320 O   0  0  0  0  0  0  0  0  0  0  0  0
  -14.3429    2.0280   32.5843 C   0  0  0  0  0  0  0  0  0  0  0  0
  -13.9295    2.6747   33.7300 C   0  0  0  0  0  0  0  0  0  0  0  0
  -13.3313    1.9970   34.7723 C   0  0  0  0  0  0  0  0  0  0  0  0
  -13.7648    2.0565   35.9483 C   0  0  0  0  0  0  0  0  0  0  0  0
  -13.5460    1.0055   36.8946 C   0  0  0  0  0  0  0  0  0  0  0  0
  -12.6510   -0.0478   36.5482 C   0  0  0  0  0  0  0  0  0  0  0  0
  -12.2861   -0.1403   35.1981 C   0  0  0  0  0  0  0  0  0  0  0  0
  -12.6199    0.8944   34.3214 C   0  0  0  0  0  0  0  0  0  0  0  0
  -14.9887    1.4004   30.0195 C   0  0  0  0  0  0  0  0  0  0  0  0
  -15.0481    0.5192   29.1035 C   0  0  0  0  0  0  0  0  0  0  0  0
  -16.2725   -0.1479   28.8138 C   0  0  0  0  0  0  0  0  0  0  0  0
  -15.2662    1.0379   32.4510 C   0  0  0  0  0  0  0  0  0  0  0  0
  -15.5931    0.6178   31.1578 C   0  0  0  0  0  0  0  0  0  0  0  0
  6  7  1  0
  4 13  1  0
 13 14  1  0
 13 15  2  0
  2 16  1  0
 14 17  1  0
 23  9  1  6
 23 24  1  0
 24 25  1  0
 25 26  1  0
 26 27  1  0
 23 33  1  0
 33 34  2  3
 34 35  1  0
 25 36  1  0
 33 37  1  0
 36 37  2  0
 17 18  2  0
 18 19  1  0
 19 20  2  0
 20 22  1  0
 22 21  2  0
 21 17  1  0
  1  2  2  0
  2  3  1  0
  3  6  2  0
  6  5  1  0
  5  4  2  0
  4  1  1  0
  7  8  2  0
  8  9  1  0
  9 10  2  0
 10 11  1  0
 11 12  2  0
 12  7  1  0
 27 28  2  0
 28 29  1  0
 29 30  2  0
 30 31  1  0
 31 32  2  0
 32 27  1  0
M  END
$$$$
