No_3347-complexes_sdf/6BKW-FPZ/2024-09-17-14-21-01/
     RDKit          3D

 15 16  0  0  0  0  0  0  0  0999 V2000
   -7.9040    3.9820   27.1177 C   0  0  0  0  0  0  0  0  0  0  0  0
   -8.2057    2.8231   26.8733 C   0  0  0  0  0  0  0  0  0  0  0  0
   -9.2962    2.4021   26.1155 C   0  0  0  0  0  0  0  0  0  0  0  0
   -6.8682    4.5169   28.0704 C   0  0  0  0  0  0  0  0  0  0  0  0
  -10.0578    3.3688   25.5520 C   0  0  0  0  0  0  0  0  0  0  0  0
   -9.6997    4.7480   25.6981 C   0  0  0  0  0  0  0  0  0  0  0  0
   -8.6783    5.1111   26.5262 C   0  0  0  0  0  0  0  0  0  0  0  0
   -8.2232    6.4105   26.9652 C   0  0  1  0  0  0  0  0  0  0  0  0
   -8.9898    7.6331   26.5439 C   0  0  0  0  0  0  0  0  0  0  0  0
   -7.1675    6.3381   27.9517 C   0  0  0  0  0  0  0  0  0  0  0  0
   -7.4130    1.7357   27.4740 N   0  0  0  0  0  0  0  0  0  0  0  0
   -7.5914    0.4065   27.2714 C   0  0  0  0  0  0  0  0  0  0  0  0
   -6.5764   -0.3505   27.0466 C   0  0  0  0  0  0  0  0  0  0  0  0
   -5.2698    0.1157   27.3426 C   0  0  0  0  0  0  0  0  0  0  0  0
   -5.1142    1.3815   27.8991 C   0  0  0  0  0  0  0  0  0  0  0  0
  1  4  1  0
  7  8  1  0
  8  9  1  1
  4 10  1  0
  8 10  1  0
  2 11  1  0
 11 12  2  3
 12 13  1  0
 13 14  1  0
 14 15  2  0
  1  2  2  0
  2  3  1  0
  3  5  2  0
  5  6  1  0
  6  7  2  0
  7  1  1  0
M  END
$$$$
