No_3061-complexes_sdf/6BKW-FPZ/2024-09-17-14-21-01/
     RDKit          3D

 22 25  0  0  0  0  0  0  0  0999 V2000
   -7.7129    4.2099   27.0854 C   0  0  0  0  0  0  0  0  0  0  0  0
   -7.7814    5.1722   27.8972 C   0  0  0  0  0  0  0  0  0  0  0  0
   -7.3155    2.9699   27.6145 C   0  0  0  0  0  0  0  0  0  0  0  0
   -7.6814    1.8188   26.9581 C   0  0  0  0  0  0  0  0  0  0  0  0
   -8.6377    1.9131   25.9324 C   0  0  0  0  0  0  0  0  0  0  0  0
   -9.1866    3.0673   25.6037 C   0  0  0  0  0  0  0  0  0  0  0  0
   -8.8394    4.1752   26.2513 C   0  0  0  0  0  0  0  0  0  0  0  0
   -8.2486    6.4747   27.5719 N   0  0  0  0  0  0  0  0  0  0  0  0
   -9.1525    6.6854   26.5919 C   0  0  0  0  0  0  0  0  0  0  0  0
   -9.4607    5.4864   25.8772 C   0  0  0  0  0  0  0  0  0  0  0  0
   -7.0245    0.5340   27.2725 C   0  0  0  0  0  0  0  0  0  0  0  0
   -5.7982    0.4635   27.9413 C   0  0  0  0  0  0  0  0  0  0  0  0
   -5.2153   -0.7570   28.2758 C   0  0  0  0  0  0  0  0  0  0  0  0
   -5.9221   -1.8964   27.9662 C   0  0  0  0  0  0  0  0  0  0  0  0
   -7.7006   -0.7295   27.0297 C   0  0  0  0  0  0  0  0  0  0  0  0
   -7.1507   -1.8763   27.4218 C   0  0  0  0  0  0  0  0  0  0  0  0
   -3.9017   -0.7251   28.9681 C   0  0  0  0  0  0  0  0  0  0  0  0
   -2.9219    0.0396   28.4270 C   0  0  0  0  0  0  0  0  0  0  0  0
   -3.6795   -1.4161   30.1829 C   0  0  0  0  0  0  0  0  0  0  0  0
   -2.5337   -1.8536   30.4508 C   0  0  0  0  0  0  0  0  0  0  0  0
   -1.5282   -0.2621   28.8962 C   0  0  0  0  0  0  0  0  0  0  0  0
   -1.3471   -1.1016   29.9514 C   0  0  0  0  0  0  0  0  0  0  0  0
  4 11  1  0
 13 17  1  0
  1  2  2  0
  2  8  1  0
  8  9  2  0
  9 10  1  0
 10  7  2  0
 11 12  2  0
 12 13  1  0
 13 14  2  0
 14 16  1  0
 16 15  2  0
 15 11  1  0
 17 18  2  0
 18 21  1  0
 21 22  2  0
 22 20  1  0
 20 19  2  0
 19 17  1  0
  1  3  1  0
  3  4  2  0
  4  5  1  0
  5  6  2  0
  6  7  1  0
  7  1  1  0
M  END
$$$$
