No_3671-complexes_sdf/6BKW-FPZ/2024-09-17-14-21-01/
     RDKit          3D

 33 37  0  0  0  0  0  0  0  0999 V2000
   -7.2496    3.8871   27.4508 C   0  0  0  0  0  0  0  0  0  0  0  0
   -7.6161    2.7143   27.1523 C   0  0  0  0  0  0  0  0  0  0  0  0
   -6.9719    1.5838   27.5324 C   0  0  0  0  0  0  0  0  0  0  0  0
   -5.6316    1.7305   27.9933 C   0  0  0  0  0  0  0  0  0  0  0  0
   -5.8952    4.0984   27.9705 C   0  0  0  0  0  0  0  0  0  0  0  0
   -4.8622    0.6916   28.3546 N   0  0  0  0  0  0  0  0  0  0  0  0
   -5.1715    3.0824   28.2568 C   0  0  0  0  0  0  0  0  0  0  0  0
   -8.0720    5.0955   27.1797 C   0  0  0  0  0  0  0  0  0  0  0  0
   -7.8469    6.3589   27.8479 C   0  0  0  0  0  0  0  0  0  0  0  0
   -9.0743    5.0439   26.2087 C   0  0  0  0  0  0  0  0  0  0  0  0
   -3.6891    0.6678   28.7270 C   0  0  0  0  0  0  0  0  0  0  0  0
   -3.1361   -0.6081   29.2924 C   0  0  0  0  0  0  0  0  0  0  0  0
   -5.4964   -0.6275   28.3372 C   0  0  0  0  0  0  0  0  0  0  0  0
   -5.0865   -1.4521   28.8447 C   0  0  0  0  0  0  0  0  0  0  0  0
   -3.7987   -1.6518   29.3648 C   0  0  0  0  0  0  0  0  0  0  0  0
   -8.5970    7.4464   27.3909 C   0  0  0  0  0  0  0  0  0  0  0  0
   -9.5249    3.8124   25.7312 C   0  0  0  0  0  0  0  0  0  0  0  0
   -8.8495    2.5860   26.2666 C   0  0  0  0  0  0  0  0  0  0  0  0
  -10.6263    3.6806   24.8583 C   0  0  0  0  0  0  0  0  0  0  0  0
  -11.8467    3.4039   25.3480 C   0  0  0  0  0  0  0  0  0  0  0  0
  -12.0560    3.0619   26.7006 C   0  0  0  0  0  0  0  0  0  0  0  0
  -13.4314    2.8477   27.1896 C   0  0  0  0  0  0  0  0  0  0  0  0
  -14.4384    2.9082   26.2870 C   0  0  0  0  0  0  0  0  0  0  0  0
  -14.2830    3.2452   24.9841 C   0  0  0  0  0  0  0  0  0  0  0  0
  -13.0153    3.5484   24.4988 C   0  0  0  0  0  0  0  0  0  0  0  0
  -10.3365    3.8130   23.4639 C   0  0  1  0  0  0  0  0  0  0  0  0
  -10.3457    2.7712   22.5934 C   0  0  0  0  0  0  0  0  0  0  0  0
   -9.9644    1.4759   22.9564 C   0  0  0  0  0  0  0  0  0  0  0  0
   -9.7887    0.4855   21.9893 C   0  0  0  0  0  0  0  0  0  0  0  0
  -10.2678    0.7595   20.7161 C   0  0  0  0  0  0  0  0  0  0  0  0
  -10.8318    1.9769   20.3656 C   0  0  0  0  0  0  0  0  0  0  0  0
  -10.7885    3.0374   21.2827 C   0  0  0  0  0  0  0  0  0  0  0  0
  -10.1763    5.4690   22.9554 Cl  0  0  0  0  0  0  0  0  0  0  0  0
  4  6  1  0
  6 11  1  0
  6 13  1  0
 12 15  1  0
 14 15  1  0
  9 16  1  0
 17 19  1  0
 19 26  1  0
 26 33  1  6
  9  8  1  0
 26 27  1  0
 19 20  1  0
 11 12  1  0
 14 13  1  0
  2 18  1  0
 18 17  2  0
 17 10  1  0
 10  8  2  0
  8  1  1  0
  1  2  1  0
  2  3  2  0
  3  4  1  0
  4  7  2  0
  7  5  1  0
  5  1  2  0
 27 28  2  0
 28 29  1  0
 29 30  2  0
 30 31  1  0
 31 32  2  0
 32 27  1  0
 20 21  2  0
 21 22  1  0
 22 23  2  0
 23 24  1  0
 24 25  2  0
 25 20  1  0
M  END
$$$$
