No_3159-complexes_sdf/6BKW-FPZ/2024-09-17-14-21-01/
     RDKit          3D

 32 35  0  0  0  0  0  0  0  0999 V2000
   -7.9040    3.9820   27.1177 C   0  0  0  0  0  0  0  0  0  0  0  0
   -8.2057    2.8231   26.8733 C   0  0  0  0  0  0  0  0  0  0  0  0
   -8.7695    5.0740   26.7916 C   0  0  0  0  0  0  0  0  0  0  0  0
   -8.4337    6.4678   27.0913 C   0  0  0  0  0  0  0  0  0  0  0  0
   -9.3742    2.4311   26.2346 C   0  0  0  0  0  0  0  0  0  0  0  0
  -10.2395    3.4267   25.8887 C   0  0  0  0  0  0  0  0  0  0  0  0
   -9.9567    4.7548   26.1374 C   0  0  0  0  0  0  0  0  0  0  0  0
   -7.9449    7.5014   26.9590 N   0  0  0  0  0  0  0  0  0  0  0  0
   -7.1388    1.9171   27.3733 N   0  0  0  0  0  0  0  0  0  0  0  0
   -7.2631    0.5727   27.4814 C   0  0  0  0  0  0  0  0  0  0  0  0
   -8.3496   -0.1678   27.2709 C   0  0  0  0  0  0  0  0  0  0  0  0
   -8.3620   -1.5214   27.5802 C   0  0  0  0  0  0  0  0  0  0  0  0
   -6.0771   -0.0255   28.0148 C   0  0  0  0  0  0  0  0  0  0  0  0
   -6.0752   -1.3795   28.3482 C   0  0  0  0  0  0  0  0  0  0  0  0
   -7.2329   -2.0902   28.1510 C   0  0  0  0  0  0  0  0  0  0  0  0
   -4.9955    0.9636   28.1134 C   0  0  0  0  0  0  0  0  0  0  0  0
   -5.7915    2.2867   27.7058 C   0  0  0  0  0  0  0  0  0  0  0  0
   -3.7302    0.9296   28.5686 C   0  0  0  0  0  0  0  0  0  0  0  0
   -3.4026    0.0403   29.6570 C   0  0  0  0  0  0  0  0  0  0  0  0
   -3.6657    0.3533   30.9769 C   0  0  0  0  0  0  0  0  0  0  0  0
   -3.2763   -0.5515   32.0303 C   0  0  0  0  0  0  0  0  0  0  0  0
   -2.7276   -1.2143   29.4012 C   0  0  0  0  0  0  0  0  0  0  0  0
   -2.2948   -2.0438   30.4083 C   0  0  0  0  0  0  0  0  0  0  0  0
   -2.5776   -1.7009   31.7593 C   0  0  0  0  0  0  0  0  0  0  0  0
   -2.3334   -1.5364   28.0324 C   0  0  0  0  0  0  0  0  0  0  0  0
   -2.6725   -2.5062   27.4573 N   0  0  0  0  0  0  0  0  0  0  0  0
   -2.8717   -2.6821   26.1848 C   0  0  0  0  0  0  0  0  0  0  0  0
   -4.1090   -2.5863   25.6237 C   0  0  0  0  0  0  0  0  0  0  0  0
   -4.6513   -1.3026   25.2908 C   0  0  0  0  0  0  0  0  0  0  0  0
   -5.9167   -1.1672   24.6261 C   0  0  0  0  0  0  0  0  0  0  0  0
   -6.6155   -2.3371   24.3120 C   0  0  0  0  0  0  0  0  0  0  0  0
   -6.0965   -3.6097   24.6059 C   0  0  0  0  0  0  0  0  0  0  0  0
  3  4  1  0
  4  8  3  0
  2  9  1  0
  9 10  1  0
 13 16  1  0
  9 17  1  0
 16 17  2  0
 16 18  1  0
 18 19  1  0
 22 25  1  0
 25 26  1  0
 26 27  1  0
 27 28  2  3
 28 29  1  0
 29 30  2  3
 30 31  1  0
 31 32  2  0
 19 20  2  0
 20 21  1  0
 21 24  2  0
 24 23  1  0
 23 22  2  0
 22 19  1  0
  1  2  2  0
  2  5  1  0
  5  6  2  0
  6  7  1  0
  7  3  2  0
  3  1  1  0
 10 11  2  0
 11 12  1  0
 12 15  2  0
 15 14  1  0
 14 13  2  0
 13 10  1  0
M  END
$$$$
