No_3659-complexes_sdf/6BKW-FPZ/2024-09-17-14-21-01/
     RDKit          3D

 34 38  0  0  0  0  0  0  0  0999 V2000
   -7.2496    3.8871   27.4508 C   0  0  0  0  0  0  0  0  0  0  0  0
   -7.9379    4.9063   27.8518 C   0  0  0  0  0  0  0  0  0  0  0  0
   -7.5112    6.1898   27.6280 C   0  0  0  0  0  0  0  0  0  0  0  0
   -7.8078    2.6331   27.2522 C   0  0  0  0  0  0  0  0  0  0  0  0
   -7.1538    1.5087   26.7509 C   0  0  0  0  0  0  0  0  0  0  0  0
   -9.2627    2.5305   27.2363 C   0  0  0  0  0  0  0  0  0  0  0  0
   -9.8316    1.3863   26.9098 C   0  0  0  0  0  0  0  0  0  0  0  0
   -7.7292    0.3404   26.4662 C   0  0  0  0  0  0  0  0  0  0  0  0
   -9.1383    0.2547   26.6233 C   0  0  0  0  0  0  0  0  0  0  0  0
   -9.3489    4.7609   28.2435 C   0  0  0  0  0  0  0  0  0  0  0  0
  -10.0132    3.5969   27.8466 C   0  0  2  0  0  0  0  0  0  0  0  0
  -11.4180    3.4514   28.1835 C   0  0  0  0  0  0  0  0  0  0  0  0
  -12.3433    4.2535   27.6599 C   0  0  0  0  0  0  0  0  0  0  0  0
  -13.5193    4.1668   27.7217 C   0  0  0  0  0  0  0  0  0  0  0  0
  -14.1502    3.2475   28.5717 C   0  0  0  0  0  0  0  0  0  0  0  0
  -13.2708    2.3351   29.1985 C   0  0  0  0  0  0  0  0  0  0  0  0
  -11.9040    2.3921   28.9935 C   0  0  0  0  0  0  0  0  0  0  0  0
   -6.9513   -0.8136   26.1154 C   0  0  2  0  0  0  0  0  0  0  0  0
   -5.9643   -1.2848   26.9222 C   0  0  0  0  0  0  0  0  0  0  0  0
   -5.7061   -0.8512   28.0419 C   0  0  0  0  0  0  0  0  0  0  0  0
   -4.5607   -1.2764   28.9397 C   0  0  0  0  0  0  0  0  0  0  0  0
   -4.3357   -0.6594   30.2292 C   0  0  0  0  0  0  0  0  0  0  0  0
   -3.7770   -0.1207   30.8939 C   0  0  0  0  0  0  0  0  0  0  0  0
   -4.1233    0.4906   32.1621 C   0  0  0  0  0  0  0  0  0  0  0  0
   -5.1512   -0.1814   32.7972 C   0  0  0  0  0  0  0  0  0  0  0  0
   -5.7155   -1.1215   31.0628 C   0  0  0  0  0  0  0  0  0  0  0  0
   -5.9622   -0.9329   32.1655 C   0  0  0  0  0  0  0  0  0  0  0  0
   -7.2550   -1.3164   24.7899 C   0  0  0  0  0  0  0  0  0  0  0  0
   -7.1493   -0.4707   23.7623 C   0  0  0  0  0  0  0  0  0  0  0  0
   -7.5216   -0.7242   22.4871 C   0  0  0  0  0  0  0  0  0  0  0  0
   -7.8032   -2.0458   22.0745 C   0  0  0  0  0  0  0  0  0  0  0  0
   -7.8642   -2.9731   23.1527 C   0  0  0  0  0  0  0  0  0  0  0  0
   -7.5772   -2.6345   24.4502 C   0  0  0  0  0  0  0  0  0  0  0  0
   -5.0752   -2.3818   26.4590 C   0  0  0  0  0  0  0  0  0  0  0  0
  1  2  1  0
  2  3  2  0
  1  4  1  0
  2 10  1  0
  6 11  1  0
 10 11  1  0
 11 12  1  1
 18  8  1  6
 18 19  1  0
 19 20  2  3
 20 21  1  0
 18 28  1  0
 19 34  1  0
 21 22  1  0
 12 13  2  0
 13 14  1  0
 14 15  2  0
 15 16  1  0
 16 17  2  0
 17 12  1  0
  4  5  2  0
  5  8  1  0
  8  9  2  0
  9  7  1  0
  7  6  2  0
  6  4  1  0
 22 23  2  0
 23 24  1  0
 24 25  2  0
 25 27  1  0
 27 26  2  0
 26 22  1  0
 28 29  2  0
 29 30  1  0
 30 31  2  0
 31 32  1  0
 32 33  2  0
 33 28  1  0
M  END
$$$$
