No_3132-complexes_sdf/6BKW-FPZ/2024-09-17-14-21-01/
     RDKit          3D

 12 12  0  0  0  0  0  0  0  0999 V2000
   -7.7129    4.2099   27.0854 C   0  0  1  0  0  0  0  0  0  0  0  0
   -8.9133    4.4736   27.0998 C   0  0  0  0  0  0  0  0  0  0  0  0
   -9.7135    3.9633   26.0300 C   0  0  0  0  0  0  0  0  0  0  0  0
   -6.8420    4.9760   28.0851 C   0  0  0  0  0  0  0  0  0  0  0  0
  -10.9164    3.4776   26.1172 C   0  0  0  0  0  0  0  0  0  0  0  0
  -11.5453    3.0000   24.9938 C   0  0  0  0  0  0  0  0  0  0  0  0
  -10.9421    3.1118   23.9466 C   0  0  0  0  0  0  0  0  0  0  0  0
   -9.7602    3.7336   23.6297 C   0  0  0  0  0  0  0  0  0  0  0  0
   -9.0894    4.1945   24.7282 C   0  0  0  0  0  0  0  0  0  0  0  0
   -9.5599    5.2442   28.1236 C   0  0  0  0  0  0  0  0  0  0  0  0
   -8.2548    3.8029   27.5611 C   0  0  0  0  0  0  0  0  0  0  0  0
   -8.3442    2.5079   28.1321 C   0  0  0  0  0  0  0  0  0  0  0  0
  1  2  1  0
  2  3  1  0
  1  4  1  1
  2 10  1  0
  1 11  1  0
 11 12  2  0
  3  5  2  0
  5  6  1  0
  6  7  2  0
  7  8  1  0
  8  9  2  0
  9  3  1  0
M  END
$$$$
