No_361-complexes_sdf/6BKW-FPZ/2024-09-17-14-21-01/
     RDKit          3D

 29 32  0  0  0  0  0  0  0  0999 V2000
   -7.9040    3.9820   27.1177 C   0  0  0  0  0  0  0  0  0  0  0  0
   -8.2057    2.8231   26.8733 C   0  0  0  0  0  0  0  0  0  0  0  0
   -7.0130    4.3706   28.1140 C   0  0  0  0  0  0  0  0  0  0  0  0
   -9.3829    2.4374   26.1668 C   0  0  0  0  0  0  0  0  0  0  0  0
  -10.0975    3.4171   25.5988 C   0  0  0  0  0  0  0  0  0  0  0  0
   -9.7085    4.7741   25.7618 C   0  0  0  0  0  0  0  0  0  0  0  0
   -8.7070    5.1118   26.5885 C   0  0  0  0  0  0  0  0  0  0  0  0
   -8.3796    6.4505   26.8989 C   0  0  0  0  0  0  0  0  0  0  0  0
   -6.7947    5.6977   28.5155 C   0  0  0  0  0  0  0  0  0  0  0  0
   -7.4385    6.7105   27.8679 C   0  0  0  0  0  0  0  0  0  0  0  0
   -7.3218    1.4509   27.5821 Cl  0  0  0  0  0  0  0  0  0  0  0  0
  -11.1991    3.1261   24.6546 C   0  0  1  0  0  0  0  0  0  0  0  0
  -11.0432    2.1590   23.8469 C   0  0  0  0  0  0  0  0  0  0  0  0
  -10.5960    2.3024   22.7552 C   0  0  0  0  0  0  0  0  0  0  0  0
  -10.2297    1.1864   21.7587 C   0  0  0  0  0  0  0  0  0  0  0  0
  -10.1383    0.2429   22.1369 C   0  0  0  0  0  0  0  0  0  0  0  0
  -10.5243   -0.2260   23.4195 C   0  0  0  0  0  0  0  0  0  0  0  0
  -10.8638    0.7483   24.2940 C   0  0  0  0  0  0  0  0  0  0  0  0
  -12.4808    3.0114   25.4693 C   0  0  0  0  0  0  0  0  0  0  0  0
  -11.4504    4.4688   23.7703 C   0  0  0  0  0  0  0  0  0  0  0  0
  -13.6731    3.3816   25.0392 C   0  0  0  0  0  0  0  0  0  0  0  0
  -12.4380    2.3477   26.7568 C   0  0  0  0  0  0  0  0  0  0  0  0
  -13.5289    2.1169   27.5511 C   0  0  0  0  0  0  0  0  0  0  0  0
  -14.8545    3.1836   25.8379 C   0  0  0  0  0  0  0  0  0  0  0  0
  -14.7508    2.5902   27.0778 C   0  0  0  0  0  0  0  0  0  0  0  0
  -16.1003    3.7982   25.5828 C   0  0  0  0  0  0  0  0  0  0  0  0
  -16.2999    4.4691   24.6033 F   0  0  0  0  0  0  0  0  0  0  0  0
  -16.5343    4.5454   26.6610 F   0  0  0  0  0  0  0  0  0  0  0  0
  -17.0481    2.7550   25.4661 F   0  0  0  0  0  0  0  0  0  0  0  0
  2 11  1  0
  5 12  1  0
 12 13  1  0
 12 19  1  0
 12 20  1  6
 24 26  1  0
 26 27  1  0
 26 28  1  0
 26 29  1  0
 13 14  2  0
 14 15  1  0
 15 16  2  0
 16 17  1  0
 17 18  2  0
 18 13  1  0
  1  3  1  0
  3  9  2  0
  9 10  1  0
 10  8  2  0
  8  7  1  0
  1  2  2  0
  2  4  1  0
  4  5  2  0
  5  6  1  0
  6  7  2  0
  7  1  1  0
 19 21  2  0
 21 24  1  0
 24 25  2  0
 25 23  1  0
 23 22  2  0
 22 19  1  0
M  END
$$$$
