No_3341-complexes_sdf/6BKW-FPZ/2024-09-17-14-21-01/
     RDKit          3D

 27 29  0  0  0  0  0  0  0  0999 V2000
   -7.2496    3.8871   27.4508 C   0  0  0  0  0  0  0  0  0  0  0  0
   -7.9379    4.9063   27.8518 C   0  0  0  0  0  0  0  0  0  0  0  0
   -8.9501    5.3664   27.1340 C   0  0  0  0  0  0  0  0  0  0  0  0
   -7.8297    2.9727   26.4637 C   0  0  0  0  0  0  0  0  0  0  0  0
   -9.6373    4.6098   26.1956 C   0  0  0  0  0  0  0  0  0  0  0  0
   -9.0235    3.4546   25.8531 C   0  0  0  0  0  0  0  0  0  0  0  0
   -9.6254    2.5622   24.8676 C   0  0  0  0  0  0  0  0  0  0  0  0
   -9.3717    1.2861   24.7325 C   0  0  0  0  0  0  0  0  0  0  0  0
   -9.9589    0.5514   23.7503 C   0  0  0  0  0  0  0  0  0  0  0  0
  -10.5491    1.1197   22.8979 C   0  0  0  0  0  0  0  0  0  0  0  0
  -10.4202    2.9823   23.7058 C   0  0  0  0  0  0  0  0  0  0  0  0
  -10.8729    2.3963   22.7795 C   0  0  0  0  0  0  0  0  0  0  0  0
   -7.3284    5.7425   28.7895 O   0  0  0  0  0  0  0  0  0  0  0  0
  -11.2149    0.2087   21.6483 C   0  0  1  0  0  0  0  0  0  0  0  0
  -12.4853   -0.2496   21.9627 C   0  0  2  0  0  0  0  0  0  0  0  0
  -13.1248   -0.3464   22.7327 C   0  0  0  0  0  0  0  0  0  0  0  0
  -14.1981   -0.6611   23.2109 C   0  0  0  0  0  0  0  0  0  0  0  0
  -15.1387   -0.8272   23.7838 C   0  0  0  0  0  0  0  0  0  0  0  0
  -12.8533   -0.9150   20.5070 C   0  0  0  0  0  0  0  0  0  0  0  0
  -12.2200   -1.0417   19.5943 N   0  0  0  0  0  0  0  0  0  0  0  0
  -10.9059   -0.4761   19.4243 C   0  0  0  0  0  0  0  0  0  0  0  0
  -10.3866    0.1563   20.5392 N   0  0  0  0  0  0  0  0  0  0  0  0
  -16.3063   -1.1199   24.2043 C   0  0  0  0  0  0  0  0  0  0  0  0
  -17.0093   -2.0084   23.9187 O   0  0  0  0  0  0  0  0  0  0  0  0
  -16.8107   -0.2889   25.2622 O   0  0  0  0  0  0  0  0  0  0  0  0
  -14.0206   -1.4477   20.6912 O   0  0  0  0  0  0  0  0  0  0  0  0
   -9.5453   -1.2208   23.8711 Cl  0  0  0  0  0  0  0  0  0  0  0  0
  6  7  1  0
  2 13  1  0
 14 10  1  6
 14 15  1  0
 16 17  1  0
 17 18  3  0
 15 19  1  0
 19 20  1  0
 14 22  1  0
 21 22  1  0
 18 23  1  0
 23 24  1  0
 23 25  2  0
 19 26  2  0
  9 27  1  0
 15 16  1  1
 21 20  1  0
  7  8  2  0
  8  9  1  0
  9 10  2  0
 10 12  1  0
 12 11  2  0
 11  7  1  0
  1  2  2  0
  2  3  1  0
  3  5  2  0
  5  6  1  0
  6  4  2  0
  4  1  1  0
M  END
$$$$
