No_397-complexes_sdf/6BKW-FPZ/2024-09-17-14-21-01/
     RDKit          3D

 25 27  0  0  0  0  0  0  0  0999 V2000
   -7.9040    3.9820   27.1177 C   0  0  0  0  0  0  0  0  0  0  0  0
   -7.8663    4.8694   27.9238 C   0  0  0  0  0  0  0  0  0  0  0  0
   -9.0501    3.8017   26.2617 C   0  0  0  0  0  0  0  0  0  0  0  0
  -10.0189    4.7608   26.3707 C   0  0  0  0  0  0  0  0  0  0  0  0
   -8.6770    5.9780   27.9222 C   0  0  0  0  0  0  0  0  0  0  0  0
   -9.8040    5.8752   27.0958 C   0  0  0  0  0  0  0  0  0  0  0  0
   -9.3560    2.6988   25.4290 C   0  0  0  0  0  0  0  0  0  0  0  0
   -8.8164    1.4773   25.7575 C   0  0  0  0  0  0  0  0  0  0  0  0
   -9.9948    2.8853   24.1973 C   0  0  0  0  0  0  0  0  0  0  0  0
   -8.9719    0.4175   24.8847 C   0  0  0  0  0  0  0  0  0  0  0  0
  -10.1083    1.8131   23.3362 C   0  0  0  0  0  0  0  0  0  0  0  0
   -9.5775    0.5844   23.6778 C   0  0  0  0  0  0  0  0  0  0  0  0
   -9.7639   -0.5401   22.7114 C   0  0  0  0  0  0  0  0  0  0  0  0
  -10.6542   -1.3855   23.0221 N   0  0  0  0  0  0  0  0  0  0  0  0
  -11.0765   -2.3382   22.4552 C   0  0  0  0  0  0  0  0  0  0  0  0
  -12.0756   -3.1965   22.8713 C   0  0  0  0  0  0  0  0  0  0  0  0
  -10.6365   -2.7057   21.1793 F   0  0  0  0  0  0  0  0  0  0  0  0
  -12.2987   -4.3632   22.5721 C   0  0  0  0  0  0  0  0  0  0  0  0
  -11.4545   -5.0888   21.7415 C   0  0  0  0  0  0  0  0  0  0  0  0
  -11.1637   -6.1015   21.6158 C   0  0  0  0  0  0  0  0  0  0  0  0
  -11.6187   -7.0715   22.6475 C   0  0  0  0  0  0  0  0  0  0  0  0
  -12.6561   -6.5944   23.4756 C   0  0  0  0  0  0  0  0  0  0  0  0
  -12.8567   -5.2370   23.5663 C   0  0  0  0  0  0  0  0  0  0  0  0
  -13.6772   -4.6790   24.6206 C   0  0  0  0  0  0  0  0  0  0  0  0
  -13.7772   -3.2710   24.6975 C   0  0  0  0  0  0  0  0  0  0  0  0
  3  7  1  0
 12 13  1  0
 13 14  1  0
 14 15  1  0
 15 16  2  3
 15 17  1  0
 16 18  1  0
 23 24  1  0
 24 25  2  0
 18 19  2  0
 19 20  1  0
 20 21  2  0
 21 22  1  0
 22 23  2  0
 23 18  1  0
  1  2  2  0
  2  5  1  0
  5  6  2  0
  6  4  1  0
  4  3  2  0
  3  1  1  0
  7  8  2  0
  8 10  1  0
 10 12  2  0
 12 11  1  0
 11  9  2  0
  9  7  1  0
M  END
$$$$
