No_3676-complexes_sdf/6BKW-FPZ/2024-09-17-14-21-01/
     RDKit          3D

  9  9  0  0  0  0  0  0  0  0999 V2000
   -7.7129    4.2099   27.0854 C   0  0  0  0  0  0  0  0  0  0  0  0
   -7.7814    5.1722   27.8972 C   0  0  0  0  0  0  0  0  0  0  0  0
   -8.8998    3.8713   26.3707 C   0  0  0  0  0  0  0  0  0  0  0  0
   -9.7416    3.2213   26.9591 C   0  0  0  0  0  0  0  0  0  0  0  0
  -10.4037    4.0341   28.0402 C   0  0  0  0  0  0  0  0  0  0  0  0
  -11.6019    3.3299   28.6669 C   0  0  0  0  0  0  0  0  0  0  0  0
   -8.7992    5.5416   28.9214 C   0  0  0  0  0  0  0  0  0  0  0  0
  -10.0002    4.8549   28.8409 C   0  0  0  0  0  0  0  0  0  0  0  0
  -12.7026    4.0569   29.0602 C   0  0  0  0  0  0  0  0  0  0  0  0
  1  2  1  0
  1  3  1  0
  3  4  1  0
  4  5  1  0
  5  6  2  3
  2  7  1  0
  5  8  1  0
  7  8  1  0
  6  9  1  0
M  END
$$$$
