No_3926-complexes_sdf/6BKW-FPZ/2024-09-17-14-21-01/
     RDKit          3D

 30 34  0  0  0  0  0  0  0  0999 V2000
   -7.9040    3.9820   27.1177 C   0  0  0  0  0  0  0  0  0  0  0  0
   -7.8663    4.8694   27.9238 C   0  0  0  0  0  0  0  0  0  0  0  0
   -7.4698    2.6989   27.4277 C   0  0  0  0  0  0  0  0  0  0  0  0
   -7.9683    1.5964   26.8266 C   0  0  1  0  0  0  0  0  0  0  0  0
   -8.9446    1.7923   25.8533 C   0  0  0  0  0  0  0  0  0  0  0  0
   -9.4405    2.9988   25.5757 C   0  0  1  0  0  0  0  0  0  0  0  0
   -8.9424    4.1117   26.2388 C   0  0  0  0  0  0  0  0  0  0  0  0
   -8.2732    6.2141   27.6484 N   0  0  0  0  0  0  0  0  0  0  0  0
   -9.1540    6.5068   26.6734 C   0  0  0  0  0  0  0  0  0  0  0  0
   -9.5312    5.3927   25.9147 C   0  0  0  0  0  0  0  0  0  0  0  0
   -7.3887    0.2740   27.0971 C   0  0  0  0  0  0  0  0  0  0  0  0
   -6.0711    0.1202   27.4872 C   0  0  0  0  0  0  0  0  0  0  0  0
   -5.5432   -1.1090   27.8369 C   0  0  0  0  0  0  0  0  0  0  0  0
   -6.3820   -2.1976   27.7621 C   0  0  0  0  0  0  0  0  0  0  0  0
   -7.9843   -0.9964   27.1431 C   0  0  0  0  0  0  0  0  0  0  0  0
   -7.6024   -2.1179   27.4498 C   0  0  0  0  0  0  0  0  0  0  0  0
   -4.0895   -1.1330   28.2751 C   0  0  0  0  0  0  0  0  0  0  0  0
   -3.2050   -1.5499   27.4234 C   0  0  0  0  0  0  0  0  0  0  0  0
   -1.8749   -1.2144   27.6159 C   0  0  0  0  0  0  0  0  0  0  0  0
   -1.4222   -0.5512   28.7400 C   0  0  0  0  0  0  0  0  0  0  0  0
   -3.7359   -0.2964   29.4450 C   0  0  0  0  0  0  0  0  0  0  0  0
   -4.6617    0.1165   30.2947 F   0  0  0  0  0  0  0  0  0  0  0  0
   -2.3956   -0.1373   29.7185 C   0  0  0  0  0  0  0  0  0  0  0  0
  -10.3894    3.0981   24.4567 C   0  0  0  0  0  0  0  0  0  0  0  0
  -10.3945    2.3892   23.4413 C   0  0  0  0  0  0  0  0  0  0  0  0
  -11.2680    2.4974   22.3503 C   0  0  0  0  0  0  0  0  0  0  0  0
  -12.1066    3.6109   22.3095 C   0  0  0  0  0  0  0  0  0  0  0  0
  -12.0774    4.4992   23.3541 C   0  0  0  0  0  0  0  0  0  0  0  0
  -11.2537    4.3579   24.4177 C   0  0  0  0  0  0  0  0  0  0  0  0
  -10.5325    5.3990   25.0101 N   0  0  0  0  0  0  0  0  0  0  0  0
  1  3  1  0
  3  4  1  0
  4  5  1  0
  5  6  1  0
  6  7  1  0
  4 11  1  6
 13 17  1  0
 21 22  1  0
  6 24  1  6
 29 30  1  0
  1  2  2  0
  2  8  1  0
  8  9  2  0
  9 10  1  0
 10  7  2  0
  7  1  1  0
 24 25  2  0
 25 26  1  0
 26 27  2  0
 27 28  1  0
 28 29  2  0
 29 24  1  0
 11 12  2  0
 12 13  1  0
 13 14  2  0
 14 16  1  0
 16 15  2  0
 15 11  1  0
 17 18  2  0
 18 19  1  0
 19 20  2  0
 20 23  1  0
 23 21  2  0
 21 17  1  0
M  END
$$$$
