No_3394-complexes_sdf/6BKW-FPZ/2024-09-17-14-21-01/
     RDKit          3D

 24 27  0  0  0  0  0  0  0  0999 V2000
   -7.2496    3.8871   27.4508 C   0  0  0  0  0  0  0  0  0  0  0  0
   -8.5096    4.0291   27.2770 C   0  0  0  0  0  0  0  0  0  0  0  0
   -9.3451    2.8786   26.9046 C   0  0  0  0  0  0  0  0  0  0  0  0
  -10.6709    3.0505   26.6789 C   0  0  0  0  0  0  0  0  0  0  0  0
   -6.5391    4.9920   28.0504 C   0  0  0  0  0  0  0  0  0  0  0  0
  -11.2332    4.2630   26.9705 C   0  0  0  0  0  0  0  0  0  0  0  0
   -9.2958    5.2009   27.5590 C   0  0  0  0  0  0  0  0  0  0  0  0
  -10.5857    5.3502   27.4352 C   0  0  0  0  0  0  0  0  0  0  0  0
   -7.2565    6.1951   28.2490 C   0  0  0  0  0  0  0  0  0  0  0  0
   -8.5129    6.3240   28.0228 C   0  0  0  0  0  0  0  0  0  0  0  0
   -8.6973    1.6098   26.5962 C   0  0  0  0  0  0  0  0  0  0  0  0
   -7.7866    1.0251   27.4119 C   0  0  0  0  0  0  0  0  0  0  0  0
   -8.9930    1.0242   25.3752 C   0  0  0  0  0  0  0  0  0  0  0  0
   -7.2376   -0.2364   27.1711 C   0  0  0  0  0  0  0  0  0  0  0  0
   -8.4108   -0.2211   25.0312 C   0  0  0  0  0  0  0  0  0  0  0  0
   -7.5281   -0.8044   25.9237 C   0  0  0  0  0  0  0  0  0  0  0  0
   -6.2595   -0.8365   28.0962 C   0  0  1  0  0  0  0  0  0  0  0  0
   -5.1378   -1.0076   27.8392 C   0  0  0  0  0  0  0  0  0  0  0  0
   -4.3835   -0.5822   26.9854 C   0  0  0  0  0  0  0  0  0  0  0  0
   -2.9251   -0.7263   26.8267 C   0  0  0  0  0  0  0  0  0  0  0  0
   -2.2707   -1.3540   27.8362 C   0  0  0  0  0  0  0  0  0  0  0  0
   -3.0235   -1.7796   28.9408 C   0  0  0  0  0  0  0  0  0  0  0  0
   -4.3801   -1.5760   29.0461 C   0  0  0  0  0  0  0  0  0  0  0  0
   -6.9687   -0.7190   29.2152 F   0  0  0  0  0  0  0  0  0  0  0  0
  3 11  1  0
 14 17  1  0
 17 18  1  0
 17 24  1  1
  1  2  2  0
  7 10  2  0
 10  9  1  0
  9  5  2  0
  5  1  1  0
  2  3  1  0
  3  4  2  0
  4  6  1  0
  6  8  2  0
  8  7  1  0
  7  2  1  0
 11 12  2  0
 12 14  1  0
 14 16  2  0
 16 15  1  0
 15 13  2  0
 13 11  1  0
 18 19  2  0
 19 20  1  0
 20 21  2  0
 21 22  1  0
 22 23  2  0
 23 18  1  0
M  END
$$$$
