No_3768-complexes_sdf/6BKW-FPZ/2024-09-17-14-21-01/
     RDKit          3D

 30 35  0  0  0  0  0  0  0  0999 V2000
   -7.2496    3.8871   27.4508 C   0  0  0  0  0  0  0  0  0  0  0  0
   -7.9379    4.9063   27.8518 C   0  0  0  0  0  0  0  0  0  0  0  0
   -8.7729    5.5444   27.0168 C   0  0  0  0  0  0  0  0  0  0  0  0
   -6.2858    3.2138   28.3467 C   0  0  0  0  0  0  0  0  0  0  0  0
   -9.3574    5.0270   26.0810 C   0  0  0  0  0  0  0  0  0  0  0  0
   -8.8967    3.6932   25.6410 C   0  0  0  0  0  0  0  0  0  0  0  0
   -7.9727    3.1538   26.4296 C   0  0  0  0  0  0  0  0  0  0  0  0
   -5.7069    1.9601   27.9235 C   0  0  0  0  0  0  0  0  0  0  0  0
   -6.4329    1.0629   27.2085 C   0  0  0  0  0  0  0  0  0  0  0  0
   -7.5084    1.7056   26.2295 C   0  0  0  0  0  0  0  0  0  0  0  0
   -4.5980    1.4317   28.7278 C   0  0  0  0  0  0  0  0  0  0  0  0
   -4.0175    0.4394   28.6119 C   0  0  0  0  0  0  0  0  0  0  0  0
   -4.6567   -0.6633   27.9585 C   0  0  0  0  0  0  0  0  0  0  0  0
   -5.9323   -0.2408   27.0385 C   0  0  0  0  0  0  0  0  0  0  0  0
   -8.1519    0.7957   25.3552 C   0  0  0  0  0  0  0  0  0  0  0  0
   -8.0752    1.0146   24.1411 C   0  0  0  0  0  0  0  0  0  0  0  0
   -8.7540    0.2217   23.1125 C   0  0  0  0  0  0  0  0  0  0  0  0
   -8.8748    0.6293   21.8136 C   0  0  0  0  0  0  0  0  0  0  0  0
   -9.5058   -0.1323   20.8642 C   0  0  0  0  0  0  0  0  0  0  0  0
   -9.9217   -1.4440   21.1892 C   0  0  0  0  0  0  0  0  0  0  0  0
   -9.7616   -1.9022   22.4553 C   0  0  0  0  0  0  0  0  0  0  0  0
   -9.1680   -1.1198   23.4521 C   0  0  0  0  0  0  0  0  0  0  0  0
   -9.4656    0.3010   25.9865 C   0  0  0  0  0  0  0  0  0  0  0  0
   -9.8556    0.5014   27.1848 C   0  0  0  0  0  0  0  0  0  0  0  0
  -10.9658   -0.1750   27.8101 C   0  0  0  0  0  0  0  0  0  0  0  0
  -11.3890    0.1112   29.1152 C   0  0  0  0  0  0  0  0  0  0  0  0
  -11.6146   -1.2178   27.0891 C   0  0  0  0  0  0  0  0  0  0  0  0
  -11.7368   -1.1601   25.9139 C   0  0  0  0  0  0  0  0  0  0  0  0
  -10.4203   -0.5605   25.1892 C   0  0  0  0  0  0  0  0  0  0  0  0
  -10.0490   -1.0165   24.0308 N   0  0  0  0  0  0  0  0  0  0  0  0
 10 15  1  0
 15 16  2  0
 16 17  1  0
 15 23  1  0
 25 26  1  0
 22 30  1  0
 30 29  1  0
  9 14  1  0
 14 13  2  0
 13 12  1  0
 12 11  2  0
 11  8  1  0
  1  4  1  0
  4  8  2  0
  8  9  1  0
  9 10  2  0
 10  7  1  0
 23 24  2  0
 24 25  1  0
 25 27  2  0
 27 28  1  0
 28 29  2  0
 29 23  1  0
  1  2  2  0
  2  3  1  0
  3  5  2  0
  5  6  1  0
  6  7  2  0
  7  1  1  0
 17 18  2  0
 18 19  1  0
 19 20  2  0
 20 21  1  0
 21 22  2  0
 22 17  1  0
M  END
$$$$
