No_3952-complexes_sdf/6BKW-FPZ/2024-09-17-14-21-01/
     RDKit          3D

 16 17  0  0  0  0  0  0  0  0999 V2000
   -7.9040    3.9820   27.1177 C   0  0  0  0  0  0  0  0  0  0  0  0
   -8.2057    2.8231   26.8733 C   0  0  0  0  0  0  0  0  0  0  0  0
   -9.3234    2.2125   27.0599 C   0  0  0  0  0  0  0  0  0  0  0  0
   -9.0146    4.9428   27.2420 C   0  0  0  0  0  0  0  0  0  0  0  0
   -8.7904    6.3552   27.4306 C   0  0  0  0  0  0  0  0  0  0  0  0
  -10.4674    3.0192   27.2879 C   0  0  0  0  0  0  0  0  0  0  0  0
  -10.3212    4.3963   27.4586 C   0  0  0  0  0  0  0  0  0  0  0  0
   -7.9157    6.9979   26.4173 C   0  0  0  0  0  0  0  0  0  0  0  0
   -9.5341    0.7277   26.9218 C   0  0  0  0  0  0  0  0  0  0  0  0
  -10.4657    0.1423   27.5956 C   0  0  0  0  0  0  0  0  0  0  0  0
  -10.5854   -1.2248   27.5509 C   0  0  0  0  0  0  0  0  0  0  0  0
   -9.6448   -1.9661   26.8917 C   0  0  0  0  0  0  0  0  0  0  0  0
   -8.5182   -0.0337   26.3358 C   0  0  0  0  0  0  0  0  0  0  0  0
   -8.6065   -1.3657   26.2863 C   0  0  0  0  0  0  0  0  0  0  0  0
   -7.7573    8.4064   26.9662 C   0  0  0  0  0  0  0  0  0  0  0  0
  -11.6154   -1.8682   28.2064 F   0  0  0  0  0  0  0  0  0  0  0  0
  4  5  1  0
  5  8  1  0
  3  9  1  0
  8 15  1  0
 11 16  1  0
  1  2  2  0
  2  3  1  0
  3  6  2  0
  6  7  1  0
  7  4  2  0
  4  1  1  0
  9 10  2  0
 10 11  1  0
 11 12  2  0
 12 14  1  0
 14 13  2  0
 13  9  1  0
M  END
$$$$
