No_3368-complexes_sdf/6BKW-FPZ/2024-09-17-14-21-01/
     RDKit          3D

 27 32  0  0  0  0  0  0  0  0999 V2000
   -7.7129    4.2099   27.0854 C   0  0  2  0  0  0  0  0  0  0  0  0
   -7.7814    5.1722   27.8972 C   0  0  0  0  0  0  0  0  0  0  0  0
   -8.8998    3.8713   26.3707 C   0  0  2  0  0  0  0  0  0  0  0  0
   -9.7507    4.7502   26.0937 C   0  0  0  0  0  0  0  0  0  0  0  0
   -8.5557    6.3760   27.5754 C   0  0  0  0  0  0  0  0  0  0  0  0
   -9.7727    6.0382   26.9056 C   0  0  0  0  0  0  0  0  0  0  0  0
   -9.2925    2.4990   26.2317 C   0  0  1  0  0  0  0  0  0  0  0  0
   -9.3601    1.9592   24.9594 C   0  0  0  0  0  0  0  0  0  0  0  0
   -8.2017    1.6165   26.9960 C   0  0  0  0  0  0  0  0  0  0  0  0
   -8.1462    0.2214   26.6689 C   0  0  0  0  0  0  0  0  0  0  0  0
   -7.3106   -0.5387   27.5263 C   0  0  0  0  0  0  0  0  0  0  0  0
  -10.5731    2.1489   26.9834 C   0  0  0  0  0  0  0  0  0  0  0  0
  -11.6262    2.1915   26.8128 C   0  0  0  0  0  0  0  0  0  0  0  0
  -12.7220    1.9144   27.7281 C   0  0  0  0  0  0  0  0  0  0  0  0
  -12.3165    1.7218   29.0722 C   0  0  0  0  0  0  0  0  0  0  0  0
  -11.0051    1.8450   29.4110 C   0  0  0  0  0  0  0  0  0  0  0  0
  -10.0727    2.0561   28.4993 C   0  0  0  0  0  0  0  0  0  0  0  0
   -6.0996   -0.0161   28.0222 C   0  0  0  0  0  0  0  0  0  0  0  0
   -5.8641    1.4204   27.8639 C   0  0  0  0  0  0  0  0  0  0  0  0
   -6.9275    2.1736   27.4263 C   0  0  0  0  0  0  0  0  0  0  0  0
   -7.0583    3.2148   27.8720 N   0  0  0  0  0  0  0  0  0  0  0  0
   -9.9319    2.7420   23.9469 C   0  0  0  0  0  0  0  0  0  0  0  0
  -10.0836    2.3657   22.6274 C   0  0  0  0  0  0  0  0  0  0  0  0
   -9.6262    1.1200   22.2959 C   0  0  0  0  0  0  0  0  0  0  0  0
   -9.0503    0.2401   23.2643 C   0  0  0  0  0  0  0  0  0  0  0  0
   -8.9201    0.7063   24.5218 C   0  0  0  0  0  0  0  0  0  0  0  0
   -8.6513   -0.2602   25.5062 C   0  0  0  0  0  0  0  0  0  0  0  0
  1  2  1  1
  1  3  1  0
  3  4  1  1
  2  5  1  0
  4  6  1  0
  5  6  1  0
  3  7  1  0
  7  8  1  0
  7  9  1  0
  7 12  1  1
  1 21  1  0
 10 27  1  0
 26 27  1  0
 21 20  1  0
 12 13  2  0
 13 14  1  0
 14 15  2  0
 15 16  1  0
 16 17  2  0
 17 12  1  0
  8 22  2  0
 22 23  1  0
 23 24  2  0
 24 25  1  0
 25 26  2  0
 26  8  1  0
  9 20  2  0
 20 19  1  0
 19 18  2  0
 18 11  1  0
 11 10  2  0
 10  9  1  0
M  END
$$$$
