No_3667-complexes_sdf/6BKW-FPZ/2024-09-17-14-21-01/
     RDKit          3D

 32 39  0  0  0  0  0  0  0  0999 V2000
   -7.2496    3.8871   27.4508 C   0  0  0  0  0  0  0  0  0  0  0  0
   -7.9379    4.9063   27.8518 C   0  0  0  0  0  0  0  0  0  0  0  0
   -9.3376    4.8647   27.7795 C   0  0  0  0  0  0  0  0  0  0  0  0
   -7.8544    2.6294   27.0414 C   0  0  1  0  0  0  0  0  0  0  0  0
   -9.2665    2.6175   27.0340 C   0  0  2  0  0  0  0  0  0  0  0  0
   -9.9111    1.3868   26.6335 C   0  0  1  0  0  0  0  0  0  0  0  0
   -9.9845    3.7153   27.4660 C   0  0  2  0  0  0  0  0  0  0  0  0
  -10.5442    0.7180   27.5742 C   0  0  0  0  0  0  0  0  0  0  0  0
  -11.2256    1.2814   28.5525 C   0  0  0  0  0  0  0  0  0  0  0  0
  -10.4102   -0.7420   27.6826 C   0  0  0  0  0  0  0  0  0  0  0  0
  -11.1610   -1.4858   28.5574 C   0  0  0  0  0  0  0  0  0  0  0  0
  -12.1712    0.5620   29.4368 C   0  0  0  0  0  0  0  0  0  0  0  0
  -12.0315   -0.7932   29.4359 C   0  0  0  0  0  0  0  0  0  0  0  0
  -10.7391    1.7822   25.4750 C   0  0  0  0  0  0  0  0  0  0  0  0
  -11.3632    2.8640   25.2585 C   0  0  0  0  0  0  0  0  0  0  0  0
  -12.0526    3.2299   24.0753 C   0  0  0  0  0  0  0  0  0  0  0  0
  -12.4988    4.5818   23.8840 C   0  0  0  0  0  0  0  0  0  0  0  0
  -10.9315    4.1067   26.1662 C   0  0  0  0  0  0  0  0  0  0  0  0
  -13.0395    2.0927   23.8154 C   0  0  0  0  0  0  0  0  0  0  0  0
   -7.1312    1.6687   26.7454 F   0  0  0  0  0  0  0  0  0  0  0  0
   -7.1199    6.3433   28.4629 Cl  0  0  0  0  0  0  0  0  0  0  0  0
  -13.6350    2.2034   22.7185 C   0  0  0  0  0  0  0  0  0  0  0  0
  -14.3055    3.4497   22.3878 C   0  0  0  0  0  0  0  0  0  0  0  0
  -13.2900    4.6473   22.4938 C   0  0  0  0  0  0  0  0  0  0  0  0
   -8.9734    0.3888   25.9650 C   0  0  0  0  0  0  0  0  0  0  0  0
   -8.5266   -0.5984   26.5678 C   0  0  0  0  0  0  0  0  0  0  0  0
   -9.2945   -1.3705   27.1756 C   0  0  0  0  0  0  0  0  0  0  0  0
   -9.1179    2.5933   28.1367 P   0  0  0  0  0  0  0  0  0  0  0  0
   -7.8254    2.0638   28.3124 O   0  0  0  0  0  0  0  0  0  0  0  0
   -9.3001    3.9260   28.9257 O   0  0  0  0  0  0  0  0  0  0  0  0
   -9.6353    1.7243   29.0978 O   0  0  0  0  0  0  0  0  0  0  0  0
  -11.5790    3.3487   28.2860 Cl  0  0  0  0  0  0  0  0  0  0  0  0
  1  2  1  0
  2  3  2  0
  1  4  1  0
  4  5  1  0
  5  6  1  0
  3  7  1  0
  5  7  1  0
  6  8  1  0
  6 14  1  6
 14 15  1  0
 15 16  2  3
 16 17  1  0
  7 18  1  0
 15 18  1  0
 16 19  1  0
  4 20  1  6
  2 21  1  0
 19 22  1  0
 22 23  1  0
 17 24  1  0
 23 24  1  0
  6 25  1  0
 10 27  1  0
 26 27  1  0
  5 28  1  6
  4 29  1  0
 28 29  1  0
  3 30  1  0
 28 30  1  0
  9 31  1  0
 28 31  1  0
  7 32  1  1
 26 25  1  0
  8  9  2  0
  9 12  1  0
 12 13  2  0
 13 11  1  0
 11 10  2  0
 10  8  1  0
M  END
$$$$
