No_3148-complexes_sdf/6BKW-FPZ/2024-09-17-14-21-01/
     RDKit          3D

 20 22  0  0  0  0  0  0  0  0999 V2000
   -7.2496    3.8871   27.4508 C   0  0  0  0  0  0  0  0  0  0  0  0
   -7.6161    2.7143   27.1523 C   0  0  0  0  0  0  0  0  0  0  0  0
   -6.9719    1.5838   27.5324 C   0  0  0  0  0  0  0  0  0  0  0  0
   -5.6316    1.7305   27.9933 C   0  0  0  0  0  0  0  0  0  0  0  0
   -5.8952    4.0984   27.9705 C   0  0  0  0  0  0  0  0  0  0  0  0
   -5.1627    3.0216   28.2671 C   0  0  0  0  0  0  0  0  0  0  0  0
   -8.2482    4.9238   27.1967 C   0  0  0  0  0  0  0  0  0  0  0  0
   -9.2891    4.9232   26.3371 C   0  0  0  0  0  0  0  0  0  0  0  0
   -9.5380    3.6260   25.7868 C   0  0  0  0  0  0  0  0  0  0  0  0
   -8.8037    2.5196   26.2524 C   0  0  0  0  0  0  0  0  0  0  0  0
   -4.7826    0.5793   28.3212 C   0  0  0  0  0  0  0  0  0  0  0  0
   -4.8122    0.1571   29.4433 O   0  0  0  0  0  0  0  0  0  0  0  0
   -3.9795    0.1504   27.3946 O   0  0  0  0  0  0  0  0  0  0  0  0
   -7.8126    6.3691   27.6986 C   0  0  0  0  0  0  0  0  0  0  0  0
  -10.7113    3.4769   24.9385 C   0  0  0  0  0  0  0  0  0  0  0  0
  -10.5873    3.9369   23.6202 C   0  0  0  0  0  0  0  0  0  0  0  0
  -11.6407    3.8169   22.6655 C   0  0  0  0  0  0  0  0  0  0  0  0
  -12.8279    3.2368   23.0954 C   0  0  0  0  0  0  0  0  0  0  0  0
  -11.9117    2.8972   25.3342 C   0  0  0  0  0  0  0  0  0  0  0  0
  -12.9642    2.8301   24.4286 C   0  0  0  0  0  0  0  0  0  0  0  0
  4 11  1  0
 11 12  2  0
 11 13  1  0
  7 14  1  0
  9 15  1  0
 15 16  2  0
 16 17  1  0
 17 18  2  0
 18 20  1  0
 20 19  2  0
 19 15  1  0
  2 10  1  0
 10  9  2  0
  9  8  1  0
  8  7  2  0
  7  1  1  0
  1  2  1  0
  2  3  2  0
  3  4  1  0
  4  6  2  0
  6  5  1  0
  5  1  2  0
M  END
$$$$
