No_3479-complexes_sdf/6BKW-FPZ/2024-09-17-14-21-01/
     RDKit          3D

 40 47  0  0  0  0  0  0  0  0999 V2000
   -7.2496    3.8871   27.4508 C   0  0  0  0  0  0  0  0  0  0  0  0
   -8.5096    4.0291   27.2770 C   0  0  2  0  0  0  0  0  0  0  0  0
   -9.3502    2.8685   26.8763 C   0  0  1  0  0  0  0  0  0  0  0  0
   -6.6288    2.5513   27.4938 C   0  0  0  0  0  0  0  0  0  0  0  0
   -7.4365    1.4714   27.2032 C   0  0  0  0  0  0  0  0  0  0  0  0
   -8.7772    1.6579   26.9338 C   0  0  1  0  0  0  0  0  0  0  0  0
   -9.1119    5.3743   27.2229 C   0  0  0  0  0  0  0  0  0  0  0  0
  -10.3345    5.7535   27.5554 C   0  0  0  0  0  0  0  0  0  0  0  0
   -8.1907    6.4727   26.8554 C   0  0  0  0  0  0  0  0  0  0  0  0
   -8.5459    7.8197   26.8264 C   0  0  0  0  0  0  0  0  0  0  0  0
  -11.2088    4.6950   27.9291 C   0  0  0  0  0  0  0  0  0  0  0  0
   -6.8054    0.1678   27.1667 C   0  0  0  0  0  0  0  0  0  0  0  0
   -5.6070   -0.0605   27.7656 C   0  0  0  0  0  0  0  0  0  0  0  0
   -5.0561   -1.3330   27.8380 C   0  0  0  0  0  0  0  0  0  0  0  0
   -5.7186   -2.3342   27.1530 C   0  0  0  0  0  0  0  0  0  0  0  0
   -7.3348   -0.9814   26.6787 C   0  0  0  0  0  0  0  0  0  0  0  0
   -6.8595   -2.1688   26.6211 C   0  0  0  0  0  0  0  0  0  0  0  0
  -11.2757    3.5718   27.6310 C   0  0  0  0  0  0  0  0  0  0  0  0
  -10.3503    2.6319   27.4536 C   0  0  1  0  0  0  0  0  0  0  0  0
   -9.6281    3.1076   25.3964 C   0  0  0  0  0  0  0  0  0  0  0  0
  -10.7582    2.6630   24.7348 C   0  0  0  0  0  0  0  0  0  0  0  0
  -10.9483    3.0093   23.4404 C   0  0  0  0  0  0  0  0  0  0  0  0
  -11.6976    2.2599   22.6273 C   0  0  0  0  0  0  0  0  0  0  0  0
  -12.4421    1.1944   23.1325 C   0  0  0  0  0  0  0  0  0  0  0  0
  -12.2001    0.8092   24.4378 C   0  0  0  0  0  0  0  0  0  0  0  0
  -11.3092    1.4373   25.1989 C   0  0  0  0  0  0  0  0  0  0  0  0
  -10.7787    1.2293   27.9589 C   0  0  0  0  0  0  0  0  0  0  0  0
   -9.5932    0.5278   26.8988 C   0  0  2  0  0  0  0  0  0  0  0  0
   -9.3839   -0.7987   27.6151 C   0  0  0  0  0  0  0  0  0  0  0  0
   -8.4550   -1.1544   25.9210 N   0  0  0  0  0  0  0  0  0  0  0  0
   -8.2800   -1.3956   24.5799 C   0  0  0  0  0  0  0  0  0  0  0  0
   -9.6816   -1.3064   26.5326 C   0  0  0  0  0  0  0  0  0  0  0  0
   -7.4274   -1.8979   24.0262 C   0  0  0  0  0  0  0  0  0  0  0  0
   -9.4108   -0.8491   23.8038 C   0  0  0  0  0  0  0  0  0  0  0  0
   -9.3849   -0.9329   22.3909 C   0  0  0  0  0  0  0  0  0  0  0  0
   -7.2865   -1.9593   22.5368 C   0  0  0  0  0  0  0  0  0  0  0  0
   -8.2512   -1.4678   21.7813 C   0  0  0  0  0  0  0  0  0  0  0  0
  -11.0730    0.9361   26.3803 O   0  0  0  0  0  0  0  0  0  0  0  0
   -8.3800    1.5913   25.8866 O   0  0  0  0  0  0  0  0  0  0  0  0
   -8.0861    1.5695   24.8547 C   0  0  0  0  0  0  0  0  0  0  0  0
  2  3  1  0
  1  4  1  0
  3  6  1  0
  5  6  1  0
  2  7  1  0
  7  8  2  0
  7  9  1  0
  9 10  2  0
  8 11  1  0
  5 12  1  0
 11 18  2  0
  3 19  1  0
 18 19  1  0
  3 20  1  6
 20 21  1  0
 19 27  1  6
  6 28  1  0
 28 27  1  1
 28 29  1  0
 16 30  1  0
 30 31  1  0
 29 32  1  0
 30 32  1  0
 26 38  1  0
 28 38  1  0
  6 39  1  6
 39 40  1  0
  2  1  1  6
  4  5  1  0
 12 13  2  0
 13 14  1  0
 14 15  2  0
 15 17  1  0
 17 16  2  0
 16 12  1  0
 31 33  2  0
 33 36  1  0
 36 37  2  0
 37 35  1  0
 35 34  2  0
 34 31  1  0
 21 22  2  0
 22 23  1  0
 23 24  2  0
 24 25  1  0
 25 26  2  0
 26 21  1  0
M  END
$$$$
