No_3899-complexes_sdf/6BKW-FPZ/2024-09-17-14-21-01/
     RDKit          3D

 22 24  0  0  0  0  0  0  0  0999 V2000
   -7.9040    3.9820   27.1177 C   0  0  0  0  0  0  0  0  0  0  0  0
   -9.0711    4.3164   27.0630 C   0  0  0  0  0  0  0  0  0  0  0  0
   -9.5182    5.5541   27.5777 C   0  0  0  0  0  0  0  0  0  0  0  0
   -7.4468    2.6843   26.6499 C   0  0  0  0  0  0  0  0  0  0  0  0
   -8.3856    1.7878   26.2216 C   0  0  0  0  0  0  0  0  0  0  0  0
   -9.6812    2.2328   26.0889 C   0  0  0  0  0  0  0  0  0  0  0  0
  -10.0147    3.4312   26.5259 C   0  0  0  0  0  0  0  0  0  0  0  0
   -7.9132    0.4733   25.8127 C   0  0  0  0  0  0  0  0  0  0  0  0
   -8.0164    0.2707   24.5764 F   0  0  0  0  0  0  0  0  0  0  0  0
   -6.6244    0.3012   26.2003 F   0  0  0  0  0  0  0  0  0  0  0  0
   -8.3541   -0.5778   26.4934 F   0  0  0  0  0  0  0  0  0  0  0  0
   -8.5492    6.6581   27.5603 C   0  0  0  0  0  0  0  0  0  0  0  0
   -7.2328    6.2818   27.2663 C   0  0  0  0  0  0  0  0  0  0  0  0
   -6.8501    4.9885   27.2156 C   0  0  0  0  0  0  0  0  0  0  0  0
  -11.4683    3.8075   26.3451 C   0  0  0  0  0  0  0  0  0  0  0  0
  -12.2675    3.8032   27.5072 C   0  0  0  0  0  0  0  0  0  0  0  0
  -11.7864    3.4032   28.7019 C   0  0  0  0  0  0  0  0  0  0  0  0
  -13.6462    4.2782   27.4405 C   0  0  0  0  0  0  0  0  0  0  0  0
  -14.4919    4.4228   28.5564 C   0  0  0  0  0  0  0  0  0  0  0  0
  -12.7335    3.4281   29.9204 C   0  0  0  0  0  0  0  0  0  0  0  0
  -13.9802    3.9246   29.8336 C   0  0  0  0  0  0  0  0  0  0  0  0
  -11.8704    4.1331   25.2589 F   0  0  0  0  0  0  0  0  0  0  0  0
  5  8  1  0
  8  9  1  0
  8 10  1  0
  8 11  1  0
  7 15  1  0
 15 16  1  0
 15 22  1  0
  2  3  2  0
  3 12  1  0
 12 13  2  0
 13 14  1  0
 14  1  2  0
 16 17  2  0
 17 20  1  0
 20 21  2  0
 21 19  1  0
 19 18  2  0
 18 16  1  0
  1  2  1  0
  2  7  1  0
  7  6  2  0
  6  5  1  0
  5  4  2  0
  4  1  1  0
M  END
$$$$
