No_3684-complexes_sdf/6BKW-FPZ/2024-09-17-14-21-01/
     RDKit          3D

  9  9  0  0  0  0  0  0  0  0999 V2000
   -7.7129    4.2099   27.0854 C   0  0  0  0  0  0  0  0  0  0  0  0
   -8.9133    4.4736   27.0998 C   0  0  0  0  0  0  0  0  0  0  0  0
   -9.7135    3.9633   26.0300 C   0  0  0  0  0  0  0  0  0  0  0  0
   -7.1708    2.9509   26.6517 C   0  0  0  0  0  0  0  0  0  0  0  0
   -8.1338    2.1226   26.0347 C   0  0  0  0  0  0  0  0  0  0  0  0
   -9.3389    2.6863   25.6841 C   0  0  0  0  0  0  0  0  0  0  0  0
   -9.2490    5.8872   27.3688 N   0  0  0  0  0  0  0  0  0  0  0  0
   -8.4772    6.9630   27.3315 C   0  0  0  0  0  0  0  0  0  0  0  0
   -6.7348    4.8681   27.8400 F   0  0  0  0  0  0  0  0  0  0  0  0
  2  7  1  0
  7  8  1  0
  1  9  1  0
  1  2  2  0
  2  3  1  0
  3  6  2  0
  6  5  1  0
  5  4  2  0
  4  1  1  0
M  END
$$$$
