No_3706-complexes_sdf/6BKW-FPZ/2024-09-17-14-21-01/
     RDKit          3D

 33 37  0  0  0  0  0  0  0  0999 V2000
   -7.7129    4.2099   27.0854 C   0  0  0  0  0  0  0  0  0  0  0  0
   -8.9133    4.4736   27.0998 C   0  0  0  0  0  0  0  0  0  0  0  0
   -9.7135    3.9633   26.0300 C   0  0  0  0  0  0  0  0  0  0  0  0
   -7.1708    2.9509   26.6517 C   0  0  0  0  0  0  0  0  0  0  0  0
   -8.1080    2.0551   26.5158 C   0  0  0  0  0  0  0  0  0  0  0  0
   -9.3407    2.5801   25.9181 C   0  0  0  0  0  0  0  0  0  0  0  0
   -7.7317    0.6676   26.1216 C   0  0  0  0  0  0  0  0  0  0  0  0
   -6.8114    0.0705   27.0611 C   0  0  0  0  0  0  0  0  0  0  0  0
   -6.3953   -1.0035   27.0918 C   0  0  0  0  0  0  0  0  0  0  0  0
   -5.4398   -1.4131   28.0594 C   0  0  0  0  0  0  0  0  0  0  0  0
   -4.7824   -0.5125   28.9281 C   0  0  0  0  0  0  0  0  0  0  0  0
   -5.1502    0.8315   28.7515 C   0  0  0  0  0  0  0  0  0  0  0  0
   -6.0939    1.1745   27.8749 C   0  0  0  0  0  0  0  0  0  0  0  0
   -3.7485   -0.9104   29.8721 C   0  0  0  0  0  0  0  0  0  0  0  0
   -4.0609   -1.9626   30.6554 C   0  0  2  0  0  0  0  0  0  0  0  0
   -4.4782   -1.8047   31.7891 C   0  0  0  0  0  0  0  0  0  0  0  0
   -4.8052   -0.4591   32.3194 C   0  0  0  0  0  0  0  0  0  0  0  0
   -5.4889   -0.3553   33.5686 C   0  0  0  0  0  0  0  0  0  0  0  0
   -5.7912   -1.5808   34.2892 C   0  0  0  0  0  0  0  0  0  0  0  0
   -5.4872   -2.7962   33.8691 C   0  0  0  0  0  0  0  0  0  0  0  0
   -4.8907   -2.9145   32.6313 C   0  0  0  0  0  0  0  0  0  0  0  0
  -10.2378    1.7914   25.0727 C   0  0  0  0  0  0  0  0  0  0  0  0
  -10.3947    2.0772   23.8018 C   0  0  0  0  0  0  0  0  0  0  0  0
  -11.1903    1.2926   22.9145 C   0  0  0  0  0  0  0  0  0  0  0  0
  -11.7027    0.1086   23.3801 C   0  0  0  0  0  0  0  0  0  0  0  0
  -10.7278    0.5335   25.5213 C   0  0  0  0  0  0  0  0  0  0  0  0
  -11.4836   -0.2506   24.7075 C   0  0  0  0  0  0  0  0  0  0  0  0
   -6.4299    2.5245   27.6529 N   0  0  0  0  0  0  0  0  0  0  0  0
   -2.7021   -2.7840   30.7049 C   0  0  0  0  0  0  0  0  0  0  0  0
   -6.7821    5.1793   27.9798 C   0  0  0  0  0  0  0  0  0  0  0  0
  -12.0789   -1.5194   25.1719 C   0  0  0  0  0  0  0  0  0  0  0  0
  -12.6177   -2.2657   24.7247 N   0  0  0  0  0  0  0  0  0  0  0  0
  -13.0827   -3.4074   25.3331 C   0  0  0  0  0  0  0  0  0  0  0  0
 11 14  1  0
 14 15  1  0
  6 22  1  0
 15 29  1  1
  1 30  1  0
 27 31  1  0
 31 32  2  3
 32 33  1  0
 15 16  1  0
  1  2  2  0
  2  3  1  0
  3  6  2  0
  6  5  1  0
  4  1  1  0
  4  5  2  0
  5  7  1  0
  7  8  2  0
 13 28  2  0
 28  4  1  0
 22 23  2  0
 23 24  1  0
 24 25  2  0
 25 27  1  0
 27 26  2  0
 26 22  1  0
  8  9  1  0
  9 10  2  0
 10 11  1  0
 11 12  2  0
 12 13  1  0
 13  8  1  0
 16 17  2  0
 17 18  1  0
 18 19  2  0
 19 20  1  0
 20 21  2  0
 21 16  1  0
M  END
$$$$
