No_3400-complexes_sdf/6BKW-FPZ/2024-09-17-14-21-01/
     RDKit          3D

 17 19  0  0  0  0  0  0  0  0999 V2000
   -7.2496    3.8871   27.4508 C   0  0  0  0  0  0  0  0  0  0  0  0
   -7.6161    2.7143   27.1523 C   0  0  0  0  0  0  0  0  0  0  0  0
   -7.1619    1.8631   27.5232 C   0  0  0  0  0  0  0  0  0  0  0  0
   -8.0384    5.0866   27.3232 C   0  0  0  0  0  0  0  0  0  0  0  0
   -7.6402    6.3228   27.8917 C   0  0  0  0  0  0  0  0  0  0  0  0
   -7.4924    0.4564   27.3026 C   0  0  0  0  0  0  0  0  0  0  0  0
   -9.1698    5.0785   26.4353 C   0  0  0  0  0  0  0  0  0  0  0  0
   -8.8090    0.3187   26.8291 C   0  0  0  0  0  0  0  0  0  0  0  0
   -9.5585    1.3903   26.4622 C   0  0  0  0  0  0  0  0  0  0  0  0
   -9.0074    2.6664   26.6787 C   0  0  0  0  0  0  0  0  0  0  0  0
   -9.7906    3.7825   26.2481 C   0  0  0  0  0  0  0  0  0  0  0  0
  -10.9533    3.7175   25.4697 C   0  0  0  0  0  0  0  0  0  0  0  0
  -11.4911    2.9304   24.8362 C   0  0  0  0  0  0  0  0  0  0  0  0
  -12.7191    3.0359   24.1054 C   0  0  0  0  0  0  0  0  0  0  0  0
  -13.3111    4.2613   24.2679 C   0  0  0  0  0  0  0  0  0  0  0  0
  -12.8825    5.2402   25.1243 C   0  0  0  0  0  0  0  0  0  0  0  0
  -11.7213    5.0499   25.8022 C   0  0  0  0  0  0  0  0  0  0  0  0
  4  5  1  0
 11 12  1  0
 12 13  2  0
 13 14  1  0
 14 15  2  0
 15 16  1  0
 16 17  2  0
 17 12  1  0
  2  3  1  0
  3  6  2  0
  6  8  1  0
  8  9  2  0
  9 10  1  0
  1  2  2  0
  2 10  1  0
 10 11  2  0
 11  7  1  0
  7  4  2  0
  4  1  1  0
M  END
$$$$
