No_325-complexes_sdf/6BKW-FPZ/2024-09-17-14-21-01/
     RDKit          3D

 24 28  0  0  0  0  0  0  0  0999 V2000
   -7.7129    4.2099   27.0854 C   0  0  0  0  0  0  0  0  0  0  0  0
   -7.7814    5.1722   27.8972 C   0  0  0  0  0  0  0  0  0  0  0  0
   -8.8776    3.8408   26.3416 C   0  0  0  0  0  0  0  0  0  0  0  0
   -9.9844    4.6492   26.4743 C   0  0  0  0  0  0  0  0  0  0  0  0
   -8.7830    6.1594   27.8870 C   0  0  0  0  0  0  0  0  0  0  0  0
   -9.9269    5.8191   27.1183 C   0  0  0  0  0  0  0  0  0  0  0  0
   -8.6731    2.5840   25.5890 C   0  0  0  0  0  0  0  0  0  0  0  0
   -9.4842    2.4553   24.5305 C   0  0  0  0  0  0  0  0  0  0  0  0
   -9.4814    1.2626   23.7551 C   0  0  0  0  0  0  0  0  0  0  0  0
  -10.2326    1.1511   22.5538 C   0  0  0  0  0  0  0  0  0  0  0  0
  -11.0360    2.2298   22.1747 C   0  0  0  0  0  0  0  0  0  0  0  0
  -11.0371    3.3935   22.9025 C   0  0  0  0  0  0  0  0  0  0  0  0
  -10.2331    3.5258   24.0701 C   0  0  0  0  0  0  0  0  0  0  0  0
  -10.7843    4.5317   25.2829 N   0  0  0  0  0  0  0  0  0  0  0  0
   -8.5374    0.2725   24.2397 C   0  0  0  0  0  0  0  0  0  0  0  0
   -8.6254   -0.3009   25.4758 C   0  0  0  0  0  0  0  0  0  0  0  0
   -9.7653   -0.1727   26.2857 C   0  0  0  0  0  0  0  0  0  0  0  0
   -9.7164   -0.7250   27.6106 C   0  0  0  0  0  0  0  0  0  0  0  0
   -8.5160   -1.3127   28.0667 C   0  0  0  0  0  0  0  0  0  0  0  0
   -7.3919   -1.3659   27.3155 C   0  0  0  0  0  0  0  0  0  0  0  0
   -7.3602   -0.8714   26.0454 C   0  0  0  0  0  0  0  0  0  0  0  0
   -7.1867    0.4590   23.7007 C   0  0  0  0  0  0  0  0  0  0  0  0
   -6.2112   -0.8630   25.3062 C   0  0  0  0  0  0  0  0  0  0  0  0
   -6.1537   -0.6651   24.2524 C   0  0  0  0  0  0  0  0  0  0  0  0
  9 15  1  0
  1  2  2  0
  2  5  1  0
  5  6  2  0
  6  4  1  0
  3  1  1  0
 15 16  1  0
 21 23  1  0
 23 24  2  0
 24 22  1  0
 22 15  2  0
  3  4  2  0
  4 14  1  0
 14 13  2  0
  8  7  2  0
  7  3  1  0
  8  9  1  0
  9 10  2  0
 10 11  1  0
 11 12  2  0
 12 13  1  0
 13  8  1  0
 16 17  2  0
 17 18  1  0
 18 19  2  0
 19 20  1  0
 20 21  2  0
 21 16  1  0
M  END
$$$$
