No_3823-complexes_sdf/6BKW-FPZ/2024-09-17-14-21-01/
     RDKit          3D

 40 46  0  0  0  0  0  0  0  0999 V2000
   -7.7129    4.2099   27.0854 C   0  0  0  0  0  0  0  0  0  0  0  0
   -7.7814    5.1722   27.8972 C   0  0  0  0  0  0  0  0  0  0  0  0
   -8.8998    3.8713   26.3707 C   0  0  0  0  0  0  0  0  0  0  0  0
   -9.9938    4.6774   26.5446 C   0  0  0  0  0  0  0  0  0  0  0  0
   -8.7789    6.1536   27.9256 C   0  0  0  0  0  0  0  0  0  0  0  0
   -9.9428    5.8398   27.2296 C   0  0  0  0  0  0  0  0  0  0  0  0
   -8.9119    2.6447   25.5685 C   0  0  0  0  0  0  0  0  0  0  0  0
   -8.3051    1.4797   26.1124 C   0  0  0  0  0  0  0  0  0  0  0  0
   -8.1599    0.3428   25.3874 C   0  0  0  0  0  0  0  0  0  0  0  0
   -8.7775    0.3549   24.1135 C   0  0  0  0  0  0  0  0  0  0  0  0
   -9.4260    1.4644   23.5719 C   0  0  0  0  0  0  0  0  0  0  0  0
   -9.4305    2.6267   24.3088 C   0  0  0  0  0  0  0  0  0  0  0  0
  -10.0301    1.6339   22.2512 C   0  0  0  0  0  0  0  0  0  0  0  0
  -10.0629    0.6848   21.4014 C   0  0  0  0  0  0  0  0  0  0  0  0
  -10.7747    0.7753   20.1701 C   0  0  0  0  0  0  0  0  0  0  0  0
  -11.4001    1.9848   19.8643 C   0  0  0  0  0  0  0  0  0  0  0  0
  -10.6997    2.8373   21.8389 C   0  0  0  0  0  0  0  0  0  0  0  0
  -11.3401    3.0092   20.7488 C   0  0  0  0  0  0  0  0  0  0  0  0
   -6.6260    5.5926   28.6003 O   0  0  0  0  0  0  0  0  0  0  0  0
   -7.5111   -0.8361   25.8486 C   0  0  0  0  0  0  0  0  0  0  0  0
   -6.8671   -1.4325   25.2965 O   0  0  0  0  0  0  0  0  0  0  0  0
   -7.7639   -1.0604   27.1855 O   0  0  0  0  0  0  0  0  0  0  0  0
   -7.1567   -2.0780   27.8383 C   0  0  1  0  0  0  0  0  0  0  0  0
   -6.1003   -1.7526   28.5179 C   0  0  0  0  0  0  0  0  0  0  0  0
   -5.8250   -2.3131   29.7171 C   0  0  0  0  0  0  0  0  0  0  0  0
   -4.6949   -1.8928   30.6144 C   0  0  0  0  0  0  0  0  0  0  0  0
   -3.8597   -0.8126   30.1218 C   0  0  0  0  0  0  0  0  0  0  0  0
   -4.1837   -0.1875   28.9006 C   0  0  0  0  0  0  0  0  0  0  0  0
   -5.2588   -0.5892   28.2166 C   0  0  0  0  0  0  0  0  0  0  0  0
   -3.5667    0.9548   28.4733 N   0  0  0  0  0  0  0  0  0  0  0  0
   -8.3187   -2.6824   28.6716 C   0  0  0  0  0  0  0  0  0  0  0  0
   -9.3489   -3.1275   28.1803 C   0  0  0  0  0  0  0  0  0  0  0  0
  -10.3033   -3.3036   28.7674 C   0  0  0  0  0  0  0  0  0  0  0  0
  -10.3035   -3.3978   30.2601 C   0  0  0  0  0  0  0  0  0  0  0  0
   -9.1531   -3.0470   30.8703 C   0  0  0  0  0  0  0  0  0  0  0  0
   -8.1522   -2.6145   30.1397 C   0  0  0  0  0  0  0  0  0  0  0  0
   -6.8459   -2.4006   30.6288 N   0  0  0  0  0  0  0  0  0  0  0  0
   -6.4192   -2.9291   31.9506 C   0  0  0  0  0  0  0  0  0  0  0  0
   -5.0732   -2.3250   31.9461 C   0  0  0  0  0  0  0  0  0  0  0  0
   -6.6681   -3.3234   26.9700 C   0  0  0  0  0  0  0  0  0  0  0  0
  3  7  1  0
 11 13  1  0
  2 19  1  0
  9 20  1  0
 20 21  2  0
 20 22  1  0
 22 23  1  0
 23 24  1  0
 28 30  1  0
 23 31  1  0
 25 37  1  0
 36 37  1  0
 37 38  1  0
 26 39  1  0
 38 39  2  0
 23 40  1  6
 31 32  2  0
 32 33  1  0
 33 34  2  0
 34 35  1  0
 35 36  2  0
 36 31  1  0
  7  8  2  0
  8  9  1  0
  9 10  2  0
 10 11  1  0
 11 12  2  0
 12  7  1  0
 24 29  2  0
 29 28  1  0
 28 27  2  0
 27 26  1  0
 26 25  2  0
 25 24  1  0
 13 14  2  0
 14 15  1  0
 15 16  2  0
 16 18  1  0
 18 17  2  0
 17 13  1  0
  1  2  2  0
  2  5  1  0
  5  6  2  0
  6  4  1  0
  4  3  2  0
  3  1  1  0
M  END
$$$$
