No_321-complexes_sdf/6BKW-FPZ/2024-09-17-14-21-01/
     RDKit          3D

 19 22  0  0  0  0  0  0  0  0999 V2000
   -7.7129    4.2099   27.0854 C   0  0  0  0  0  0  0  0  0  0  0  0
   -8.9133    4.4736   27.0998 C   0  0  0  0  0  0  0  0  0  0  0  0
   -9.8363    3.8127   27.2418 C   0  0  0  0  0  0  0  0  0  0  0  0
   -7.2995    2.8520   27.3808 C   0  0  0  0  0  0  0  0  0  0  0  0
   -8.3226    1.9328   27.4680 C   0  0  0  0  0  0  0  0  0  0  0  0
   -9.5955    2.3639   27.4416 C   0  0  0  0  0  0  0  0  0  0  0  0
   -9.3406    5.9886   27.0584 C   0  0  0  0  0  0  0  0  0  0  0  0
   -7.9831    0.4965   27.6378 C   0  0  0  0  0  0  0  0  0  0  0  0
   -9.0059   -0.4500   27.6529 C   0  0  0  0  0  0  0  0  0  0  0  0
   -6.6322    0.1077   27.7592 C   0  0  0  0  0  0  0  0  0  0  0  0
   -6.2953   -1.2068   27.9520 C   0  0  0  0  0  0  0  0  0  0  0  0
  -10.3407   -0.0621   27.5645 C   0  0  0  0  0  0  0  0  0  0  0  0
  -10.6435    1.3466   27.5732 C   0  0  0  0  0  0  0  0  0  0  0  0
   -4.9756   -1.5585   28.1149 C   0  0  0  0  0  0  0  0  0  0  0  0
   -3.9346   -0.5746   28.0013 C   0  0  0  0  0  0  0  0  0  0  0  0
   -4.2887    0.7553   27.7649 C   0  0  0  0  0  0  0  0  0  0  0  0
   -5.6171    1.0973   27.7197 C   0  0  0  0  0  0  0  0  0  0  0  0
   -6.0378    2.4346   27.4968 N   0  0  0  0  0  0  0  0  0  0  0  0
   -8.4137    6.8994   26.2855 C   0  0  0  0  0  0  0  0  0  0  0  0
  2  7  1  0
  8 10  1  0
  4 18  1  0
 17 18  1  0
  7 19  1  0
  1  2  2  0
  2  3  1  0
  3  6  2  0
  5  4  2  0
  4  1  1  0
 10 11  2  0
 11 14  1  0
 14 15  2  0
 15 16  1  0
 16 17  2  0
 17 10  1  0
  5  6  1  0
  6 13  1  0
 13 12  2  0
 12  9  1  0
  9  8  2  0
  8  5  1  0
M  END
$$$$
