No_362-complexes_sdf/6BKW-FPZ/2024-09-17-14-21-01/
     RDKit          3D

 26 28  0  0  0  0  0  0  0  0999 V2000
   -7.2496    3.8871   27.4508 C   0  0  0  0  0  0  0  0  0  0  0  0
   -7.9379    4.9063   27.8518 C   0  0  0  0  0  0  0  0  0  0  0  0
   -9.3460    4.8223   27.8695 C   0  0  0  0  0  0  0  0  0  0  0  0
   -7.8628    2.6163   27.1065 C   0  0  0  0  0  0  0  0  0  0  0  0
   -9.2787    2.5744   27.1970 C   0  0  0  0  0  0  0  0  0  0  0  0
  -10.0108    3.6770   27.6340 C   0  0  0  0  0  0  0  0  0  0  0  0
  -11.4855    3.5731   27.7420 C   0  0  0  0  0  0  0  0  0  0  0  0
  -12.3115    4.3555   27.3965 C   0  0  0  0  0  0  0  0  0  0  0  0
  -13.6950    4.4264   27.6217 C   0  0  0  0  0  0  0  0  0  0  0  0
  -12.0395    2.4852   28.5248 C   0  0  0  0  0  0  0  0  0  0  0  0
  -13.3492    2.3553   28.8058 C   0  0  0  0  0  0  0  0  0  0  0  0
  -14.1844    3.3825   28.3437 C   0  0  0  0  0  0  0  0  0  0  0  0
   -7.0820    1.4798   26.7765 C   0  0  0  0  0  0  0  0  0  0  0  0
   -6.0372    1.0976   27.5648 N   0  0  0  0  0  0  0  0  0  0  0  0
   -5.3163   -0.0083   27.4911 C   0  0  0  0  0  0  0  0  0  0  0  0
   -4.1069    0.0805   28.0444 C   0  0  2  0  0  0  0  0  0  0  0  0
   -3.0710   -0.7977   27.6897 C   0  0  0  0  0  0  0  0  0  0  0  0
   -1.8322   -0.5939   28.2030 C   0  0  0  0  0  0  0  0  0  0  0  0
   -0.7957   -1.3481   27.6862 C   0  0  0  0  0  0  0  0  0  0  0  0
   -0.9873   -2.2853   26.6653 C   0  0  0  0  0  0  0  0  0  0  0  0
   -2.2704   -2.4018   26.1539 C   0  0  0  0  0  0  0  0  0  0  0  0
   -3.2862   -1.6097   26.6229 C   0  0  0  0  0  0  0  0  0  0  0  0
   -7.3640    0.7840   25.8223 O   0  0  0  0  0  0  0  0  0  0  0  0
   -7.4088    6.0860   28.2880 F   0  0  0  0  0  0  0  0  0  0  0  0
   -3.9552    0.8549   29.3137 C   0  0  0  0  0  0  0  0  0  0  0  0
  -15.9019    3.2548   28.5863 Cl  0  0  0  0  0  0  0  0  0  0  0  0
  6  7  1  0
  4 13  1  0
 13 14  1  0
 14 15  1  0
 15 16  1  0
 16 17  1  0
 13 23  2  0
  2 24  1  0
 16 25  1  1
 12 26  1  0
 17 18  2  0
 18 19  1  0
 19 20  2  0
 20 21  1  0
 21 22  2  0
 22 17  1  0
  1  2  2  0
  2  3  1  0
  3  6  2  0
  6  5  1  0
  5  4  2  0
  4  1  1  0
  7  8  2  0
  8  9  1  0
  9 12  2  0
 12 11  1  0
 11 10  2  0
 10  7  1  0
M  END
$$$$
