No_3941-complexes_sdf/6BKW-FPZ/2024-09-17-14-21-01/
     RDKit          3D

 22 24  0  0  0  0  0  0  0  0999 V2000
   -7.9040    3.9820   27.1177 C   0  0  0  0  0  0  0  0  0  0  0  0
   -7.8663    4.8694   27.9238 C   0  0  0  0  0  0  0  0  0  0  0  0
   -9.0501    3.8017   26.2617 C   0  0  0  0  0  0  0  0  0  0  0  0
  -10.0189    4.7608   26.3707 C   0  0  0  0  0  0  0  0  0  0  0  0
   -8.6770    5.9780   27.9222 C   0  0  0  0  0  0  0  0  0  0  0  0
   -9.8040    5.8752   27.0958 C   0  0  0  0  0  0  0  0  0  0  0  0
   -9.1434    2.6226   25.4210 C   0  0  0  0  0  0  0  0  0  0  0  0
   -8.6414    1.4248   25.8504 C   0  0  0  0  0  0  0  0  0  0  0  0
   -8.2425    1.2894   27.1408 C   0  0  0  0  0  0  0  0  0  0  0  0
   -7.7311    0.0144   27.5026 C   0  0  0  0  0  0  0  0  0  0  0  0
   -7.1582   -0.1468   28.7802 C   0  0  0  0  0  0  0  0  0  0  0  0
   -7.9188   -1.0649   26.6436 C   0  0  0  0  0  0  0  0  0  0  0  0
   -8.4279   -0.8972   25.3554 C   0  0  0  0  0  0  0  0  0  0  0  0
   -8.8085    0.3891   24.9373 C   0  0  0  0  0  0  0  0  0  0  0  0
   -9.8284    2.8311   24.3857 O   0  0  0  0  0  0  0  0  0  0  0  0
   -5.8430   -0.7099   28.8456 N   0  0  0  0  0  0  0  0  0  0  0  0
   -4.8689    0.0622   28.3397 C   0  0  0  0  0  0  0  0  0  0  0  0
   -5.0300    1.3998   27.9186 C   0  0  0  0  0  0  0  0  0  0  0  0
   -3.4947   -0.4689   28.4707 C   0  0  0  0  0  0  0  0  0  0  0  0
   -2.6319   -0.0918   27.5919 N   0  0  0  0  0  0  0  0  0  0  0  0
   -3.8828    1.8807   27.2184 N   0  0  0  0  0  0  0  0  0  0  0  0
   -2.7564    1.2698   27.1628 C   0  0  0  0  0  0  0  0  0  0  0  0
  3  7  1  0
  7  8  1  0
  7 15  2  0
 11 16  1  0
 16 17  1  0
 11 10  1  0
 17 18  2  0
 18 21  1  0
 21 22  2  0
 22 20  1  0
 20 19  2  0
 19 17  1  0
  8  9  2  0
  9 10  1  0
 10 12  2  0
 12 13  1  0
 13 14  2  0
 14  8  1  0
  1  2  2  0
  2  5  1  0
  5  6  2  0
  6  4  1  0
  4  3  2  0
  3  1  1  0
M  END
$$$$
