No_3950-complexes_sdf/6BKW-FPZ/2024-09-17-14-21-01/
     RDKit          3D

 22 25  0  0  0  0  0  0  0  0999 V2000
   -7.2496    3.8871   27.4508 C   0  0  0  0  0  0  0  0  0  0  0  0
   -8.5096    4.0291   27.2770 C   0  0  0  0  0  0  0  0  0  0  0  0
   -9.2669    5.1645   27.5845 C   0  0  0  0  0  0  0  0  0  0  0  0
   -8.4566    6.3212   27.8001 C   0  0  0  0  0  0  0  0  0  0  0  0
   -6.4921    5.0197   27.7961 C   0  0  0  0  0  0  0  0  0  0  0  0
   -7.1702    6.2351   27.9936 C   0  0  0  0  0  0  0  0  0  0  0  0
   -9.3431    2.7525   27.0047 C   0  0  0  0  0  0  0  0  0  0  0  0
   -9.6075    2.4783   25.8136 C   0  0  0  0  0  0  0  0  0  0  0  0
  -10.0844    3.3579   24.9135 C   0  0  0  0  0  0  0  0  0  0  0  0
  -10.3404    3.1096   23.5525 C   0  0  0  0  0  0  0  0  0  0  0  0
  -10.0372    1.8244   23.0866 C   0  0  0  0  0  0  0  0  0  0  0  0
   -9.4749    0.8623   23.9133 C   0  0  0  0  0  0  0  0  0  0  0  0
   -9.2413    1.1779   25.2418 C   0  0  0  0  0  0  0  0  0  0  0  0
  -10.6208    2.7988   27.8517 C   0  0  0  0  0  0  0  0  0  0  0  0
  -11.1596    1.5480   28.2783 C   0  0  0  0  0  0  0  0  0  0  0  0
  -10.6167    0.3619   27.7516 C   0  0  0  0  0  0  0  0  0  0  0  0
  -11.1219   -0.8735   28.1669 C   0  0  0  0  0  0  0  0  0  0  0  0
  -10.3948   -1.9999   27.7975 C   0  0  0  0  0  0  0  0  0  0  0  0
   -9.2870   -1.8754   26.9967 C   0  0  0  0  0  0  0  0  0  0  0  0
   -8.7038   -0.7213   26.7523 C   0  0  0  0  0  0  0  0  0  0  0  0
   -9.3055    0.4798   27.2556 C   0  0  0  0  0  0  0  0  0  0  0  0
   -8.7908    1.6621   27.1679 N   0  0  0  0  0  0  0  0  0  0  0  0
  2  7  1  0
  7  8  1  0
  7 14  1  0
 15 16  1  0
  7 22  1  0
 21 22  1  0
 14 15  1  0
  1  2  2  0
  2  3  1  0
  3  4  2  0
  4  6  1  0
  6  5  2  0
  5  1  1  0
  8  9  2  0
  9 10  1  0
 10 11  2  0
 11 12  1  0
 12 13  2  0
 13  8  1  0
 16 17  2  0
 17 18  1  0
 18 19  2  0
 19 20  1  0
 20 21  2  0
 21 16  1  0
M  END
$$$$
