No_3026-complexes_sdf/6BKW-FPZ/2024-09-17-14-21-01/
     RDKit          3D

 25 27  0  0  0  0  0  0  0  0999 V2000
   -7.7129    4.2099   27.0854 C   0  0  0  0  0  0  0  0  0  0  0  0
   -8.9133    4.4736   27.0998 C   0  0  0  0  0  0  0  0  0  0  0  0
   -9.8363    3.8127   27.2418 C   0  0  0  0  0  0  0  0  0  0  0  0
   -7.2995    2.8520   27.3808 C   0  0  0  0  0  0  0  0  0  0  0  0
   -8.3226    1.9328   27.4680 C   0  0  0  0  0  0  0  0  0  0  0  0
  -11.2778    4.1494   27.2137 C   0  0  0  0  0  0  0  0  0  0  0  0
   -9.6256    2.3868   27.4677 C   0  0  0  0  0  0  0  0  0  0  0  0
  -12.0128    4.6250   27.8460 C   0  0  0  0  0  0  0  0  0  0  0  0
  -12.0225    3.4318   26.0208 C   0  0  0  0  0  0  0  0  0  0  0  0
   -6.0228    2.4338   27.4298 N   0  0  0  0  0  0  0  0  0  0  0  0
  -13.1977    3.8009   25.8149 C   0  0  0  0  0  0  0  0  0  0  0  0
  -13.3369    5.1017   27.8677 C   0  0  0  0  0  0  0  0  0  0  0  0
  -13.9651    4.6393   26.7167 C   0  0  0  0  0  0  0  0  0  0  0  0
   -9.1579    6.0574   26.8338 C   0  0  0  0  0  0  0  0  0  0  0  0
   -5.5853    1.1813   27.5807 C   0  0  0  0  0  0  0  0  0  0  0  0
   -4.5008    1.0642   28.5240 C   0  0  0  0  0  0  0  0  0  0  0  0
   -4.0308   -0.2413   28.8648 C   0  0  0  0  0  0  0  0  0  0  0  0
   -4.6360   -1.3318   28.2442 C   0  0  0  0  0  0  0  0  0  0  0  0
   -6.3106    0.1786   27.1165 F   0  0  0  0  0  0  0  0  0  0  0  0
   -4.5042   -2.5614   28.6237 C   0  0  0  0  0  0  0  0  0  0  0  0
   -3.7886   -2.7129   29.8313 C   0  0  0  0  0  0  0  0  0  0  0  0
   -3.1212   -1.6852   30.5118 C   0  0  0  0  0  0  0  0  0  0  0  0
   -3.3074   -0.3932   30.1237 C   0  0  0  0  0  0  0  0  0  0  0  0
   -8.5846    7.1231   27.5918 C   0  0  0  0  0  0  0  0  0  0  0  0
   -7.7484    7.8844   26.7378 C   0  0  0  0  0  0  0  0  0  0  0  0
  3  6  1  0
  4 10  1  0
  2 14  1  0
 10 15  1  0
 15 16  2  3
 16 17  1  0
 15 19  1  0
 14 24  1  0
 24 25  1  0
  6  8  2  0
  8 12  1  0
 12 13  2  0
 13 11  1  0
 11  9  2  0
  9  6  1  0
 17 18  2  0
 18 20  1  0
 20 21  2  0
 21 22  1  0
 22 23  2  0
 23 17  1  0
  1  2  2  0
  2  3  1  0
  3  7  2  0
  7  5  1  0
  5  4  2  0
  4  1  1  0
M  END
$$$$
