No_3009-complexes_sdf/6BKW-FPZ/2024-09-17-14-21-01/
     RDKit          3D

 37 42  0  0  0  0  0  0  0  0999 V2000
   -7.7129    4.2099   27.0854 C   0  0  0  0  0  0  0  0  0  0  0  0
   -8.9133    4.4736   27.0998 C   0  0  0  0  0  0  0  0  0  0  0  0
   -9.7937    3.7367   26.2091 C   0  0  0  0  0  0  0  0  0  0  0  0
   -6.8266    5.0441   28.0594 C   0  0  0  0  0  0  0  0  0  0  0  0
  -11.0884    4.1572   25.9278 C   0  0  0  0  0  0  0  0  0  0  0  0
  -11.8573    3.5481   24.9807 C   0  0  0  0  0  0  0  0  0  0  0  0
  -11.2980    2.5062   24.2454 C   0  0  0  0  0  0  0  0  0  0  0  0
  -10.0337    2.1019   24.4722 C   0  0  0  0  0  0  0  0  0  0  0  0
   -9.2188    2.7542   25.3939 C   0  0  0  0  0  0  0  0  0  0  0  0
   -9.4404    5.5388   27.8703 C   0  0  0  0  0  0  0  0  0  0  0  0
   -8.6695    6.4398   28.5977 C   0  0  0  0  0  0  0  0  0  0  0  0
   -7.3193    6.0211   28.6616 C   0  0  0  0  0  0  0  0  0  0  0  0
   -9.4503    0.9813   23.6714 C   0  0  0  0  0  0  0  0  0  0  0  0
   -9.7423    0.8230   22.3612 C   0  0  0  0  0  0  0  0  0  0  0  0
   -9.1934   -0.2488   21.6199 C   0  0  0  0  0  0  0  0  0  0  0  0
   -8.2358   -1.0975   22.2317 C   0  0  0  0  0  0  0  0  0  0  0  0
   -7.8605   -0.8909   23.5514 C   0  0  0  0  0  0  0  0  0  0  0  0
   -8.4226    0.1242   24.3063 C   0  0  0  0  0  0  0  0  0  0  0  0
   -7.5083   -2.4723   21.2101 Br  0  0  0  0  0  0  0  0  0  0  0  0
  -13.4547    4.0252   24.7142 Cl  0  0  0  0  0  0  0  0  0  0  0  0
   -6.8599   -1.7861   24.2003 C   0  0  0  0  0  0  0  0  0  0  0  0
   -7.1014   -2.3031   25.1699 C   0  0  0  0  0  0  0  0  0  0  0  0
   -6.6625   -2.7497   26.1064 C   0  0  0  0  0  0  0  0  0  0  0  0
   -6.5012   -2.8110   27.3241 C   0  0  0  0  0  0  0  0  0  0  0  0
   -5.3965   -3.1303   28.1698 C   0  0  0  0  0  0  0  0  0  0  0  0
   -4.4117   -3.8263   27.5611 C   0  0  0  0  0  0  0  0  0  0  0  0
   -4.3948   -3.9572   26.2159 C   0  0  0  0  0  0  0  0  0  0  0  0
   -5.2726   -3.3855   25.4979 C   0  0  0  0  0  0  0  0  0  0  0  0
   -5.5755   -1.9688   23.6360 C   0  0  0  0  0  0  0  0  0  0  0  0
   -4.9111   -2.9350   24.1631 C   0  0  0  0  0  0  0  0  0  0  0  0
   -7.7116   -2.1268   28.1316 C   0  0  0  0  0  0  0  0  0  0  0  0
   -8.1827   -2.6855   29.2301 C   0  0  0  0  0  0  0  0  0  0  0  0
   -9.3821   -2.0796   29.8114 C   0  0  0  0  0  0  0  0  0  0  0  0
   -9.9158   -2.6221   30.9729 C   0  0  0  0  0  0  0  0  0  0  0  0
   -9.1324   -3.5260   31.7313 C   0  0  0  0  0  0  0  0  0  0  0  0
   -7.9557   -3.9786   31.2713 C   0  0  0  0  0  0  0  0  0  0  0  0
   -7.4484   -3.5683   30.1110 C   0  0  0  0  0  0  0  0  0  0  0  0
  2  3  1  0
  8 13  1  0
 16 19  1  0
  6 20  1  0
 17 21  1  0
 24 31  1  0
 31 32  1  0
 23 24  2  0
 24 25  1  0
 25 26  2  0
 26 27  1  0
 27 28  2  0
 21 22  2  0
 22 23  1  0
 23 28  1  0
 28 30  1  0
 30 29  2  0
 29 21  1  0
 32 33  2  0
 33 34  1  0
 34 35  2  0
 35 36  1  0
 36 37  2  0
 37 32  1  0
  1  2  2  0
  2 10  1  0
 10 11  2  0
 11 12  1  0
 12  4  2  0
  4  1  1  0
  3  5  2  0
  5  6  1  0
  6  7  2  0
  7  8  1  0
  8  9  2  0
  9  3  1  0
 13 14  2  0
 14 15  1  0
 15 16  2  0
 16 17  1  0
 17 18  2  0
 18 13  1  0
M  END
$$$$
