No_3081-complexes_sdf/6BKW-FPZ/2024-09-17-14-21-01/
     RDKit          3D

 20 22  0  0  0  0  0  0  0  0999 V2000
   -7.7129    4.2099   27.0854 C   0  0  0  0  0  0  0  0  0  0  0  0
   -7.7814    5.1722   27.8972 C   0  0  0  0  0  0  0  0  0  0  0  0
   -8.8998    3.8713   26.3707 C   0  0  0  0  0  0  0  0  0  0  0  0
   -8.9563    2.6796   25.5490 C   0  0  0  0  0  0  0  0  0  0  0  0
   -8.8131    6.1334   27.9344 C   0  0  0  0  0  0  0  0  0  0  0  0
   -9.9804    5.8121   27.1929 C   0  0  0  0  0  0  0  0  0  0  0  0
   -9.9861    4.6836   26.4532 C   0  0  0  0  0  0  0  0  0  0  0  0
   -9.8352    2.5435   24.5126 C   0  0  0  0  0  0  0  0  0  0  0  0
   -9.8680    1.4155   23.7412 C   0  0  0  0  0  0  0  0  0  0  0  0
   -8.8988    0.3731   23.9922 C   0  0  0  0  0  0  0  0  0  0  0  0
   -8.0409    0.4782   25.0443 C   0  0  0  0  0  0  0  0  0  0  0  0
   -8.0131    1.6137   25.8514 C   0  0  0  0  0  0  0  0  0  0  0  0
  -10.7637    1.2924   22.5981 C   0  0  0  0  0  0  0  0  0  0  0  0
  -12.0485    1.0863   22.9328 C   0  0  0  0  0  0  0  0  0  0  0  0
  -12.9979    1.0985   21.9549 C   0  0  0  0  0  0  0  0  0  0  0  0
  -12.5799    1.1975   20.5820 C   0  0  0  0  0  0  0  0  0  0  0  0
  -11.2637    1.3721   20.2229 C   0  0  0  0  0  0  0  0  0  0  0  0
  -10.2719    1.4679   21.2650 C   0  0  0  0  0  0  0  0  0  0  0  0
   -6.8081   -0.8632   25.3962 Br  0  0  0  0  0  0  0  0  0  0  0  0
   -6.6967    5.5622   28.6307 F   0  0  0  0  0  0  0  0  0  0  0  0
  3  4  1  0
  9 13  1  0
 11 19  1  0
  2 20  1  0
  4  8  2  0
  8  9  1  0
  9 10  2  0
 10 11  1  0
 11 12  2  0
 12  4  1  0
 13 14  2  0
 14 15  1  0
 15 16  2  0
 16 17  1  0
 17 18  2  0
 18 13  1  0
  1  2  2  0
  2  5  1  0
  5  6  2  0
  6  7  1  0
  7  3  2  0
  3  1  1  0
M  END
$$$$
