No_3646-complexes_sdf/6BKW-FPZ/2024-09-17-14-21-01/
     RDKit          3D

 21 24  0  0  0  0  0  0  0  0999 V2000
   -7.9040    3.9820   27.1177 C   0  0  0  0  0  0  0  0  0  0  0  0
   -8.2057    2.8231   26.8733 C   0  0  0  0  0  0  0  0  0  0  0  0
   -7.4766    1.7477   27.4593 C   0  0  0  0  0  0  0  0  0  0  0  0
   -8.7468    5.1251   26.6967 C   0  0  0  0  0  0  0  0  0  0  0  0
   -9.7234    4.8589   25.8202 C   0  0  0  0  0  0  0  0  0  0  0  0
   -9.9711    3.5858   25.4266 C   0  0  0  0  0  0  0  0  0  0  0  0
   -9.2266    2.4957   25.9600 C   0  0  0  0  0  0  0  0  0  0  0  0
   -7.8394    0.3721   27.3404 C   0  0  0  0  0  0  0  0  0  0  0  0
   -8.9869    0.1878   26.4476 C   0  0  0  0  0  0  0  0  0  0  0  0
   -9.6379    1.1710   25.7653 C   0  0  0  0  0  0  0  0  0  0  0  0
   -8.3917    6.5365   27.0771 C   0  0  0  0  0  0  0  0  0  0  0  0
   -8.0485    6.7529   28.2480 O   0  0  0  0  0  0  0  0  0  0  0  0
   -8.6382    7.5037   26.2840 O   0  0  0  0  0  0  0  0  0  0  0  0
   -7.1496   -0.6580   28.0058 C   0  0  0  0  0  0  0  0  0  0  0  0
   -5.8424   -0.4836   28.4229 C   0  0  0  0  0  0  0  0  0  0  0  0
   -5.1520   -1.4902   29.1877 C   0  0  0  0  0  0  0  0  0  0  0  0
   -3.8402   -1.1891   29.6952 C   0  0  0  0  0  0  0  0  0  0  0  0
   -3.2418    0.0401   29.3531 C   0  0  0  0  0  0  0  0  0  0  0  0
   -3.9510    0.9966   28.6234 C   0  0  0  0  0  0  0  0  0  0  0  0
   -5.1592    0.7625   28.1984 C   0  0  0  0  0  0  0  0  0  0  0  0
   -5.9818    1.8109   27.6430 N   0  0  0  0  0  0  0  0  0  0  0  0
  2  3  1  0
  8  9  1  0
  7 10  1  0
  9 10  1  0
  4 11  1  0
 11 12  1  0
 11 13  2  0
 15 16  1  0
 16 17  2  0
 17 18  1  0
 18 19  2  0
 19 20  1  0
  3  8  2  0
  8 14  1  0
 14 15  2  0
 15 20  1  0
 20 21  2  0
 21  3  1  0
  1  2  2  0
  2  7  1  0
  7  6  2  0
  6  5  1  0
  5  4  2  0
  4  1  1  0
M  END
$$$$
