No_3063-complexes_sdf/6BKW-FPZ/2024-09-17-14-21-01/
     RDKit          3D

 23 26  0  0  0  0  0  0  0  0999 V2000
   -7.2496    3.8871   27.4508 C   0  0  0  0  0  0  0  0  0  0  0  0
   -7.9379    4.9063   27.8518 C   0  0  0  0  0  0  0  0  0  0  0  0
   -7.5112    6.1898   27.6280 C   0  0  0  0  0  0  0  0  0  0  0  0
   -7.8078    2.6331   27.2522 C   0  0  2  0  0  0  0  0  0  0  0  0
   -7.1538    1.5087   26.7509 C   0  0  0  0  0  0  0  0  0  0  0  0
   -9.2627    2.5305   27.2363 C   0  0  0  0  0  0  0  0  0  0  0  0
   -9.9238    2.9139   26.5039 C   0  0  0  0  0  0  0  0  0  0  0  0
   -9.6543    2.1691   25.2018 C   0  0  1  0  0  0  0  0  0  0  0  0
  -10.4327    2.7032   24.0985 C   0  0  0  0  0  0  0  0  0  0  0  0
   -7.5229    0.8176   25.6031 C   0  0  0  0  0  0  0  0  0  0  0  0
   -8.5270    1.4087   24.8249 C   0  0  0  0  0  0  0  0  0  0  0  0
  -10.4417    2.0899   22.9053 C   0  0  0  0  0  0  0  0  0  0  0  0
  -11.2403    2.5456   21.8382 C   0  0  0  0  0  0  0  0  0  0  0  0
  -12.0467    3.6920   22.0584 C   0  0  0  0  0  0  0  0  0  0  0  0
  -11.3207    3.8011   24.1472 C   0  0  0  0  0  0  0  0  0  0  0  0
  -12.0487    4.3153   23.1849 C   0  0  0  0  0  0  0  0  0  0  0  0
   -8.2761    7.2808   27.0824 C   0  0  0  0  0  0  0  0  0  0  0  0
   -9.6145    6.9754   26.6549 C   0  0  0  0  0  0  0  0  0  0  0  0
  -10.1358    5.7307   27.1038 C   0  0  0  0  0  0  0  0  0  0  0  0
   -9.4143    4.7633   27.7160 C   0  0  0  0  0  0  0  0  0  0  0  0
   -9.8405    3.4480   27.1741 C   0  0  1  0  0  0  0  0  0  0  0  0
  -11.2944    3.4377   28.1230 C   0  0  0  0  0  0  0  0  0  0  0  0
   -9.5797    1.2996   28.1299 C   0  0  0  0  0  0  0  0  0  0  0  0
  1  2  1  0
  4  1  1  6
  4  5  1  0
  4  6  1  0
  6  7  2  0
  7  8  1  0
  5 10  1  0
  8 11  1  0
 10 11  2  0
  7 21  1  0
 20 21  1  0
 21 22  1  6
  6 23  1  0
  8  9  1  6
  2  3  2  0
  3 17  1  0
 17 18  2  0
 18 19  1  0
 19 20  2  0
 20  2  1  0
  9 12  2  0
 12 13  1  0
 13 14  2  0
 14 16  1  0
 16 15  2  0
 15  9  1  0
M  END
$$$$
