No_3855-complexes_sdf/6BKW-FPZ/2024-09-17-14-21-01/
     RDKit          3D

 29 32  0  0  0  0  0  0  0  0999 V2000
   -7.9040    3.9820   27.1177 C   0  0  0  0  0  0  0  0  0  0  0  0
   -9.0711    4.3164   27.0630 C   0  0  0  0  0  0  0  0  0  0  0  0
   -9.8698    3.9665   25.9495 C   0  0  0  0  0  0  0  0  0  0  0  0
   -7.0332    4.5030   28.2025 C   0  0  0  0  0  0  0  0  0  0  0  0
  -10.9909    4.7237   25.5958 C   0  0  0  0  0  0  0  0  0  0  0  0
   -7.5840    5.4918   28.9036 N   0  0  0  0  0  0  0  0  0  0  0  0
  -11.7343    4.2277   24.5327 C   0  0  0  0  0  0  0  0  0  0  0  0
  -11.2813    3.1973   23.7236 C   0  0  0  0  0  0  0  0  0  0  0  0
  -10.1509    2.5537   24.0445 C   0  0  0  0  0  0  0  0  0  0  0  0
   -9.3897    2.9922   25.1578 C   0  0  0  0  0  0  0  0  0  0  0  0
   -9.2854    5.4405   27.9834 C   0  0  0  0  0  0  0  0  0  0  0  0
   -8.5131    5.9375   28.8341 N   0  0  0  0  0  0  0  0  0  0  0  0
   -9.4842    1.3813   23.3487 C   0  0  0  0  0  0  0  0  0  0  0  0
   -8.9000    0.3434   23.9709 C   0  0  0  0  0  0  0  0  0  0  0  0
   -8.8989    0.3469   25.3764 C   0  0  0  0  0  0  0  0  0  0  0  0
   -8.9027    1.7443   26.0066 C   0  0  0  0  0  0  0  0  0  0  0  0
   -5.7751    4.0320   28.3139 N   0  0  0  0  0  0  0  0  0  0  0  0
  -11.9322    2.8992   22.4583 C   0  0  0  0  0  0  0  0  0  0  0  0
  -11.5704    3.5646   21.3756 C   0  0  0  0  0  0  0  0  0  0  0  0
  -12.9321    1.9577   22.3977 C   0  0  0  0  0  0  0  0  0  0  0  0
  -13.3837    1.4553   21.3266 C   0  0  0  0  0  0  0  0  0  0  0  0
  -13.1157    2.1857   20.0846 C   0  0  0  0  0  0  0  0  0  0  0  0
  -12.0943    3.2082   20.1092 C   0  0  0  0  0  0  0  0  0  0  0  0
  -14.4345    0.4537   21.1457 C   0  0  0  0  0  0  0  0  0  0  0  0
  -15.2190    0.2111   22.0634 N   0  0  0  0  0  0  0  0  0  0  0  0
  -15.2556    0.6561   23.1623 C   0  0  0  0  0  0  0  0  0  0  0  0
  -14.2605    1.4817   23.7370 N   0  0  0  0  0  0  0  0  0  0  0  0
  -12.3907    0.8286   23.0402 F   0  0  0  0  0  0  0  0  0  0  0  0
  -13.9633    1.9795   24.8116 C   0  0  0  0  0  0  0  0  0  0  0  0
  4 17  1  0
  8 18  1  0
 21 24  1  0
 24 25  1  0
 25 26  2  0
 26 27  2  0
 20 28  1  0
 27 29  1  0
  3  2  1  0
  1  2  2  0
  2 11  1  0
 11 12  2  0
 12  6  1  0
  6  4  2  0
  4  1  1  0
 10 16  2  0
 16 15  1  0
 15 14  2  0
 14 13  1  0
 13  9  2  0
  3  5  2  0
  5  7  1  0
  7  8  2  0
  8  9  1  0
  9 10  1  0
 10  3  1  0
 18 19  2  0
 19 23  1  0
 23 22  2  0
 22 21  1  0
 21 20  2  0
 20 18  1  0
M  END
$$$$
