No_3168-complexes_sdf/6BKW-FPZ/2024-09-17-14-21-01/
     RDKit          3D

 40 45  0  0  0  0  0  0  0  0999 V2000
   -7.2496    3.8871   27.4508 C   0  0  0  0  0  0  0  0  0  0  0  0
   -8.5096    4.0291   27.2770 C   0  0  0  0  0  0  0  0  0  0  0  0
   -9.2669    5.1645   27.5845 C   0  0  0  0  0  0  0  0  0  0  0  0
   -8.4566    6.3212   27.8001 C   0  0  0  0  0  0  0  0  0  0  0  0
   -6.4921    5.0197   27.7961 C   0  0  0  0  0  0  0  0  0  0  0  0
   -7.1702    6.2351   27.9936 C   0  0  0  0  0  0  0  0  0  0  0  0
   -9.3431    2.7525   27.0047 C   0  0  0  0  0  0  0  0  0  0  0  0
   -8.7107    1.5829   26.9484 C   0  0  0  0  0  0  0  0  0  0  0  0
   -9.4308    0.4794   26.5847 C   0  0  0  0  0  0  0  0  0  0  0  0
   -8.8458   -0.8251   26.5808 C   0  0  0  0  0  0  0  0  0  0  0  0
   -7.4718   -0.8892   26.8525 C   0  0  0  0  0  0  0  0  0  0  0  0
   -6.7071    0.1918   27.1190 C   0  0  0  0  0  0  0  0  0  0  0  0
   -7.2937    1.5588   27.2773 C   0  0  0  0  0  0  0  0  0  0  0  0
   -6.5795    2.6389   27.5099 N   0  0  0  0  0  0  0  0  0  0  0  0
  -10.7618    2.9045   26.8633 C   0  0  0  0  0  0  0  0  0  0  0  0
  -11.5288    2.4949   27.9209 C   0  0  0  0  0  0  0  0  0  0  0  0
  -12.5421    3.2037   28.4297 C   0  0  0  0  0  0  0  0  0  0  0  0
  -13.3226    2.7569   29.6044 C   0  0  0  0  0  0  0  0  0  0  0  0
  -13.2907    1.3961   29.8637 C   0  0  0  0  0  0  0  0  0  0  0  0
  -12.4111    0.5496   29.2144 C   0  0  0  0  0  0  0  0  0  0  0  0
  -11.5414    1.0502   28.2862 C   0  0  0  0  0  0  0  0  0  0  0  0
  -14.4470    3.8034   30.3872 Cl  0  0  0  0  0  0  0  0  0  0  0  0
   -5.2424    0.1158   27.4533 C   0  0  0  0  0  0  0  0  0  0  0  0
   -4.8856   -0.6860   28.5242 C   0  0  0  0  0  0  0  0  0  0  0  0
   -3.8070   -0.2921   29.2215 C   0  0  0  0  0  0  0  0  0  0  0  0
   -2.8394    0.6283   28.6380 C   0  0  0  0  0  0  0  0  0  0  0  0
   -3.1946    1.2385   27.4429 C   0  0  0  0  0  0  0  0  0  0  0  0
   -4.4036    1.0851   26.9422 C   0  0  0  0  0  0  0  0  0  0  0  0
   -3.3687   -1.0354   30.4749 C   0  0  0  0  0  0  0  0  0  0  0  0
   -2.7099   -2.0428   30.5626 C   0  0  0  0  0  0  0  0  0  0  0  0
   -4.1158   -0.4597   31.7215 C   0  0  0  0  0  0  0  0  0  0  0  0
   -3.8130   -0.9673   32.9681 C   0  0  0  0  0  0  0  0  0  0  0  0
   -2.9632   -2.0530   33.0968 C   0  0  0  0  0  0  0  0  0  0  0  0
   -2.3577   -2.5669   31.8859 C   0  0  0  0  0  0  0  0  0  0  0  0
   -9.5845   -1.9967   26.2966 C   0  0  1  0  0  0  0  0  0  0  0  0
   -9.6943   -2.8934   27.2062 C   0  0  0  0  0  0  0  0  0  0  0  0
  -10.4959   -4.0642   27.0825 C   0  0  0  0  0  0  0  0  0  0  0  0
  -10.2597   -2.1326   25.1087 C   0  0  0  0  0  0  0  0  0  0  0  0
  -10.2166   -1.1731   24.0704 C   0  0  0  0  0  0  0  0  0  0  0  0
  -10.9645   -1.3311   22.9061 C   0  0  0  0  0  0  0  0  0  0  0  0
  7 15  1  0
 15 16  1  0
 18 22  1  0
 12 23  1  0
 25 29  1  0
 10 35  1  0
 35 36  1  0
 36 37  2  0
 35 38  1  1
 38 39  1  0
 39 40  2  0
 23 24  2  0
 24 25  1  0
 25 26  2  0
 26 27  1  0
 27 28  2  0
 28 23  1  0
 29 30  2  0
 30 34  1  0
 34 33  2  0
 33 32  1  0
 32 31  2  0
 31 29  1  0
  2  7  1  0
  7  8  2  0
 13 14  2  0
 14  1  1  0
  1  2  1  0
  2  3  2  0
  3  4  1  0
  4  6  2  0
  6  5  1  0
  5  1  2  0
  8  9  1  0
  9 10  2  0
 10 11  1  0
 11 12  2  0
 12 13  1  0
 13  8  1  0
 16 17  2  0
 17 18  1  0
 18 19  2  0
 19 20  1  0
 20 21  2  0
 21 16  1  0
M  END
$$$$
