No_3143-complexes_sdf/6BKW-FPZ/2024-09-17-14-21-01/
     RDKit          3D

 21 23  0  0  0  0  0  0  0  0999 V2000
   -7.9040    3.9820   27.1177 C   0  0  0  0  0  0  0  0  0  0  0  0
   -7.8663    4.8694   27.9238 C   0  0  0  0  0  0  0  0  0  0  0  0
   -9.0501    3.8017   26.2617 C   0  0  0  0  0  0  0  0  0  0  0  0
   -9.1826    2.7026   25.3575 C   0  0  0  0  0  0  0  0  0  0  0  0
   -8.6940    6.0131   27.8614 C   0  0  0  0  0  0  0  0  0  0  0  0
   -9.9755    4.8547   26.2361 C   0  0  0  0  0  0  0  0  0  0  0  0
   -9.7463    5.9398   27.0364 C   0  0  0  0  0  0  0  0  0  0  0  0
   -8.6982    1.5568   25.7278 N   0  0  0  0  0  0  0  0  0  0  0  0
   -8.5665    0.5033   24.9091 C   0  0  0  0  0  0  0  0  0  0  0  0
   -9.7261    2.8539   24.2600 O   0  0  0  0  0  0  0  0  0  0  0  0
   -9.1370    0.2908   23.9556 C   0  0  0  0  0  0  0  0  0  0  0  0
   -7.5088   -0.4135   25.3845 C   0  0  0  0  0  0  0  0  0  0  0  0
   -7.0267   -1.4284   24.5515 C   0  0  0  0  0  0  0  0  0  0  0  0
   -8.8125   -0.7992   22.9863 C   0  0  0  0  0  0  0  0  0  0  0  0
   -7.7736   -1.6388   23.3231 C   0  0  0  0  0  0  0  0  0  0  0  0
   -7.4172   -2.7778   22.4501 C   0  0  0  0  0  0  0  0  0  0  0  0
   -6.2051   -3.0317   22.2334 C   0  0  0  0  0  0  0  0  0  0  0  0
   -5.8465   -4.1204   21.3683 C   0  0  0  0  0  0  0  0  0  0  0  0
   -6.8422   -4.7711   20.6854 C   0  0  0  0  0  0  0  0  0  0  0  0
   -8.3450   -3.4283   21.6807 C   0  0  0  0  0  0  0  0  0  0  0  0
   -8.1019   -4.3775   20.8260 C   0  0  0  0  0  0  0  0  0  0  0  0
  3  4  1  0
  4  8  1  0
  8  9  1  0
  4 10  2  0
 15 16  1  0
  9 11  2  0
 11 14  1  0
 14 15  2  0
 15 13  1  0
 13 12  2  0
 12  9  1  0
  1  2  2  0
  2  5  1  0
  5  7  2  0
  7  6  1  0
  6  3  2  0
  3  1  1  0
 16 17  2  0
 17 18  1  0
 18 19  2  0
 19 21  1  0
 21 20  2  0
 20 16  1  0
M  END
$$$$
