No_3226-complexes_sdf/6BKW-FPZ/2024-09-17-14-21-01/
     RDKit          3D

 18 19  0  0  0  0  0  0  0  0999 V2000
   -7.7129    4.2099   27.0854 C   0  0  0  0  0  0  0  0  0  0  0  0
   -8.9133    4.4736   27.0998 C   0  0  0  0  0  0  0  0  0  0  0  0
   -9.7937    3.7368   26.2091 C   0  0  0  0  0  0  0  0  0  0  0  0
   -7.2496    2.8647   26.8496 C   0  0  0  0  0  0  0  0  0  0  0  0
   -8.1891    1.9790   26.3454 C   0  0  0  0  0  0  0  0  0  0  0  0
   -9.4252    2.4603   26.0121 C   0  0  0  0  0  0  0  0  0  0  0  0
   -9.3705    6.1884   27.2897 Cl  0  0  0  0  0  0  0  0  0  0  0  0
   -7.7558    0.6038   26.1320 C   0  0  0  0  0  0  0  0  0  0  0  0
   -6.7955    0.1295   26.7348 O   0  0  0  0  0  0  0  0  0  0  0  0
   -8.4074   -0.1284   25.2820 O   0  0  0  0  0  0  0  0  0  0  0  0
   -6.8450    4.9347   27.9302 O   0  0  0  0  0  0  0  0  0  0  0  0
   -7.9131   -1.2079   24.7615 C   0  0  0  0  0  0  0  0  0  0  0  0
   -7.3989   -2.0322   25.3134 C   0  0  0  0  0  0  0  0  0  0  0  0
   -6.4466   -2.8850   24.5961 C   0  0  0  0  0  0  0  0  0  0  0  0
   -6.1466   -2.6846   23.5351 C   0  0  0  0  0  0  0  0  0  0  0  0
   -6.6409   -1.5988   22.6898 C   0  0  0  0  0  0  0  0  0  0  0  0
   -7.2386   -0.5801   23.4880 C   0  0  0  0  0  0  0  0  0  0  0  0
   -7.7226    0.4824   22.8207 O   0  0  0  0  0  0  0  0  0  0  0  0
  2  7  1  0
  5  8  1  0
  8  9  2  0
  8 10  1  0
  1 11  1  0
 10 12  1  0
 17 18  1  0
 12 13  2  0
 13 14  1  0
 14 15  2  0
 15 16  1  0
 16 17  2  0
 17 12  1  0
  1  2  2  0
  2  3  1  0
  3  6  2  0
  6  5  1  0
  5  4  2  0
  4  1  1  0
M  END
$$$$
