No_3788-complexes_sdf/6BKW-FPZ/2024-09-17-14-21-01/
     RDKit          3D

 32 35  0  0  0  0  0  0  0  0999 V2000
   -7.7129    4.2099   27.0854 C   0  0  0  0  0  0  0  0  0  0  0  0
   -8.2112    3.0637   26.9225 C   0  0  0  0  0  0  0  0  0  0  0  0
   -8.4224    5.2106   27.8516 C   0  0  0  0  0  0  0  0  0  0  0  0
   -9.5628    2.7160   27.4089 C   0  0  0  0  0  0  0  0  0  0  0  0
  -10.2639    3.7034   28.1156 C   0  0  0  0  0  0  0  0  0  0  0  0
   -9.7059    4.9514   28.3169 C   0  0  0  0  0  0  0  0  0  0  0  0
  -11.6210    3.4159   28.6340 C   0  0  0  0  0  0  0  0  0  0  0  0
  -12.5458    4.3000   28.8434 C   0  0  0  0  0  0  0  0  0  0  0  0
  -11.8359    2.0225   29.0458 C   0  0  0  0  0  0  0  0  0  0  0  0
  -13.1467    1.6303   29.3224 C   0  0  0  0  0  0  0  0  0  0  0  0
  -13.8485    3.9815   29.2242 C   0  0  0  0  0  0  0  0  0  0  0  0
  -14.1005    2.6409   29.5279 C   0  0  0  0  0  0  0  0  0  0  0  0
   -7.5388    2.0596   26.3313 O   0  0  0  0  0  0  0  0  0  0  0  0
   -8.2307    0.9668   25.9239 C   0  0  0  0  0  0  0  0  0  0  0  0
   -7.8109   -0.2133   26.5469 C   0  0  0  0  0  0  0  0  0  0  0  0
   -6.7113   -0.2012   27.3114 C   0  0  0  0  0  0  0  0  0  0  0  0
   -6.2287   -1.3188   28.0849 C   0  0  0  0  0  0  0  0  0  0  0  0
   -5.1195   -1.2110   28.9815 C   0  0  0  0  0  0  0  0  0  0  0  0
   -4.3893    0.0466   29.0415 C   0  0  0  0  0  0  0  0  0  0  0  0
   -3.2508    0.3179   29.8507 C   0  0  0  0  0  0  0  0  0  0  0  0
   -4.8801    1.1675   28.2526 C   0  0  0  0  0  0  0  0  0  0  0  0
   -5.9239    0.9962   27.5327 C   0  0  0  0  0  0  0  0  0  0  0  0
   -8.8757    0.9394   24.7055 C   0  0  0  0  0  0  0  0  0  0  0  0
   -8.9579    0.0492   23.8830 C   0  0  0  0  0  0  0  0  0  0  0  0
   -9.6967    0.1310   22.6333 C   0  0  0  0  0  0  0  0  0  0  0  0
  -10.2789    1.3696   22.3113 C   0  0  0  0  0  0  0  0  0  0  0  0
  -10.2019    2.4119   23.2103 C   0  0  0  0  0  0  0  0  0  0  0  0
   -9.5211    2.2777   24.3978 C   0  0  0  0  0  0  0  0  0  0  0  0
   -2.2476   -0.8452   29.8400 C   0  0  0  0  0  0  0  0  0  0  0  0
   -2.9611   -1.8740   29.4206 F   0  0  0  0  0  0  0  0  0  0  0  0
   -1.1457   -0.5513   29.2894 F   0  0  0  0  0  0  0  0  0  0  0  0
   -1.9429   -0.9706   31.1632 F   0  0  0  0  0  0  0  0  0  0  0  0
  5  7  1  0
  2 13  1  0
 13 14  1  0
 14 15  2  3
 15 16  1  0
 19 20  1  0
 14 23  1  0
 20 29  1  0
 29 30  1  0
 29 31  1  0
 29 32  1  0
  1  2  2  0
  2  4  1  0
  4  5  2  0
  5  6  1  0
  6  3  2  0
  3  1  1  0
  7  8  2  0
  8 11  1  0
 11 12  2  0
 12 10  1  0
 10  9  2  0
  9  7  1  0
 16 17  2  0
 17 18  1  0
 18 19  2  0
 19 21  1  0
 21 22  2  0
 22 16  1  0
 23 24  2  0
 24 25  1  0
 25 26  2  0
 26 27  1  0
 27 28  2  0
 28 23  1  0
M  END
$$$$
