No_3201-complexes_sdf/6BKW-FPZ/2024-09-17-14-21-01/
     RDKit          3D

 37 39  0  0  0  0  0  0  0  0999 V2000
   -7.9040    3.9820   27.1177 C   0  0  0  0  0  0  0  0  0  0  0  0
   -8.2057    2.8231   26.8733 C   0  0  0  0  0  0  0  0  0  0  0  0
   -9.2962    2.4021   26.1155 C   0  0  0  0  0  0  0  0  0  0  0  0
   -8.7358    5.0662   26.5917 C   0  0  0  0  0  0  0  0  0  0  0  0
   -9.7618    4.7023   25.7546 C   0  0  0  0  0  0  0  0  0  0  0  0
  -10.0066    3.4105   25.4922 C   0  0  0  0  0  0  0  0  0  0  0  0
   -8.3943    6.4761   26.8801 C   0  0  2  0  0  0  0  0  0  0  0  0
   -7.9302    6.9813   28.4834 Br  0  0  0  0  0  0  0  0  0  0  0  0
   -9.5211    0.9597   25.8426 C   0  0  0  0  0  0  0  0  0  0  0  0
   -9.6868    0.5343   24.8055 C   0  0  0  0  0  0  0  0  0  0  0  0
   -9.9266   -0.8976   24.5315 C   0  0  0  0  0  0  0  0  0  0  0  0
   -9.8800   -1.7342   25.6139 C   0  0  0  0  0  0  0  0  0  0  0  0
   -9.4181   -0.0457   26.9428 C   0  0  0  0  0  0  0  0  0  0  0  0
   -9.6506   -1.2705   26.8876 C   0  0  0  0  0  0  0  0  0  0  0  0
   -8.5927    7.5225   25.9262 C   0  0  0  0  0  0  0  0  0  0  0  0
  -10.1776   -3.1996   25.3728 C   0  0  0  0  0  0  0  0  0  0  0  0
   -9.9829   -4.0308   26.2463 N   0  0  0  0  0  0  0  0  0  0  0  0
  -10.6083   -3.6139   24.2594 O   0  0  0  0  0  0  0  0  0  0  0  0
  -10.2092   -5.4555   26.1630 C   0  0  0  0  0  0  0  0  0  0  0  0
  -10.2142   -6.0938   27.2048 C   0  0  0  0  0  0  0  0  0  0  0  0
  -10.4492   -7.4382   27.2998 C   0  0  0  0  0  0  0  0  0  0  0  0
  -10.6813   -8.0900   26.0289 C   0  0  0  0  0  0  0  0  0  0  0  0
  -10.6788   -7.3492   24.8856 C   0  0  0  0  0  0  0  0  0  0  0  0
  -10.4410   -6.0029   24.9192 C   0  0  0  0  0  0  0  0  0  0  0  0
  -10.9357   -9.5165   25.9899 C   0  0  0  0  0  0  0  0  0  0  0  0
  -10.9015  -10.0970   27.0574 F   0  0  0  0  0  0  0  0  0  0  0  0
  -10.0292  -10.0968   25.1371 F   0  0  0  0  0  0  0  0  0  0  0  0
  -12.0687   -9.5764   25.0945 F   0  0  0  0  0  0  0  0  0  0  0  0
   -7.2241    1.9605   27.5291 O   0  0  0  0  0  0  0  0  0  0  0  0
   -5.9452    1.8420   27.0284 C   0  0  0  0  0  0  0  0  0  0  0  0
   -5.0801    1.7464   28.2184 C   0  0  0  0  0  0  0  0  0  0  0  0
   -3.9612    0.7469   28.0030 C   0  0  1  0  0  0  0  0  0  0  0  0
   -3.5526    0.5042   26.7842 C   0  0  0  0  0  0  0  0  0  0  0  0
   -3.1461   -0.9397   26.6561 C   0  0  0  0  0  0  0  0  0  0  0  0
   -3.4418   -1.6055   27.5460 O   0  0  0  0  0  0  0  0  0  0  0  0
   -2.9353    1.0711   29.1216 O   0  0  0  0  0  0  0  0  0  0  0  0
   -2.5544   -1.2717   25.5513 O   0  0  0  0  0  0  0  0  0  0  0  0
  4  7  1  0
  7  8  1  0
  3  9  1  0
  7 15  1  1
 12 16  1  0
 16 17  1  0
 16 18  2  0
 17 19  1  0
 22 25  1  0
 25 26  1  0
 25 27  1  0
 25 28  1  0
  2 29  1  0
 29 30  1  0
 30 31  1  0
 31 32  1  0
 32 33  1  0
 33 34  1  0
 34 35  2  0
 32 36  1  1
 34 37  1  0
  1  2  2  0
  2  3  1  0
  3  6  2  0
  6  5  1  0
  5  4  2  0
  4  1  1  0
 19 20  2  0
 20 21  1  0
 21 22  2  0
 22 23  1  0
 23 24  2  0
 24 19  1  0
  9 10  2  0
 10 11  1  0
 11 12  2  0
 12 14  1  0
 14 13  2  0
 13  9  1  0
M  END
$$$$
