No_3860-complexes_sdf/6BKW-FPZ/2024-09-17-14-21-01/
     RDKit          3D

  9  9  0  0  0  0  0  0  0  0999 V2000
   -7.7129    4.2099   27.0854 C   0  0  0  0  0  0  0  0  0  0  0  0
   -8.2112    3.0637   26.9225 C   0  0  0  0  0  0  0  0  0  0  0  0
   -8.4224    5.2106   27.8516 C   0  0  0  0  0  0  0  0  0  0  0  0
   -7.4917    1.9381   26.3986 C   0  0  0  0  0  0  0  0  0  0  0  0
   -7.9130    6.5729   27.8420 C   0  0  0  0  0  0  0  0  0  0  0  0
   -9.6536    2.7665   27.1018 C   0  0  0  0  0  0  0  0  0  0  0  0
   -9.9240    1.5841   27.7695 C   0  0  0  0  0  0  0  0  0  0  0  0
   -7.9163    0.6453   26.6723 C   0  0  0  0  0  0  0  0  0  0  0  0
   -9.1610    0.4761   27.2890 C   0  0  0  0  0  0  0  0  0  0  0  0
  1  2  1  0
  1  3  2  3
  3  5  1  0
  2  4  2  0
  4  8  1  0
  8  9  2  0
  9  7  1  0
  7  6  2  0
  6  2  1  0
M  END
$$$$
