No_3560-complexes_sdf/6BKW-FPZ/2024-09-17-14-21-01/
     RDKit          3D

  9  9  0  0  0  0  0  0  0  0999 V2000
   -7.2496    3.8871   27.4508 C   0  0  0  0  0  0  0  0  0  0  0  0
   -7.9379    4.9063   27.8518 C   0  0  0  0  0  0  0  0  0  0  0  0
   -8.7729    5.5444   27.0168 C   0  0  0  0  0  0  0  0  0  0  0  0
   -7.7708    3.0049   26.4155 C   0  0  0  0  0  0  0  0  0  0  0  0
   -9.4150    4.8195   25.9760 C   0  0  0  0  0  0  0  0  0  0  0  0
   -8.8843    3.5312   25.7385 C   0  0  0  0  0  0  0  0  0  0  0  0
   -9.4722    2.7950   24.6213 C   0  0  0  0  0  0  0  0  0  0  0  0
  -10.3937    3.4114   23.8461 N   0  0  0  0  0  0  0  0  0  0  0  0
  -10.9679    2.7302   22.8478 C   0  0  0  0  0  0  0  0  0  0  0  0
  6  7  1  0
  7  8  2  3
  8  9  1  0
  1  2  2  0
  2  3  1  0
  3  5  2  0
  5  6  1  0
  6  4  2  0
  4  1  1  0
M  END
$$$$
