No_3480-complexes_sdf/6BKW-FPZ/2024-09-17-14-21-01/
     RDKit          3D

 14 15  0  0  0  0  0  0  0  0999 V2000
   -7.2496    3.8871   27.4508 C   0  0  0  0  0  0  0  0  0  0  0  0
   -7.6161    2.7143   27.1523 C   0  0  0  0  0  0  0  0  0  0  0  0
   -8.8302    2.4659   26.5056 C   0  0  0  0  0  0  0  0  0  0  0  0
   -8.1584    5.0090   27.3234 C   0  0  0  0  0  0  0  0  0  0  0  0
   -9.3788    4.7965   26.7695 C   0  0  0  0  0  0  0  0  0  0  0  0
   -9.7028    3.5649   26.3276 C   0  0  0  0  0  0  0  0  0  0  0  0
   -6.7792    1.6348   27.3517 N   0  0  0  0  0  0  0  0  0  0  0  0
   -7.0195    0.3499   27.0368 C   0  0  0  0  0  0  0  0  0  0  0  0
   -8.2490    0.0905   26.5349 C   0  0  0  0  0  0  0  0  0  0  0  0
   -9.1744    1.1226   26.2114 C   0  0  0  0  0  0  0  0  0  0  0  0
   -7.7031    6.3601   27.8232 C   0  0  0  0  0  0  0  0  0  0  0  0
  -10.9609    3.4029   25.5719 C   0  0  0  0  0  0  0  0  0  0  0  0
  -11.0004    3.6790   24.2345 C   0  0  0  0  0  0  0  0  0  0  0  0
  -12.1873    3.5992   23.4909 C   0  0  0  0  0  0  0  0  0  0  0  0
  4 11  1  0
  6 12  1  0
 12 13  2  3
 13 14  1  0
  1  2  2  0
  3  6  2  0
  6  5  1  0
  5  4  2  0
  4  1  1  0
  2  3  1  0
  3 10  1  0
 10  9  2  0
  9  8  1  0
  8  7  2  0
  7  2  1  0
M  END
$$$$
