No_3057-complexes_sdf/6BKW-FPZ/2024-09-17-14-21-01/
     RDKit          3D

 40 42  0  0  0  0  0  0  0  0999 V2000
   -7.7129    4.2099   27.0854 C   0  0  0  0  0  0  0  0  0  0  0  0
   -8.2112    3.0637   26.9225 C   0  0  0  0  0  0  0  0  0  0  0  0
   -9.4446    2.8304   26.1868 C   0  0  0  0  0  0  0  0  0  0  0  0
   -8.4697    5.3956   26.7238 C   0  0  0  0  0  0  0  0  0  0  0  0
   -9.6172    5.2111   25.9513 C   0  0  0  0  0  0  0  0  0  0  0  0
  -10.0424    3.9782   25.6873 C   0  0  0  0  0  0  0  0  0  0  0  0
   -7.9392    6.6271   26.9728 N   0  0  0  0  0  0  0  0  0  0  0  0
   -8.4973    7.7978   26.5547 C   0  0  0  0  0  0  0  0  0  0  0  0
   -7.4933    1.8052   27.3779 C   0  0  0  0  0  0  0  0  0  0  0  0
   -6.8249    0.9980   26.5740 C   0  0  0  0  0  0  0  0  0  0  0  0
   -5.9735    0.0477   27.1941 C   0  0  0  0  0  0  0  0  0  0  0  0
   -5.0194    0.5246   28.0735 C   0  0  0  0  0  0  0  0  0  0  0  0
   -4.1679   -0.3939   28.7749 C   0  0  0  0  0  0  0  0  0  0  0  0
   -3.4375    0.0789   29.8941 C   0  0  0  0  0  0  0  0  0  0  0  0
   -3.4300   -0.6868   31.0535 C   0  0  0  0  0  0  0  0  0  0  0  0
   -3.0990    0.0156   32.2310 C   0  0  0  0  0  0  0  0  0  0  0  0
   -3.0214   -0.7439   33.4386 C   0  0  0  0  0  0  0  0  0  0  0  0
   -3.5004   -2.0130   33.4929 C   0  0  0  0  0  0  0  0  0  0  0  0
   -3.9698   -2.6036   32.3376 C   0  0  0  0  0  0  0  0  0  0  0  0
   -3.9435   -1.9422   31.1360 C   0  0  0  0  0  0  0  0  0  0  0  0
   -5.2748   -1.0610   26.5361 C   0  0  0  0  0  0  0  0  0  0  0  0
   -4.4740   -1.9949   27.0861 C   0  0  0  0  0  0  0  0  0  0  0  0
   -3.7920   -1.6001   28.2107 C   0  0  0  0  0  0  0  0  0  0  0  0
   -2.5429   -0.1067   34.5955 O   0  0  0  0  0  0  0  0  0  0  0  0
   -1.2650   -0.5139   35.1096 C   0  0  2  0  0  0  0  0  0  0  0  0
   -1.3104   -0.2733   36.5318 C   0  0  2  0  0  0  0  0  0  0  0  0
   -2.2619    0.1603   37.0464 O   0  0  0  0  0  0  0  0  0  0  0  0
   -0.2061   -0.4510   37.1303 F   0  0  0  0  0  0  0  0  0  0  0  0
   -2.2521    1.1311   38.1135 C   0  0  0  0  0  0  0  0  0  0  0  0
   -3.3900    0.9011   39.1054 C   0  0  0  0  0  0  0  0  0  0  0  0
   -3.1398    0.2966   39.8706 F   0  0  0  0  0  0  0  0  0  0  0  0
   -3.6858    2.2538   39.5198 F   0  0  0  0  0  0  0  0  0  0  0  0
   -4.5239    0.6149   38.3692 F   0  0  0  0  0  0  0  0  0  0  0  0
   -1.4714   -1.2463   36.9621 O   0  0  0  0  0  0  0  0  0  0  0  0
   -0.8807   -2.5106   37.4365 P   0  0  0  0  0  0  0  0  0  0  0  0
    0.0668   -3.0305   36.9758 O   0  0  0  0  0  0  0  0  0  0  0  0
   -2.2514   -3.5530   37.1762 O   0  0  0  0  0  0  0  0  0  0  0  0
   -1.0053   -2.4700   39.0731 O   0  0  0  0  0  0  0  0  0  0  0  0
   -0.1867    0.2523   34.4445 C   0  0  0  0  0  0  0  0  0  0  0  0
    0.9384   -0.5952   34.0139 O   0  0  0  0  0  0  0  0  0  0  0  0
  4  7  1  0
  7  8  1  0
  2  9  1  0
  9 10  1  0
 10 11  1  0
 13 14  1  0
 14 15  1  0
 17 24  1  0
 24 25  1  0
 25 26  1  0
 26 27  1  0
 26 28  1  1
 27 29  1  0
 29 30  1  0
 30 31  1  0
 30 32  1  0
 30 33  1  0
 26 34  1  0
 34 35  1  0
 35 36  2  0
 35 37  1  0
 35 38  1  0
 25 39  1  6
 39 40  1  0
 11 12  2  0
 12 13  1  0
 13 23  2  0
 23 22  1  0
 22 21  2  0
 21 11  1  0
  1  2  2  0
  2  3  1  0
  3  6  2  0
  6  5  1  0
  5  4  2  0
  4  1  1  0
 15 16  2  0
 16 17  1  0
 17 18  2  0
 18 19  1  0
 19 20  2  0
 20 15  1  0
M  END
$$$$
