No_382-complexes_sdf/6BKW-FPZ/2024-09-17-14-21-01/
     RDKit          3D

 24 26  0  0  0  0  0  0  0  0999 V2000
   -7.9040    3.9820   27.1177 C   0  0  0  0  0  0  0  0  0  0  0  0
   -8.2057    2.8231   26.8733 C   0  0  0  0  0  0  0  0  0  0  0  0
   -7.4766    1.7477   27.4593 C   0  0  0  0  0  0  0  0  0  0  0  0
   -8.7468    5.1251   26.6967 C   0  0  0  0  0  0  0  0  0  0  0  0
   -9.7234    4.8589   25.8202 C   0  0  0  0  0  0  0  0  0  0  0  0
   -9.9711    3.5858   25.4266 C   0  0  0  0  0  0  0  0  0  0  0  0
   -9.2266    2.4957   25.9600 C   0  0  0  0  0  0  0  0  0  0  0  0
   -6.1241    1.9216   27.8574 C   0  0  0  0  0  0  0  0  0  0  0  0
   -5.2640    0.7757   28.0398 C   0  0  0  0  0  0  0  0  0  0  0  0
   -5.8084   -0.4565   28.0178 C   0  0  0  0  0  0  0  0  0  0  0  0
   -7.8255    0.3686   27.2831 C   0  0  0  0  0  0  0  0  0  0  0  0
   -7.1096   -0.6465   27.6777 C   0  0  0  0  0  0  0  0  0  0  0  0
   -8.2227    6.4591   27.1767 C   0  0  1  0  0  0  0  0  0  0  0  0
   -7.1562    6.5994   27.5489 F   0  0  0  0  0  0  0  0  0  0  0  0
   -9.1119    7.5809   26.8971 C   0  0  0  0  0  0  0  0  0  0  0  0
   -3.6653    1.1149   28.6142 Cl  0  0  0  0  0  0  0  0  0  0  0  0
  -11.0212    3.3483   24.4478 C   0  0  0  0  0  0  0  0  0  0  0  0
  -12.3090    3.0469   24.8542 C   0  0  0  0  0  0  0  0  0  0  0  0
  -12.6376    2.6373   25.9050 C   0  0  0  0  0  0  0  0  0  0  0  0
  -13.6021    2.4442   26.5586 C   0  0  0  0  0  0  0  0  0  0  0  0
  -13.9084    3.1989   27.6909 C   0  0  0  0  0  0  0  0  0  0  0  0
  -13.0617    3.6699   28.4167 C   0  0  0  0  0  0  0  0  0  0  0  0
  -11.6703    3.6451   28.0257 C   0  0  0  0  0  0  0  0  0  0  0  0
  -11.4348    3.3330   26.7703 C   0  0  0  0  0  0  0  0  0  0  0  0
  2  3  1  0
  4 13  1  0
 13 14  1  0
 13 15  1  6
  9 16  1  0
  6 17  1  0
 17 18  1  0
 18 19  1  0
  3  8  2  0
  8  9  1  0
  9 10  2  0
 10 12  1  0
 12 11  2  0
 11  3  1  0
  1  2  2  0
  2  7  1  0
  7  6  2  0
  6  5  1  0
  5  4  2  0
  4  1  1  0
 19 20  2  0
 20 21  1  0
 21 22  2  0
 22 23  1  0
 23 24  2  0
 24 19  1  0
M  END
$$$$
