No_3608-complexes_sdf/6BKW-FPZ/2024-09-17-14-21-01/
     RDKit          3D

 14 16  0  0  0  0  0  0  0  0999 V2000
   -7.7129    4.2099   27.0854 C   0  0  0  0  0  0  0  0  0  0  0  0
   -7.7814    5.1722   27.8972 C   0  0  0  0  0  0  0  0  0  0  0  0
   -7.2983    2.9533   27.5684 C   0  0  0  0  0  0  0  0  0  0  0  0
   -7.6908    1.8111   26.9553 C   0  0  0  0  0  0  0  0  0  0  0  0
   -7.2237    0.5782   27.3450 C   0  0  0  0  0  0  0  0  0  0  0  0
   -7.9192   -0.5866   27.0520 C   0  0  0  0  0  0  0  0  0  0  0  0
   -9.0775   -0.4260   26.3041 C   0  0  0  0  0  0  0  0  0  0  0  0
   -9.4968    0.7766   25.7840 C   0  0  0  0  0  0  0  0  0  0  0  0
   -8.8166    1.9413   26.2158 C   0  0  0  0  0  0  0  0  0  0  0  0
   -8.5055    6.3813   27.5566 C   0  0  0  0  0  0  0  0  0  0  0  0
   -9.0151    6.5051   26.1706 C   0  0  0  0  0  0  0  0  0  0  0  0
   -8.6214    4.3961   25.9812 C   0  0  0  0  0  0  0  0  0  0  0  0
   -9.2082    5.5065   25.6027 C   0  0  0  0  0  0  0  0  0  0  0  0
   -9.1884    3.0545   25.4913 C   0  0  0  0  0  0  0  0  0  0  0  0
  1  3  1  0
  3  4  1  0
  9 14  1  0
 12 14  1  0
  1  2  2  0
  2 10  1  0
 10 11  2  0
 11 13  1  0
 13 12  2  0
 12  1  1  0
  4  5  2  0
  5  6  1  0
  6  7  2  0
  7  8  1  0
  8  9  2  0
  9  4  1  0
M  END
$$$$
