No_3989-complexes_sdf/6BKW-FPZ/2024-09-17-14-21-01/
     RDKit          3D

 18 20  0  0  0  0  0  0  0  0999 V2000
   -7.2496    3.8871   27.4508 C   0  0  0  0  0  0  0  0  0  0  0  0
   -7.9379    4.9063   27.8518 C   0  0  0  0  0  0  0  0  0  0  0  0
   -9.3460    4.8223   27.8695 C   0  0  0  0  0  0  0  0  0  0  0  0
   -7.8628    2.6163   27.1065 C   0  0  0  0  0  0  0  0  0  0  0  0
   -9.2787    2.5744   27.1970 C   0  0  0  0  0  0  0  0  0  0  0  0
  -10.0108    3.6770   27.6340 C   0  0  0  0  0  0  0  0  0  0  0  0
  -11.4855    3.5731   27.7420 C   0  0  0  0  0  0  0  0  0  0  0  0
  -11.9299    2.8562   28.8221 C   0  0  0  0  0  0  0  0  0  0  0  0
  -12.9271    2.5327   28.8987 C   0  0  0  0  0  0  0  0  0  0  0  0
  -14.0204    2.9581   28.0886 C   0  0  0  0  0  0  0  0  0  0  0  0
  -13.6397    3.7678   27.0004 C   0  0  0  0  0  0  0  0  0  0  0  0
  -12.2904    4.0956   26.7862 C   0  0  0  0  0  0  0  0  0  0  0  0
   -6.9541    1.2743   26.7430 Cl  0  0  0  0  0  0  0  0  0  0  0  0
   -7.3092    6.0794   28.0864 O   0  0  0  0  0  0  0  0  0  0  0  0
  -15.4647    2.6670   28.2361 C   0  0  0  0  0  0  0  0  0  0  0  0
  -15.8903    1.9893   29.1710 C   0  0  0  0  0  0  0  0  0  0  0  0
  -15.0848    1.7252   30.2166 C   0  0  0  0  0  0  0  0  0  0  0  0
  -13.6531    1.8333   30.2101 C   0  0  0  0  0  0  0  0  0  0  0  0
  6  7  1  0
  4 13  1  0
  2 14  1  0
  1  2  2  0
  2  3  1  0
  3  6  2  0
  6  5  1  0
  5  4  2  0
  4  1  1  0
 10 15  2  0
 15 16  1  0
 16 17  2  0
 17 18  1  0
 18  9  2  0
  7  8  2  0
  8  9  1  0
  9 10  1  0
 10 11  1  0
 11 12  2  0
 12  7  1  0
M  END
$$$$
