No_365-complexes_sdf/6BKW-FPZ/2024-09-17-14-21-01/
     RDKit          3D

 40 44  0  0  0  0  0  0  0  0999 V2000
   -7.7129    4.2099   27.0854 C   0  0  0  0  0  0  0  0  0  0  0  0
   -8.9133    4.4736   27.0998 C   0  0  0  0  0  0  0  0  0  0  0  0
   -9.4616    5.6470   27.6290 C   0  0  0  0  0  0  0  0  0  0  0  0
   -6.8722    5.1130   27.9248 C   0  0  0  0  0  0  0  0  0  0  0  0
   -7.3801    6.2535   28.4126 C   0  0  0  0  0  0  0  0  0  0  0  0
   -8.6734    6.5530   28.2150 C   0  0  0  0  0  0  0  0  0  0  0  0
   -9.8157    3.4887   26.3527 C   0  0  0  0  0  0  0  0  0  0  0  0
   -9.9163    3.5906   24.9383 C   0  0  0  0  0  0  0  0  0  0  0  0
  -10.4747    2.6520   24.1583 C   0  0  0  0  0  0  0  0  0  0  0  0
  -11.0273    1.5401   24.7554 C   0  0  0  0  0  0  0  0  0  0  0  0
  -10.3153    2.3033   26.8335 C   0  0  0  0  0  0  0  0  0  0  0  0
  -10.9638    1.3264   26.1577 C   0  0  0  0  0  0  0  0  0  0  0  0
  -10.5756    2.8634   22.7003 C   0  0  0  0  0  0  0  0  0  0  0  0
  -10.8385    4.1104   22.1851 C   0  0  0  0  0  0  0  0  0  0  0  0
  -10.7894    4.3829   20.8135 C   0  0  0  0  0  0  0  0  0  0  0  0
  -10.3916    3.3153   19.9618 C   0  0  0  0  0  0  0  0  0  0  0  0
  -10.1488    1.9171   21.7576 C   0  0  0  0  0  0  0  0  0  0  0  0
   -9.8287    0.5872   22.2783 C   0  0  0  0  0  0  0  0  0  0  0  0
  -10.0935    2.1280   20.4222 C   0  0  0  0  0  0  0  0  0  0  0  0
  -10.4765   -0.6666   21.8523 C   0  0  0  0  0  0  0  0  0  0  0  0
  -10.0994   -1.8437   22.3133 C   0  0  0  0  0  0  0  0  0  0  0  0
   -9.1205   -1.9663   23.2996 C   0  0  0  0  0  0  0  0  0  0  0  0
   -8.4394   -0.8597   23.7774 C   0  0  0  0  0  0  0  0  0  0  0  0
   -8.7787    0.4071   23.3351 C   0  0  0  0  0  0  0  0  0  0  0  0
   -7.4050   -0.9652   24.8489 C   0  0  0  0  0  0  0  0  0  0  0  0
   -7.3589   -0.0706   25.6769 O   0  0  0  0  0  0  0  0  0  0  0  0
   -6.5754   -1.9565   24.8449 N   0  0  0  0  0  0  0  0  0  0  0  0
   -5.5072   -1.9883   25.7337 C   0  0  0  0  0  0  0  0  0  0  0  0
   -4.7994   -0.9578   25.9683 C   0  0  0  0  0  0  0  0  0  0  0  0
   -3.4570   -1.0736   26.6379 C   0  0  0  0  0  0  0  0  0  0  0  0
   -2.8935    0.1417   27.1795 C   0  0  0  0  0  0  0  0  0  0  0  0
   -3.3643    0.7054   28.1049 C   0  0  0  0  0  0  0  0  0  0  0  0
   -4.5204    0.4524   28.8577 C   0  0  0  0  0  0  0  0  0  0  0  0
   -4.8181   -0.5303   29.2470 C   0  0  0  0  0  0  0  0  0  0  0  0
   -4.8815   -1.5971   29.2360 C   0  0  0  0  0  0  0  0  0  0  0  0
   -5.8058   -2.2187   30.1641 C   0  0  0  0  0  0  0  0  0  0  0  0
   -6.0432   -3.6051   30.2894 C   0  0  0  0  0  0  0  0  0  0  0  0
   -5.2219   -4.3437   29.4083 C   0  0  0  0  0  0  0  0  0  0  0  0
   -4.3386   -3.8579   28.5710 C   0  0  0  0  0  0  0  0  0  0  0  0
   -4.1545   -2.4716   28.5036 C   0  0  0  0  0  0  0  0  0  0  0  0
  2  7  1  0
  9 13  1  0
 17 18  1  0
 23 25  1  0
 25 26  2  0
 25 27  1  0
 27 28  1  0
 28 29  1  0
 29 30  2  3
 30 31  1  0
 31 32  2  3
 32 33  1  0
 33 34  1  0
 34 35  1  0
  1  2  2  0
  2  3  1  0
  3  6  2  0
  6  5  1  0
  5  4  2  0
  4  1  1  0
 18 20  2  0
 20 21  1  0
 21 22  2  0
 22 23  1  0
 23 24  2  0
 24 18  1  0
 35 36  2  0
 36 37  1  0
 37 38  2  0
 38 39  1  0
 39 40  2  0
 40 35  1  0
  7  8  2  0
  8  9  1  0
  9 10  2  0
 10 12  1  0
 12 11  2  0
 11  7  1  0
 13 14  2  0
 14 15  1  0
 15 16  2  0
 16 19  1  0
 19 17  2  0
 17 13  1  0
M  END
$$$$
