No_3698-complexes_sdf/6BKW-FPZ/2024-09-17-14-21-01/
     RDKit          3D

 18 19  0  0  0  0  0  0  0  0999 V2000
   -7.7129    4.2099   27.0854 C   0  0  0  0  0  0  0  0  0  0  0  0
   -8.9133    4.4736   27.0998 C   0  0  0  0  0  0  0  0  0  0  0  0
   -9.4643    5.5426   27.7628 C   0  0  0  0  0  0  0  0  0  0  0  0
   -7.2009    2.9448   26.6134 C   0  0  0  0  0  0  0  0  0  0  0  0
   -8.0533    1.9370   26.8587 C   0  0  0  0  0  0  0  0  0  0  0  0
   -9.4086    2.0889   26.9556 C   0  0  0  0  0  0  0  0  0  0  0  0
   -9.8568    3.3588   26.9690 C   0  0  0  0  0  0  0  0  0  0  0  0
   -7.4909    0.5406   26.5985 C   0  0  0  0  0  0  0  0  0  0  0  0
   -6.4844    0.1957   27.4159 C   0  0  0  0  0  0  0  0  0  0  0  0
   -5.7490    1.0581   28.1283 C   0  0  0  0  0  0  0  0  0  0  0  0
   -4.5399    0.6010   28.9052 C   0  0  0  0  0  0  0  0  0  0  0  0
   -4.2819   -0.7067   29.0847 C   0  0  0  0  0  0  0  0  0  0  0  0
   -5.1641   -1.5969   28.4342 C   0  0  0  0  0  0  0  0  0  0  0  0
   -6.1817   -1.1864   27.6497 C   0  0  0  0  0  0  0  0  0  0  0  0
   -3.1903   -1.1067   29.9645 C   0  0  0  0  0  0  0  0  0  0  0  0
   -2.0852   -1.4367   29.6055 N   0  0  0  0  0  0  0  0  0  0  0  0
   -3.4591   -1.0674   31.4296 C   0  0  0  0  0  0  0  0  0  0  0  0
   -4.1644   -0.1593   32.0098 C   0  0  0  0  0  0  0  0  0  0  0  0
  1  2  1  0
  2  3  2  0
  1  4  1  0
  4  5  1  0
  5  6  1  0
  2  7  1  0
  6  7  1  0
  5  8  1  0
  8  9  1  0
 12 15  1  0
 15 16  1  0
 15 17  1  0
 17 18  1  0
  9 10  2  0
 10 11  1  0
 11 12  2  0
 12 13  1  0
 13 14  2  0
 14  9  1  0
M  END
$$$$
