No_3091-complexes_sdf/6BKW-FPZ/2024-09-17-14-21-01/
     RDKit          3D

 23 26  0  0  0  0  0  0  0  0999 V2000
   -7.9040    3.9820   27.1177 C   0  0  0  0  0  0  0  0  0  0  0  0
   -9.0711    4.3164   27.0630 C   0  0  0  0  0  0  0  0  0  0  0  0
   -9.5294    5.4517   27.7215 C   0  0  0  0  0  0  0  0  0  0  0  0
   -7.4336    2.7132   26.5681 C   0  0  0  0  0  0  0  0  0  0  0  0
   -8.3353    1.8569   26.0442 C   0  0  0  0  0  0  0  0  0  0  0  0
   -9.6477    2.2853   25.9146 C   0  0  1  0  0  0  0  0  0  0  0  0
  -10.0346    3.4497   26.4483 C   0  0  0  0  0  0  0  0  0  0  0  0
   -7.8750    0.5509   25.5918 C   0  0  1  0  0  0  0  0  0  0  0  0
   -8.1587    0.1717   24.4062 N   0  0  0  0  0  0  0  0  0  0  0  0
   -8.8756    0.7223   23.5411 C   0  0  0  0  0  0  0  0  0  0  0  0
   -9.5224    0.1504   22.6227 C   0  0  0  0  0  0  0  0  0  0  0  0
   -7.1303   -0.5643   23.6487 C   0  0  0  0  0  0  0  0  0  0  0  0
   -6.1461   -1.2960   24.4385 C   0  0  0  0  0  0  0  0  0  0  0  0
   -6.0804   -0.8679   25.7214 C   0  0  0  0  0  0  0  0  0  0  0  0
   -6.7715    0.0093   26.3488 C   0  0  0  0  0  0  0  0  0  0  0  0
  -10.3198    0.8524   21.6778 C   0  0  0  0  0  0  0  0  0  0  0  0
  -10.5562    2.2200   21.8606 C   0  0  0  0  0  0  0  0  0  0  0  0
  -10.0081    2.8658   22.9213 C   0  0  0  0  0  0  0  0  0  0  0  0
   -9.1970    2.1733   23.7979 C   0  0  0  0  0  0  0  0  0  0  0  0
  -10.0816    2.1287   24.4851 O   0  0  0  0  0  0  0  0  0  0  0  0
  -10.5236    1.1019   26.6020 C   0  0  0  0  0  0  0  0  0  0  0  0
  -10.0984    0.4662   27.6777 C   0  0  0  0  0  0  0  0  0  0  0  0
  -11.8335    0.8157   26.1200 C   0  0  0  0  0  0  0  0  0  0  0  0
  1  2  1  0
  2  3  2  0
  1  4  1  0
  4  5  1  0
  5  6  1  0
  2  7  1  0
  6  7  1  0
  5  8  1  0
  8  9  1  0
  9 10  1  0
  9 12  1  0
 12 13  1  0
  8 15  1  6
 14 15  1  0
  6 20  1  0
 19 20  1  0
  6 21  1  1
 21 22  2  0
 21 23  1  0
 14 13  1  0
 10 11  2  0
 11 16  1  0
 16 17  2  0
 17 18  1  0
 18 19  2  0
 19 10  1  0
M  END
$$$$
