No_366-complexes_sdf/6BKW-FPZ/2024-09-17-14-21-01/
     RDKit          3D

 32 34  0  0  0  0  0  0  0  0999 V2000
   -7.9040    3.9820   27.1177 C   0  0  0  0  0  0  0  0  0  0  0  0
   -8.2057    2.8231   26.8733 C   0  0  0  0  0  0  0  0  0  0  0  0
   -8.7695    5.0740   26.7916 C   0  0  1  0  0  0  0  0  0  0  0  0
   -8.4337    6.4678   27.0913 C   0  0  0  0  0  0  0  0  0  0  0  0
   -7.3775    1.6806   27.3986 C   0  0  0  0  0  0  0  0  0  0  0  0
   -6.0814    2.1205   27.8112 C   0  0  0  0  0  0  0  0  0  0  0  0
   -5.7220    3.4538   27.9612 C   0  0  0  0  0  0  0  0  0  0  0  0
   -6.5839    4.3786   27.6583 C   0  0  0  0  0  0  0  0  0  0  0  0
   -9.8602    4.8270   25.9201 C   0  0  2  0  0  0  0  0  0  0  0  0
   -5.1528    1.0088   28.2419 C   0  0  0  0  0  0  0  0  0  0  0  0
   -5.4696   -0.1817   28.4339 N   0  0  0  0  0  0  0  0  0  0  0  0
   -6.1431   -0.9254   27.9059 C   0  0  0  0  0  0  0  0  0  0  0  0
   -6.6974   -0.5693   26.8881 F   0  0  0  0  0  0  0  0  0  0  0  0
   -6.5341   -2.0578   28.3732 F   0  0  0  0  0  0  0  0  0  0  0  0
   -7.8499    7.5697   26.6192 C   0  0  0  0  0  0  0  0  0  0  0  0
  -11.1162    4.5793   26.4248 C   0  0  0  0  0  0  0  0  0  0  0  0
  -12.2681    4.1777   25.6927 C   0  0  0  0  0  0  0  0  0  0  0  0
  -13.5254    3.9839   26.3005 C   0  0  0  0  0  0  0  0  0  0  0  0
  -13.6507    4.2267   27.7022 C   0  0  0  0  0  0  0  0  0  0  0  0
  -12.5300    4.5216   28.4702 C   0  0  0  0  0  0  0  0  0  0  0  0
  -11.3220    4.6909   27.9184 C   0  0  0  0  0  0  0  0  0  0  0  0
   -9.6169    4.3361   24.7850 F   0  0  0  0  0  0  0  0  0  0  0  0
  -14.9805    3.9916   28.3117 C   0  0  1  0  0  0  0  0  0  0  0  0
  -15.2092    3.5879   29.3940 N   0  0  0  0  0  0  0  0  0  0  0  0
  -16.2745    3.5234   30.0574 C   0  0  0  0  0  0  0  0  0  0  0  0
  -15.8094    5.2889   28.0988 C   0  0  0  0  0  0  0  0  0  0  0  0
  -14.2120    2.5273   29.9021 C   0  0  0  0  0  0  0  0  0  0  0  0
  -16.5168    2.7818   31.1451 C   0  0  0  0  0  0  0  0  0  0  0  0
  -14.4543    1.7366   31.0214 C   0  0  0  0  0  0  0  0  0  0  0  0
  -15.5783    1.9019   31.7039 C   0  0  0  0  0  0  0  0  0  0  0  0
  -15.5610    6.4625   28.6556 C   0  0  0  0  0  0  0  0  0  0  0  0
  -16.3697    7.5994   28.4174 C   0  0  0  0  0  0  0  0  0  0  0  0
  3  4  1  6
  3  9  1  0
  6 10  1  0
 10 11  1  0
 11 12  2  3
 12 13  1  0
 12 14  1  0
  4 15  2  0
  9 22  1  1
 19 23  1  0
 23 24  1  1
 24 25  1  0
 23 26  1  0
 24 27  1  0
 28 30  1  0
 29 30  1  0
 26 31  2  3
 31 32  1  0
  3  1  1  0
  9 16  1  0
 25 28  1  0
 29 27  1  0
  1  2  2  0
  2  5  1  0
  5  6  2  0
  6  7  1  0
  7  8  2  0
  8  1  1  0
 16 17  2  0
 17 18  1  0
 18 19  2  0
 19 20  1  0
 20 21  2  0
 21 16  1  0
M  END
$$$$
