No_3233-complexes_sdf/6BKW-FPZ/2024-09-17-14-21-01/
     RDKit          3D

 40 45  0  0  0  0  0  0  0  0999 V2000
   -7.9040    3.9820   27.1177 C   0  0  0  0  0  0  0  0  0  0  0  0
   -8.2057    2.8231   26.8733 C   0  0  0  0  0  0  0  0  0  0  0  0
   -7.4766    1.7477   27.4593 C   0  0  0  0  0  0  0  0  0  0  0  0
   -8.7468    5.1251   26.6967 C   0  0  0  0  0  0  0  0  0  0  0  0
   -9.7234    4.8589   25.8202 C   0  0  0  0  0  0  0  0  0  0  0  0
   -9.9711    3.5858   25.4266 C   0  0  0  0  0  0  0  0  0  0  0  0
   -9.2266    2.4957   25.9600 C   0  0  0  0  0  0  0  0  0  0  0  0
   -7.8394    0.3721   27.3404 C   0  0  0  0  0  0  0  0  0  0  0  0
   -8.9869    0.1878   26.4476 C   0  0  0  0  0  0  0  0  0  0  0  0
   -9.6379    1.1710   25.7653 C   0  0  0  0  0  0  0  0  0  0  0  0
   -8.4198    6.4304   27.0462 O   0  0  0  0  0  0  0  0  0  0  0  0
   -8.2277    7.4171   26.1974 C   0  0  0  0  0  0  0  0  0  0  0  0
   -7.1504   -0.6764   27.9764 C   0  0  0  0  0  0  0  0  0  0  0  0
   -5.8562   -0.4951   28.4126 C   0  0  0  0  0  0  0  0  0  0  0  0
   -5.0198    0.5291   27.9366 C   0  0  0  0  0  0  0  0  0  0  0  0
   -3.6492    0.4545   28.4629 C   0  0  0  0  0  0  0  0  0  0  0  0
   -3.2875   -0.3803   29.4469 C   0  0  0  0  0  0  0  0  0  0  0  0
   -4.1520   -1.3085   29.9229 C   0  0  0  0  0  0  0  0  0  0  0  0
   -5.4243   -1.3819   29.4364 C   0  0  0  0  0  0  0  0  0  0  0  0
   -7.8061   -1.7416   28.1087 F   0  0  0  0  0  0  0  0  0  0  0  0
   -3.7140   -2.1867   31.0553 C   0  0  0  0  0  0  0  0  0  0  0  0
   -4.3499   -2.5907   31.8584 C   0  0  0  0  0  0  0  0  0  0  0  0
   -3.9214   -3.4529   32.9885 C   0  0  0  0  0  0  0  0  0  0  0  0
   -2.6143   -3.7708   33.0596 C   0  0  0  0  0  0  0  0  0  0  0  0
   -1.7320   -3.2102   32.1200 C   0  0  0  0  0  0  0  0  0  0  0  0
   -2.2001   -2.3790   31.1293 C   0  0  0  0  0  0  0  0  0  0  0  0
  -11.0555    3.3761   24.4490 C   0  0  0  0  0  0  0  0  0  0  0  0
  -12.2842    3.2310   24.8287 C   0  0  0  0  0  0  0  0  0  0  0  0
  -13.3277    3.0854   23.9839 C   0  0  0  0  0  0  0  0  0  0  0  0
  -10.6920    3.2726   23.1140 C   0  0  0  0  0  0  0  0  0  0  0  0
  -11.6327    3.1888   22.1368 C   0  0  0  0  0  0  0  0  0  0  0  0
  -12.9985    3.1145   22.5788 C   0  0  0  0  0  0  0  0  0  0  0  0
  -12.7019    3.3517   26.3196 C   0  0  0  0  0  0  0  0  0  0  0  0
  -12.7309    2.8347   27.1926 C   0  0  0  0  0  0  0  0  0  0  0  0
  -13.0798    3.2013   28.5329 C   0  0  0  0  0  0  0  0  0  0  0  0
  -13.5185    4.4569   28.7854 C   0  0  0  0  0  0  0  0  0  0  0  0
  -13.2730    4.8477   26.4607 C   0  0  0  0  0  0  0  0  0  0  0  0
  -13.6437    5.2819   27.6824 C   0  0  0  0  0  0  0  0  0  0  0  0
  -12.8914    2.2462   29.7332 C   0  0  0  0  0  0  0  0  0  0  0  0
  -13.8315    2.5035   30.8196 C   0  0  0  0  0  0  0  0  0  0  0  0
  4 11  1  0
 11 12  1  0
  8 13  1  0
 13 14  1  0
 13 20  1  0
 18 21  1  0
  6 27  1  0
 28 33  1  0
 35 39  1  0
 39 40  1  0
  1  2  2  0
  7  6  2  0
  6  5  1  0
  5  4  2  0
  4  1  1  0
 27 28  1  0
 28 29  2  0
 29 32  1  0
 32 31  2  0
 31 30  1  0
 30 27  2  0
 33 34  2  0
 34 35  1  0
 35 36  2  0
 36 38  1  0
 38 37  2  0
 37 33  1  0
 14 15  2  0
 15 16  1  0
 16 17  2  0
 17 18  1  0
 18 19  2  0
 19 14  1  0
  2  3  1  0
  3  8  2  0
  8  9  1  0
  9 10  2  0
 10  7  1  0
  7  2  1  0
 21 22  2  0
 22 23  1  0
 23 24  2  0
 24 25  1  0
 25 26  2  0
 26 21  1  0
M  END
$$$$
