No_3230-complexes_sdf/6BKW-FPZ/2024-09-17-14-21-01/
     RDKit          3D

 10 10  0  0  0  0  0  0  0  0999 V2000
   -7.7129    4.2099   27.0854 C   0  0  0  0  0  0  0  0  0  0  0  0
   -7.7814    5.1722   27.8972 C   0  0  0  0  0  0  0  0  0  0  0  0
   -8.7889    3.2468   27.2220 C   0  0  0  0  0  0  0  0  0  0  0  0
   -8.5940    1.9755   26.6525 C   0  0  0  0  0  0  0  0  0  0  0  0
   -8.9923    5.7768   28.3797 C   0  0  0  0  0  0  0  0  0  0  0  0
  -10.1236    4.9428   28.2368 C   0  0  0  0  0  0  0  0  0  0  0  0
   -9.9991    3.6962   27.6536 C   0  0  0  0  0  0  0  0  0  0  0  0
   -7.5011    1.2224   26.9506 C   0  0  0  0  0  0  0  0  0  0  0  0
   -7.3717   -0.0118   26.7684 C   0  0  0  0  0  0  0  0  0  0  0  0
   -8.3743   -0.6684   26.0239 C   0  0  0  0  0  0  0  0  0  0  0  0
  1  2  1  0
  1  3  1  0
  3  4  2  3
  2  5  1  0
  5  6  1  0
  3  7  1  0
  6  7  1  0
  4  8  1  0
  8  9  2  3
  9 10  1  0
M  END
$$$$
