No_3391-complexes_sdf/6BKW-FPZ/2024-09-17-14-21-01/
     RDKit          3D

 20 22  0  0  0  0  0  0  0  0999 V2000
   -7.9040    3.9820   27.1177 C   0  0  0  0  0  0  0  0  0  0  0  0
   -9.0711    4.3164   27.0630 C   0  0  0  0  0  0  0  0  0  0  0  0
   -9.9692    3.7224   26.1073 C   0  0  0  0  0  0  0  0  0  0  0  0
   -6.9787    4.6761   28.1003 C   0  0  0  0  0  0  0  0  0  0  0  0
  -11.1978    4.2793   25.7845 C   0  0  0  0  0  0  0  0  0  0  0  0
   -7.5998    5.7639   28.6199 N   0  0  0  0  0  0  0  0  0  0  0  0
   -8.8859    5.6276   27.8686 C   0  0  0  0  0  0  0  0  0  0  0  0
   -9.5705    2.6062   25.4196 C   0  0  0  0  0  0  0  0  0  0  0  0
  -10.3494    2.0708   24.3787 C   0  0  0  0  0  0  0  0  0  0  0  0
  -12.0237    3.8085   24.8308 C   0  0  0  0  0  0  0  0  0  0  0  0
  -11.5698    2.7070   24.1260 C   0  0  0  0  0  0  0  0  0  0  0  0
  -12.4636    2.1004   23.0735 C   0  0  0  0  0  0  0  0  0  0  0  0
  -13.4777    1.4164   23.3063 C   0  0  0  0  0  0  0  0  0  0  0  0
  -14.2942    0.9468   22.3423 C   0  0  0  0  0  0  0  0  0  0  0  0
  -15.4661    0.1340   22.5805 C   0  0  0  0  0  0  0  0  0  0  0  0
  -15.7616   -0.1195   23.9237 C   0  0  0  0  0  0  0  0  0  0  0  0
  -14.9768    0.3590   24.9314 C   0  0  0  0  0  0  0  0  0  0  0  0
  -13.8333    1.1230   24.7181 C   0  0  0  0  0  0  0  0  0  0  0  0
  -11.9761    2.4809   21.7272 C   0  0  0  0  0  0  0  0  0  0  0  0
  -10.7745    2.9920   21.3568 C   0  0  0  0  0  0  0  0  0  0  0  0
  1  2  2  0
  2  3  1  0
  1  4  1  0
  4  6  2  0
  2  7  1  0
  6  7  1  0
 11 12  1  0
 12 13  1  0
 12 19  1  0
 19 20  1  0
 13 14  2  0
 14 15  1  0
 15 16  2  0
 16 17  1  0
 17 18  2  0
 18 13  1  0
  3  5  2  0
  5 10  1  0
 10 11  2  0
 11  9  1  0
  9  8  2  0
  8  3  1  0
M  END
$$$$
