No_3847-complexes_sdf/6BKW-FPZ/2024-09-17-14-21-01/
     RDKit          3D

 19 20  0  0  0  0  0  0  0  0999 V2000
   -7.9040    3.9820   27.1177 C   0  0  0  0  0  0  0  0  0  0  0  0
   -9.0711    4.3164   27.0630 C   0  0  0  0  0  0  0  0  0  0  0  0
   -9.9692    3.7224   26.1073 C   0  0  0  0  0  0  0  0  0  0  0  0
   -7.4776    2.6994   26.6283 C   0  0  0  0  0  0  0  0  0  0  0  0
   -8.4406    1.9440   25.9776 C   0  0  0  0  0  0  0  0  0  0  0  0
   -9.6379    2.5001   25.6881 C   0  0  0  0  0  0  0  0  0  0  0  0
   -7.0137    4.6011   27.9177 F   0  0  0  0  0  0  0  0  0  0  0  0
  -10.6139    1.7222   24.8408 C   0  0  0  0  0  0  0  0  0  0  0  0
  -10.4229    1.7527   23.5387 C   0  0  0  0  0  0  0  0  0  0  0  0
  -11.0766    1.0593   22.5936 C   0  0  0  0  0  0  0  0  0  0  0  0
  -11.6868    1.1210   25.3727 C   0  0  0  0  0  0  0  0  0  0  0  0
  -12.5324    0.3650   24.4775 C   0  0  0  0  0  0  0  0  0  0  0  0
  -12.2185    0.3840   23.1228 C   0  0  0  0  0  0  0  0  0  0  0  0
   -9.4599    5.7666   27.5036 C   0  0  0  0  0  0  0  0  0  0  0  0
  -13.0226   -0.3048   22.3006 F   0  0  0  0  0  0  0  0  0  0  0  0
   -8.5511    6.6641   27.7478 N   0  0  0  0  0  0  0  0  0  0  0  0
   -7.7879    7.2095   26.7316 C   0  0  1  0  0  0  0  0  0  0  0  0
   -7.9555    7.1818   25.5975 F   0  0  0  0  0  0  0  0  0  0  0  0
   -6.8506    8.1455   27.1794 N   0  0  0  0  0  0  0  0  0  0  0  0
  1  7  1  0
  6  8  1  0
  2 14  1  0
 13 15  1  0
 14 16  1  0
 16 17  1  0
 17 18  1  0
 17 19  1  1
  8  9  2  0
  9 10  1  0
 10 13  2  0
 13 12  1  0
 12 11  2  0
 11  8  1  0
  1  2  2  0
  2  3  1  0
  3  6  2  0
  6  5  1  0
  5  4  2  0
  4  1  1  0
M  END
$$$$
