No_3782-complexes_sdf/6BKW-FPZ/2024-09-17-14-21-01/
     RDKit          3D

 40 43  0  0  0  0  0  0  0  0999 V2000
   -7.7129    4.2099   27.0854 C   0  0  0  0  0  0  0  0  0  0  0  0
   -8.2112    3.0637   26.9225 C   0  0  0  0  0  0  0  0  0  0  0  0
   -8.5108    5.3904   26.9436 C   0  0  0  0  0  0  0  0  0  0  0  0
   -7.9752    6.6981   27.2112 C   0  0  0  0  0  0  0  0  0  0  0  0
   -9.5213    2.8208   26.4688 C   0  0  0  0  0  0  0  0  0  0  0  0
  -10.2979    3.9327   26.2378 C   0  0  0  0  0  0  0  0  0  0  0  0
   -9.7894    5.2123   26.4395 C   0  0  0  0  0  0  0  0  0  0  0  0
   -7.3451    1.8185   27.1796 C   0  0  0  0  0  0  0  0  0  0  0  0
   -6.0720    1.9951   27.7873 C   0  0  0  0  0  0  0  0  0  0  0  0
   -5.2638    0.8363   28.0519 C   0  0  0  0  0  0  0  0  0  0  0  0
   -3.9551    0.9857   28.6381 C   0  0  0  0  0  0  0  0  0  0  0  0
   -5.7429   -0.4445   27.7663 C   0  0  0  0  0  0  0  0  0  0  0  0
   -7.0263   -0.5981   27.2317 C   0  0  0  0  0  0  0  0  0  0  0  0
   -7.8154    0.5390   26.9773 C   0  0  0  0  0  0  0  0  0  0  0  0
   -3.2718    0.2752   29.0298 O   0  0  0  0  0  0  0  0  0  0  0  0
   -8.6291    7.8056   26.8138 N   0  0  0  0  0  0  0  0  0  0  0  0
   -6.8368    6.7924   27.7708 O   0  0  0  0  0  0  0  0  0  0  0  0
   -3.7674    2.3242   29.0392 O   0  0  0  0  0  0  0  0  0  0  0  0
  -11.6323    3.7766   25.6704 C   0  0  0  0  0  0  0  0  0  0  0  0
  -12.6749    3.4146   26.4953 C   0  0  0  0  0  0  0  0  0  0  0  0
  -12.4469    3.2921   27.8959 C   0  0  0  0  0  0  0  0  0  0  0  0
  -13.5822    2.9734   28.7898 C   0  0  0  0  0  0  0  0  0  0  0  0
  -13.1862    2.8579   30.1332 C   0  0  0  0  0  0  0  0  0  0  0  0
  -14.1935    2.5647   31.0601 C   0  0  0  0  0  0  0  0  0  0  0  0
  -15.4780    2.3195   30.6465 C   0  0  0  0  0  0  0  0  0  0  0  0
  -15.7780    2.4155   29.3259 C   0  0  0  0  0  0  0  0  0  0  0  0
  -14.8421    2.7476   28.3790 C   0  0  0  0  0  0  0  0  0  0  0  0
  -11.8560    3.9832   24.3010 C   0  0  0  0  0  0  0  0  0  0  0  0
  -10.7947    4.1490   23.4296 C   0  0  0  0  0  0  0  0  0  0  0  0
  -10.9896    4.4229   22.0468 C   0  0  0  0  0  0  0  0  0  0  0  0
  -12.2662    4.3702   21.5894 C   0  0  0  0  0  0  0  0  0  0  0  0
  -13.1263    4.0081   23.7447 C   0  0  0  0  0  0  0  0  0  0  0  0
  -13.3490    4.2653   22.4138 C   0  0  0  0  0  0  0  0  0  0  0  0
  -13.7967    2.5123   32.5321 C   0  0  0  0  0  0  0  0  0  0  0  0
  -14.5456    3.2971   33.3843 C   0  0  0  0  0  0  0  0  0  0  0  0
  -14.0980    4.3757   33.8815 C   0  0  0  0  0  0  0  0  0  0  0  0
  -12.6949    4.4492   34.1428 C   0  0  0  0  0  0  0  0  0  0  0  0
  -12.2642    4.3896   35.5113 C   0  0  0  0  0  0  0  0  0  0  0  0
  -10.9007    4.7363   35.7451 C   0  0  0  0  0  0  0  0  0  0  0  0
  -10.5267    4.7241   37.1385 C   0  0  0  0  0  0  0  0  0  0  0  0
  3  4  1  0
  2  8  1  0
 10 11  1  0
 11 15  2  0
  4 16  1  0
  4 17  2  0
 11 18  1  0
  6 19  1  0
 19 20  2  3
 20 21  1  0
 21 22  1  0
 19 28  1  0
 24 34  1  0
 34 35  1  0
 35 36  1  0
 36 37  1  0
 37 38  1  0
 38 39  2  3
 39 40  1  0
 28 29  2  0
 29 30  1  0
 30 31  2  0
 31 33  1  0
 33 32  2  0
 32 28  1  0
 22 23  2  0
 23 24  1  0
 24 25  2  0
 25 26  1  0
 26 27  2  0
 27 22  1  0
  8  9  2  0
  9 10  1  0
 10 12  2  0
 12 13  1  0
 13 14  2  0
 14  8  1  0
  1  2  2  0
  2  5  1  0
  5  6  2  0
  6  7  1  0
  7  3  2  0
  3  1  1  0
M  END
$$$$
