No_353-complexes_sdf/6BKW-FPZ/2024-09-17-14-21-01/
     RDKit          3D

 23 25  0  0  0  0  0  0  0  0999 V2000
   -7.9040    3.9820   27.1177 C   0  0  0  0  0  0  0  0  0  0  0  0
   -8.2057    2.8231   26.8733 C   0  0  0  0  0  0  0  0  0  0  0  0
   -7.4766    1.7477   27.4593 C   0  0  0  0  0  0  0  0  0  0  0  0
   -8.7468    5.1251   26.6967 C   0  0  0  0  0  0  0  0  0  0  0  0
   -9.7234    4.8589   25.8202 C   0  0  0  0  0  0  0  0  0  0  0  0
   -9.9711    3.5858   25.4266 C   0  0  0  0  0  0  0  0  0  0  0  0
   -9.2266    2.4957   25.9600 C   0  0  0  0  0  0  0  0  0  0  0  0
   -7.8305    0.3697   27.3235 C   0  0  0  0  0  0  0  0  0  0  0  0
   -8.9837    0.1833   26.4540 C   0  0  0  0  0  0  0  0  0  0  0  0
   -9.6460    1.1855   25.7538 C   0  0  0  0  0  0  0  0  0  0  0  0
   -8.3854    6.5365   27.0742 C   0  0  0  0  0  0  0  0  0  0  0  0
   -8.6747    7.5626   26.4085 N   0  0  0  0  0  0  0  0  0  0  0  0
   -7.6062    6.5763   28.1390 O   0  0  0  0  0  0  0  0  0  0  0  0
   -7.1508   -0.6633   27.9851 C   0  0  2  0  0  0  0  0  0  0  0  0
   -5.8421   -0.4986   28.4013 C   0  0  0  0  0  0  0  0  0  0  0  0
   -4.9938    0.4966   27.8901 C   0  0  0  0  0  0  0  0  0  0  0  0
   -3.7326    0.6127   28.6028 C   0  0  0  0  0  0  0  0  0  0  0  0
   -3.3597   -0.2303   29.6132 C   0  0  0  0  0  0  0  0  0  0  0  0
   -4.2308   -1.1475   30.0915 C   0  0  0  0  0  0  0  0  0  0  0  0
   -5.4898   -1.2614   29.5354 C   0  0  0  0  0  0  0  0  0  0  0  0
   -7.5677   -2.0140   27.5840 C   0  0  0  0  0  0  0  0  0  0  0  0
   -8.6411   -2.4783   28.2564 C   0  0  0  0  0  0  0  0  0  0  0  0
   -9.1312   -3.8060   28.1078 C   0  0  0  0  0  0  0  0  0  0  0  0
  4 11  1  0
 11 12  1  0
 11 13  2  0
 14  8  1  6
 14 15  1  0
 14 21  1  0
 21 22  2  3
 22 23  1  0
 15 16  2  0
 16 17  1  0
 17 18  2  0
 18 19  1  0
 19 20  2  0
 20 15  1  0
  1  2  2  0
  7  6  2  0
  6  5  1  0
  5  4  2  0
  4  1  1  0
  2  3  1  0
  3  8  2  0
  8  9  1  0
  9 10  2  0
 10  7  1  0
  7  2  1  0
M  END
$$$$
