No_3058-complexes_sdf/6BKW-FPZ/2024-09-17-14-21-01/
     RDKit          3D

 23 26  0  0  0  0  0  0  0  0999 V2000
   -7.9040    3.9820   27.1177 C   0  0  0  0  0  0  0  0  0  0  0  0
   -8.2057    2.8231   26.8733 C   0  0  0  0  0  0  0  0  0  0  0  0
   -7.0130    4.3706   28.1140 C   0  0  0  0  0  0  0  0  0  0  0  0
   -9.4741    2.4344   26.3718 C   0  0  0  0  0  0  0  0  0  0  0  0
  -10.2009    3.3542   25.7490 C   0  0  0  0  0  0  0  0  0  0  0  0
   -9.8070    4.7433   25.8809 C   0  0  0  0  0  0  0  0  0  0  0  0
   -8.7506    5.0992   26.6368 C   0  0  0  0  0  0  0  0  0  0  0  0
   -8.4236    6.4704   26.9056 C   0  0  0  0  0  0  0  0  0  0  0  0
   -7.3033    6.8085   27.6738 C   0  0  0  0  0  0  0  0  0  0  0  0
   -6.7422    5.7947   28.3633 C   0  0  0  0  0  0  0  0  0  0  0  0
   -7.3369    1.6656   27.3973 C   0  0  0  0  0  0  0  0  0  0  0  0
   -7.6818    0.3022   27.2090 C   0  0  0  0  0  0  0  0  0  0  0  0
   -9.6972    1.0505   26.0108 C   0  0  0  0  0  0  0  0  0  0  0  0
   -8.8552    0.0347   26.5445 C   0  0  0  0  0  0  0  0  0  0  0  0
  -10.6900    3.0668   24.4072 C   0  0  0  0  0  0  0  0  0  0  0  0
  -11.8278    3.3584   24.1868 C   0  0  0  0  0  0  0  0  0  0  0  0
  -12.7419    3.8305   25.1034 C   0  0  0  0  0  0  0  0  0  0  0  0
  -14.1041    4.2717   24.7695 C   0  0  0  0  0  0  0  0  0  0  0  0
  -15.0199    4.7719   25.7275 C   0  0  0  0  0  0  0  0  0  0  0  0
  -14.5750    4.8006   27.0960 C   0  0  0  0  0  0  0  0  0  0  0  0
  -13.2667    4.4157   27.4264 C   0  0  0  0  0  0  0  0  0  0  0  0
  -12.4519    3.9922   26.5531 C   0  0  0  0  0  0  0  0  0  0  0  0
  -12.4569    3.1717   22.8266 C   0  0  0  0  0  0  0  0  0  0  0  0
  5 15  1  0
 15 16  2  3
 16 17  1  0
 16 23  1  0
 17 18  2  0
 18 19  1  0
 19 20  2  0
 20 21  1  0
 21 22  2  0
 22 17  1  0
  4 13  2  0
 13 14  1  0
 14 12  2  0
 12 11  1  0
 11  2  2  0
  1  3  2  0
  3 10  1  0
 10  9  2  0
  9  8  1  0
  8  7  2  0
  1  2  1  0
  2  4  1  0
  4  5  1  0
  5  6  2  0
  6  7  1  0
  7  1  1  0
M  END
$$$$
