No_3634-complexes_sdf/6BKW-FPZ/2024-09-17-14-21-01/
     RDKit          3D

 35 40  0  0  0  0  0  0  0  0999 V2000
   -7.7129    4.2099   27.0854 C   0  0  0  0  0  0  0  0  0  0  0  0
   -8.9133    4.4736   27.0998 C   0  0  0  0  0  0  0  0  0  0  0  0
   -9.7937    3.7367   26.2091 C   0  0  0  0  0  0  0  0  0  0  0  0
   -7.2496    2.8647   26.8496 C   0  0  0  0  0  0  0  0  0  0  0  0
   -8.1891    1.9790   26.3454 C   0  0  0  0  0  0  0  0  0  0  0  0
   -9.4252    2.4603   26.0121 C   0  0  0  0  0  0  0  0  0  0  0  0
   -9.3121    5.9663   27.2474 C   0  0  0  0  0  0  0  0  0  0  0  0
   -7.7466    0.5946   26.1401 C   0  0  0  0  0  0  0  0  0  0  0  0
   -7.9509    0.1236   25.0622 O   0  0  0  0  0  0  0  0  0  0  0  0
   -6.7315    0.0558   27.0217 N   0  0  0  0  0  0  0  0  0  0  0  0
   -6.2508   -1.2310   26.8350 C   0  0  0  0  0  0  0  0  0  0  0  0
   -5.0262   -1.2818   27.0512 C   0  0  0  0  0  0  0  0  0  0  0  0
   -4.2212   -0.3737   27.8997 C   0  0  1  0  0  0  0  0  0  0  0  0
   -5.0316    0.8220   28.2521 C   0  0  0  0  0  0  0  0  0  0  0  0
   -6.1091    1.0255   27.7525 C   0  0  1  0  0  0  0  0  0  0  0  0
   -6.5299    2.3333   27.6974 N   0  0  0  0  0  0  0  0  0  0  0  0
   -8.4107    7.0415   26.9801 C   0  0  0  0  0  0  0  0  0  0  0  0
   -7.0217    6.7611   26.9482 C   0  0  0  0  0  0  0  0  0  0  0  0
   -6.6701    5.3534   27.1635 C   0  0  0  0  0  0  0  0  0  0  0  0
   -2.9056   -0.6638   28.4626 C   0  0  0  0  0  0  0  0  0  0  0  0
   -1.9211   -0.5607   27.6056 C   0  0  0  0  0  0  0  0  0  0  0  0
   -2.7379   -0.9453   29.8302 C   0  0  0  0  0  0  0  0  0  0  0  0
   -1.8076   -1.8938   30.2508 C   0  0  0  0  0  0  0  0  0  0  0  0
   -0.5670   -1.8303   29.4518 C   0  0  0  0  0  0  0  0  0  0  0  0
   -0.6590   -1.3405   28.0847 C   0  0  0  0  0  0  0  0  0  0  0  0
   -3.8082   -0.7727   30.7118 O   0  0  0  0  0  0  0  0  0  0  0  0
   -3.7334   -1.1037   32.0141 C   0  0  0  0  0  0  0  0  0  0  0  0
   -4.2863   -2.1963   32.4038 C   0  0  0  0  0  0  0  0  0  0  0  0
   -5.1184   -2.6840   31.7323 O   0  0  0  0  0  0  0  0  0  0  0  0
   -6.2337   -2.2060   31.4041 C   0  0  0  0  0  0  0  0  0  0  0  0
   -7.3649   -2.6083   32.1277 C   0  0  0  0  0  0  0  0  0  0  0  0
   -8.6167   -2.7494   31.4721 C   0  0  0  0  0  0  0  0  0  0  0  0
   -6.5649   -1.7455   30.0701 C   0  0  0  0  0  0  0  0  0  0  0  0
   -7.7839   -1.7418   29.4810 C   0  0  0  0  0  0  0  0  0  0  0  0
   -8.8421   -2.2420   30.2189 C   0  0  0  0  0  0  0  0  0  0  0  0
  2  7  1  0
  5  8  1  0
  8  9  2  0
  8 10  1  0
 10 11  1  0
 12 13  1  0
 10 15  1  0
 15 14  1  6
  4 16  1  0
 15 16  1  0
  7 17  1  0
 17 18  1  0
  1 19  1  0
 18 19  1  0
 13 20  1  1
 22 26  1  0
 26 27  1  0
 27 28  1  0
 28 29  1  0
 29 30  1  0
 11 12  1  0
 13 14  1  0
  1  2  1  0
  2  3  2  0
  3  6  1  0
  6  5  2  0
  5  4  1  0
  4  1  2  0
 20 21  2  0
 21 25  1  0
 25 24  2  0
 24 23  1  0
 23 22  2  0
 22 20  1  0
 30 31  2  0
 31 32  1  0
 32 35  2  0
 35 34  1  0
 34 33  2  0
 33 30  1  0
M  END
$$$$
