No_3464-complexes_sdf/6BKW-FPZ/2024-09-17-14-21-01/
     RDKit          3D

 25 27  0  0  0  0  0  0  0  0999 V2000
   -7.9040    3.9820   27.1177 C   0  0  0  0  0  0  0  0  0  0  0  0
   -7.8663    4.8694   27.9238 C   0  0  0  0  0  0  0  0  0  0  0  0
   -9.0491    3.8523   26.2542 C   0  0  0  0  0  0  0  0  0  0  0  0
   -8.7661    5.9491   27.9690 C   0  0  0  0  0  0  0  0  0  0  0  0
   -9.9295    4.8502   26.2323 C   0  0  0  0  0  0  0  0  0  0  0  0
   -9.8077    5.9288   27.0933 C   0  0  0  0  0  0  0  0  0  0  0  0
   -6.9996    2.9096   27.1565 O   0  0  0  0  0  0  0  0  0  0  0  0
   -6.2309    2.7693   28.1922 C   0  0  0  0  0  0  0  0  0  0  0  0
   -4.9168    1.9739   27.7398 C   0  0  0  0  0  0  0  0  0  0  0  0
   -4.4637    1.3407   28.8228 O   0  0  0  0  0  0  0  0  0  0  0  0
   -4.3092   -0.0843   28.7462 C   0  0  0  0  0  0  0  0  0  0  0  0
   -4.9403   -0.6804   28.0359 C   0  0  0  0  0  0  0  0  0  0  0  0
   -3.1365   -0.4911   29.4252 C   0  0  0  0  0  0  0  0  0  0  0  0
   -4.9311   -2.1311   28.0683 C   0  0  0  0  0  0  0  0  0  0  0  0
   -2.9381   -1.8747   29.5015 C   0  0  0  0  0  0  0  0  0  0  0  0
   -3.8490   -2.6865   28.7704 C   0  0  0  0  0  0  0  0  0  0  0  0
   -9.1220    2.7441   25.2765 C   0  0  0  0  0  0  0  0  0  0  0  0
  -10.1551    2.7338   24.3479 C   0  0  0  0  0  0  0  0  0  0  0  0
  -10.4793    1.5877   23.7411 C   0  0  0  0  0  0  0  0  0  0  0  0
  -10.0299    0.3997   24.2391 C   0  0  0  0  0  0  0  0  0  0  0  0
   -9.0367    0.3519   25.2364 C   0  0  0  0  0  0  0  0  0  0  0  0
   -8.6869    1.4755   25.8390 C   0  0  0  0  0  0  0  0  0  0  0  0
   -5.8378   -2.9369   27.2967 C   0  0  0  0  0  0  0  0  0  0  0  0
   -7.1413   -2.9195   27.4894 C   0  0  0  0  0  0  0  0  0  0  0  0
   -8.0695   -3.6518   26.6958 C   0  0  0  0  0  0  0  0  0  0  0  0
  1  7  1  0
  7  8  1  0
  8  9  1  0
  9 10  1  0
 10 11  1  0
  3 17  1  0
 14 23  1  0
 23 24  2  3
 24 25  1  0
 11 12  2  0
 12 14  1  0
 14 16  2  0
 16 15  1  0
 15 13  2  0
 13 11  1  0
  1  2  2  0
  2  4  1  0
  4  6  2  0
  6  5  1  0
  5  3  2  0
  3  1  1  0
 17 18  2  0
 18 19  1  0
 19 20  2  0
 20 21  1  0
 21 22  2  0
 22 17  1  0
M  END
$$$$
