No_3433-complexes_sdf/6BKW-FPZ/2024-09-17-14-21-01/
     RDKit          3D

 12 12  0  0  0  0  0  0  0  0999 V2000
   -7.2496    3.8871   27.4508 C   0  0  0  0  0  0  0  0  0  0  0  0
   -7.9379    4.9063   27.8518 C   0  0  0  0  0  0  0  0  0  0  0  0
   -9.3376    4.8647   27.7795 C   0  0  0  0  0  0  0  0  0  0  0  0
   -7.8544    2.6294   27.0414 C   0  0  0  0  0  0  0  0  0  0  0  0
   -9.2665    2.6175   27.0340 C   0  0  0  0  0  0  0  0  0  0  0  0
   -9.9836    3.7042   27.4150 C   0  0  0  0  0  0  0  0  0  0  0  0
   -7.0765    1.4847   26.7707 C   0  0  0  0  0  0  0  0  0  0  0  0
   -6.0002    1.1482   27.6822 C   0  0  0  0  0  0  0  0  0  0  0  0
   -5.2527   -0.0001   27.6083 C   0  0  0  0  0  0  0  0  0  0  0  0
   -4.1539   -0.1995   28.4829 C   0  0  0  0  0  0  0  0  0  0  0  0
   -3.5094   -1.4203   28.5662 C   0  0  0  0  0  0  0  0  0  0  0  0
   -3.9215   -2.4095   27.6865 C   0  0  0  0  0  0  0  0  0  0  0  0
  4  7  1  0
  7  8  1  0
  8  9  2  3
  9 10  1  0
 10 11  2  3
 11 12  1  0
  1  2  2  0
  2  3  1  0
  3  6  2  0
  6  5  1  0
  5  4  2  0
  4  1  1  0
M  END
$$$$
