No_3723-complexes_sdf/6BKW-FPZ/2024-09-17-14-21-01/
     RDKit          3D

 23 25  0  0  0  0  0  0  0  0999 V2000
   -7.2496    3.8871   27.4508 C   0  0  0  0  0  0  0  0  0  0  0  0
   -7.6161    2.7143   27.1523 C   0  0  0  0  0  0  0  0  0  0  0  0
   -8.8827    2.2318   27.1220 C   0  0  0  0  0  0  0  0  0  0  0  0
   -8.2837    4.9116   27.6108 C   0  0  0  0  0  0  0  0  0  0  0  0
   -9.6088    4.5175   27.5560 C   0  0  0  0  0  0  0  0  0  0  0  0
   -9.9243    3.2149   27.3938 C   0  0  0  0  0  0  0  0  0  0  0  0
   -7.8973    6.1858   27.9018 O   0  0  0  0  0  0  0  0  0  0  0  0
   -9.2735    0.8536   26.9291 C   0  0  0  0  0  0  0  0  0  0  0  0
  -10.3220    0.3728   27.5127 C   0  0  0  0  0  0  0  0  0  0  0  0
  -10.6647   -0.9713   27.3842 C   0  0  0  0  0  0  0  0  0  0  0  0
   -9.8350   -1.7864   26.6560 C   0  0  0  0  0  0  0  0  0  0  0  0
   -8.3969    0.0005   26.2176 C   0  0  0  0  0  0  0  0  0  0  0  0
   -8.7007   -1.2856   26.0657 C   0  0  0  0  0  0  0  0  0  0  0  0
   -8.4816    7.1574   27.0784 C   0  0  0  0  0  0  0  0  0  0  0  0
  -11.8936   -1.5302   28.0663 C   0  0  0  0  0  0  0  0  0  0  0  0
  -12.6826   -1.1023   28.6209 N   0  0  0  0  0  0  0  0  0  0  0  0
  -13.7268   -1.6869   29.2624 C   0  0  0  0  0  0  0  0  0  0  0  0
  -11.7184   -2.8350   28.2864 O   0  0  0  0  0  0  0  0  0  0  0  0
  -14.7245   -2.1714   28.6775 C   0  0  0  0  0  0  0  0  0  0  0  0
  -15.7709   -2.8641   29.3436 C   0  0  0  0  0  0  0  0  0  0  0  0
  -15.7761   -2.8346   30.7739 C   0  0  0  0  0  0  0  0  0  0  0  0
  -14.7647   -2.2440   31.4640 C   0  0  0  0  0  0  0  0  0  0  0  0
  -13.6984   -1.5869   30.8054 C   0  0  0  0  0  0  0  0  0  0  0  0
  4  7  1  0
  3  8  1  0
  7 14  1  0
 10 15  1  0
 15 16  1  0
 15 18  2  0
 16 17  1  0
 17 19  2  0
 19 20  1  0
 20 21  2  0
 21 22  1  0
 22 23  2  0
 23 17  1  0
  1  2  2  0
  2  3  1  0
  3  6  2  0
  6  5  1  0
  5  4  2  0
  4  1  1  0
  8  9  2  0
  9 10  1  0
 10 11  2  0
 11 13  1  0
 13 12  2  0
 12  8  1  0
M  END
$$$$
