No_3586-complexes_sdf/6BKW-FPZ/2024-09-17-14-21-01/
     RDKit          3D

 28 31  0  0  0  0  0  0  0  0999 V2000
   -7.9040    3.9820   27.1177 C   0  0  0  0  0  0  0  0  0  0  0  0
   -7.8663    4.8694   27.9238 C   0  0  0  0  0  0  0  0  0  0  0  0
   -9.0501    3.8017   26.2617 C   0  0  0  0  0  0  0  0  0  0  0  0
  -10.0189    4.7608   26.3707 C   0  0  0  0  0  0  0  0  0  0  0  0
   -8.6770    5.9780   27.9222 C   0  0  0  0  0  0  0  0  0  0  0  0
   -9.8040    5.8752   27.0958 C   0  0  0  0  0  0  0  0  0  0  0  0
   -9.1434    2.6226   25.4210 C   0  0  0  0  0  0  0  0  0  0  0  0
   -8.6414    1.4248   25.8504 C   0  0  0  0  0  0  0  0  0  0  0  0
   -8.7221    0.2951   25.0477 C   0  0  0  0  0  0  0  0  0  0  0  0
   -9.2843    0.4597   23.7792 C   0  0  0  0  0  0  0  0  0  0  0  0
   -9.7683    2.6338   24.1423 C   0  0  0  0  0  0  0  0  0  0  0  0
   -9.7776    1.6198   23.3474 C   0  0  0  0  0  0  0  0  0  0  0  0
  -10.3799    1.7155   21.9887 C   0  0  0  0  0  0  0  0  0  0  0  0
  -11.7042    1.8053   21.9123 C   0  0  0  0  0  0  0  0  0  0  0  0
  -12.2622    1.9863   20.6773 C   0  0  0  0  0  0  0  0  0  0  0  0
  -11.4457    2.0379   19.5121 C   0  0  0  0  0  0  0  0  0  0  0  0
  -10.0950    2.1442   19.6516 C   0  0  0  0  0  0  0  0  0  0  0  0
   -9.4796    1.9738   20.8976 C   0  0  0  0  0  0  0  0  0  0  0  0
   -9.3096   -0.7490   22.8875 C   0  0  1  0  0  0  0  0  0  0  0  0
   -8.1222   -1.3340   22.6805 C   0  0  0  0  0  0  0  0  0  0  0  0
   -7.9307   -2.2395   21.5927 C   0  0  0  0  0  0  0  0  0  0  0  0
   -6.6471   -2.8078   21.3357 C   0  0  0  0  0  0  0  0  0  0  0  0
   -5.6229   -2.5475   22.2231 C   0  0  0  0  0  0  0  0  0  0  0  0
   -5.8170   -1.6962   23.2852 C   0  0  0  0  0  0  0  0  0  0  0  0
   -6.9889   -1.0874   23.5327 C   0  0  0  0  0  0  0  0  0  0  0  0
  -10.5129   -1.3389   22.5648 C   0  0  0  0  0  0  0  0  0  0  0  0
  -11.3660   -1.9739   23.4296 C   0  0  0  0  0  0  0  0  0  0  0  0
  -12.5774   -2.4901   23.0632 C   0  0  0  0  0  0  0  0  0  0  0  0
  3  7  1  0
 12 13  1  0
 19 10  1  1
 19 20  1  0
 19 26  1  0
 26 27  2  3
 27 28  1  0
  7  8  2  0
  8  9  1  0
  9 10  2  0
 10 12  1  0
 12 11  2  0
 11  7  1  0
 13 14  2  0
 14 15  1  0
 15 16  2  0
 16 17  1  0
 17 18  2  0
 18 13  1  0
  1  2  2  0
  2  5  1  0
  5  6  2  0
  6  4  1  0
  4  3  2  0
  3  1  1  0
 20 21  2  0
 21 22  1  0
 22 23  2  0
 23 24  1  0
 24 25  2  0
 25 20  1  0
M  END
$$$$
