No_3079-complexes_sdf/6BKW-FPZ/2024-09-17-14-21-01/
     RDKit          3D

 17 19  0  0  0  0  0  0  0  0999 V2000
   -7.9040    3.9820   27.1177 C   0  0  0  0  0  0  0  0  0  0  0  0
   -9.0711    4.3164   27.0630 C   0  0  0  0  0  0  0  0  0  0  0  0
   -9.8698    3.9665   25.9494 C   0  0  0  0  0  0  0  0  0  0  0  0
   -7.0332    4.5030   28.2025 C   0  0  0  0  0  0  0  0  0  0  0  0
   -9.4357    2.9501   25.1393 C   0  0  0  0  0  0  0  0  0  0  0  0
   -8.2567    2.3218   25.4797 C   0  0  0  0  0  0  0  0  0  0  0  0
   -7.5105    2.7966   26.5752 C   0  0  0  0  0  0  0  0  0  0  0  0
  -10.1358    2.3876   24.0379 C   0  0  0  0  0  0  0  0  0  0  0  0
  -11.1562    1.8778   24.1345 C   0  0  0  0  0  0  0  0  0  0  0  0
  -11.8024    1.7361   25.3962 C   0  0  0  0  0  0  0  0  0  0  0  0
  -13.1395    1.0750   25.5213 C   0  0  0  0  0  0  0  0  0  0  0  0
   -7.3747    5.7564   28.7974 C   0  0  0  0  0  0  0  0  0  0  0  0
   -8.6180    6.3514   28.1723 C   0  0  0  0  0  0  0  0  0  0  0  0
   -9.4642    5.6592   27.3465 C   0  0  0  0  0  0  0  0  0  0  0  0
  -13.6661    0.6310   24.3772 C   0  0  0  0  0  0  0  0  0  0  0  0
  -13.1360    0.7359   23.1471 C   0  0  0  0  0  0  0  0  0  0  0  0
  -11.9105    1.3536   22.9846 C   0  0  0  0  0  0  0  0  0  0  0  0
  5  8  1  0
  8  9  1  0
  9 10  2  0
 10 11  1  0
 11 15  2  0
 15 16  1  0
 16 17  2  0
 17  9  1  0
  2 14  1  0
 14 13  2  0
 13 12  1  0
 12  4  2  0
  4  1  1  0
  1  2  1  0
  2  3  2  0
  3  5  1  0
  5  6  2  0
  6  7  1  0
  7  1  2  0
M  END
$$$$
