No_3092-complexes_sdf/6BKW-FPZ/2024-09-17-14-21-01/
     RDKit          3D

 26 29  0  0  0  0  0  0  0  0999 V2000
   -7.7129    4.2099   27.0854 C   0  0  0  0  0  0  0  0  0  0  0  0
   -8.9133    4.4736   27.0998 C   0  0  0  0  0  0  0  0  0  0  0  0
   -9.4616    5.6470   27.6290 C   0  0  0  0  0  0  0  0  0  0  0  0
   -7.2326    2.9175   26.7557 C   0  0  0  0  0  0  0  0  0  0  0  0
   -8.1546    1.9086   26.5054 C   0  0  0  0  0  0  0  0  0  0  0  0
   -7.6739    0.6359   26.2014 C   0  0  0  0  0  0  0  0  0  0  0  0
   -9.4630    2.3473   26.4144 C   0  0  0  0  0  0  0  0  0  0  0  0
   -9.8686    3.5233   26.7564 C   0  0  0  0  0  0  0  0  0  0  0  0
   -8.1150   -0.0539   25.2042 C   0  0  0  0  0  0  0  0  0  0  0  0
   -9.1338    0.5511   24.3891 C   0  0  0  0  0  0  0  0  0  0  0  0
   -9.9446    1.6252   24.9940 C   0  0  0  0  0  0  0  0  0  0  0  0
  -11.0814    2.1969   24.3445 C   0  0  0  0  0  0  0  0  0  0  0  0
  -12.1539    2.4031   24.9599 C   0  0  0  0  0  0  0  0  0  0  0  0
  -10.8851    2.6246   22.9831 C   0  0  0  0  0  0  0  0  0  0  0  0
  -11.8539    3.2473   22.2966 C   0  0  0  0  0  0  0  0  0  0  0  0
  -13.2716    3.0730   24.2903 C   0  0  0  0  0  0  0  0  0  0  0  0
  -13.0943    3.4921   22.9569 C   0  0  0  0  0  0  0  0  0  0  0  0
  -10.6841    6.0070   27.8174 N   0  0  0  0  0  0  0  0  0  0  0  0
   -8.6425    6.8665   27.4945 N   0  0  0  0  0  0  0  0  0  0  0  0
   -9.7299   -0.1675   23.3180 C   0  0  0  0  0  0  0  0  0  0  0  0
  -10.4317   -1.1712   23.5310 C   0  0  0  0  0  0  0  0  0  0  0  0
  -11.1368   -1.7737   22.4810 C   0  0  0  0  0  0  0  0  0  0  0  0
   -9.2830    0.1989   22.0409 C   0  0  0  0  0  0  0  0  0  0  0  0
   -9.8021   -0.4376   20.8859 C   0  0  0  0  0  0  0  0  0  0  0  0
  -10.7157   -1.4359   21.1296 C   0  0  0  0  0  0  0  0  0  0  0  0
  -11.7026    3.6462   20.9112 C   0  0  0  0  0  0  0  0  0  0  0  0
  2  3  1  0
 11 12  1  0
  3 18  2  0
  3 19  1  0
 10 20  1  0
 15 26  1  0
  5  6  1  0
  6  9  2  0
  9 10  1  0
 10 11  2  0
 11  7  1  0
 20 21  2  0
 21 22  1  0
 22 25  2  0
 25 24  1  0
 24 23  2  0
 23 20  1  0
  1  2  2  0
  2  8  1  0
  8  7  2  0
  7  5  1  0
  5  4  2  0
  4  1  1  0
 12 13  2  0
 13 16  1  0
 16 17  2  0
 17 15  1  0
 15 14  2  0
 14 12  1  0
M  END
$$$$
