No_3929-complexes_sdf/6BKW-FPZ/2024-09-17-14-21-01/
     RDKit          3D

 11 11  0  0  0  0  0  0  0  0999 V2000
   -7.9040    3.9820   27.1177 C   0  0  0  0  0  0  0  0  0  0  0  0
   -9.0711    4.3164   27.0630 C   0  0  0  0  0  0  0  0  0  0  0  0
   -9.5294    5.4517   27.7215 C   0  0  0  0  0  0  0  0  0  0  0  0
   -7.4336    2.7132   26.5681 C   0  0  0  0  0  0  0  0  0  0  0  0
   -6.3309    2.0536   27.2853 C   0  0  0  0  0  0  0  0  0  0  0  0
   -6.0697    0.7257   27.2175 C   0  0  0  0  0  0  0  0  0  0  0  0
   -4.9949    0.1807   27.9660 C   0  0  0  0  0  0  0  0  0  0  0  0
   -4.2636    1.1453   28.7553 C   0  0  0  0  0  0  0  0  0  0  0  0
   -4.5559    2.4657   28.6985 C   0  0  0  0  0  0  0  0  0  0  0  0
   -5.5665    2.9663   28.0257 C   0  0  0  0  0  0  0  0  0  0  0  0
  -10.8704    5.8543   27.6621 C   0  0  0  0  0  0  0  0  0  0  0  0
  1  2  1  0
  2  3  2  3
  1  4  1  0
  4  5  1  0
  3 11  1  0
  5  6  2  0
  6  7  1  0
  7  8  2  0
  8  9  1  0
  9 10  2  0
 10  5  1  0
M  END
$$$$
