No_3585-complexes_sdf/6BKW-FPZ/2024-09-17-14-21-01/
     RDKit          3D

 28 32  0  0  0  0  0  0  0  0999 V2000
   -7.9040    3.9820   27.1177 C   0  0  0  0  0  0  0  0  0  0  0  0
   -7.8663    4.8694   27.9238 C   0  0  0  0  0  0  0  0  0  0  0  0
   -9.0491    3.8523   26.2542 C   0  0  0  0  0  0  0  0  0  0  0  0
   -8.7661    5.9491   27.9690 C   0  0  0  0  0  0  0  0  0  0  0  0
   -9.9295    4.8502   26.2323 C   0  0  0  0  0  0  0  0  0  0  0  0
   -9.8077    5.9288   27.0933 C   0  0  0  0  0  0  0  0  0  0  0  0
   -7.0120    2.8934   27.1747 N   0  0  0  0  0  0  0  0  0  0  0  0
   -5.9584    2.9314   27.9624 C   0  0  0  0  0  0  0  0  0  0  0  0
   -5.1075    1.6948   27.9648 C   0  0  0  0  0  0  0  0  0  0  0  0
   -7.4214    1.5986   26.7170 C   0  0  0  0  0  0  0  0  0  0  0  0
   -6.6908    0.4688   26.9746 C   0  0  0  0  0  0  0  0  0  0  0  0
   -5.4897    0.6110   27.6201 C   0  0  0  0  0  0  0  0  0  0  0  0
   -4.6795   -0.6046   27.8821 C   0  0  0  0  0  0  0  0  0  0  0  0
   -4.5168   -1.1183   28.8665 C   0  0  0  0  0  0  0  0  0  0  0  0
   -3.6374   -2.2842   29.1588 C   0  0  0  0  0  0  0  0  0  0  0  0
   -2.9784   -2.7661   28.0817 C   0  0  0  0  0  0  0  0  0  0  0  0
   -3.8534   -1.2129   26.8422 C   0  0  0  0  0  0  0  0  0  0  0  0
   -3.0543   -2.1912   26.9115 C   0  0  0  0  0  0  0  0  0  0  0  0
  -10.9974    4.7774   25.2296 C   0  0  0  0  0  0  0  0  0  0  0  0
  -10.7039    4.6997   23.8872 C   0  0  0  0  0  0  0  0  0  0  0  0
  -11.6741    4.5544   22.9373 C   0  0  0  0  0  0  0  0  0  0  0  0
  -13.0108    4.4254   23.3247 C   0  0  0  0  0  0  0  0  0  0  0  0
  -13.3188    4.4671   24.7162 C   0  0  0  0  0  0  0  0  0  0  0  0
  -12.3266    4.6315   25.6577 C   0  0  0  0  0  0  0  0  0  0  0  0
  -11.3365    4.5011   21.5212 C   0  0  0  0  0  0  0  0  0  0  0  0
  -12.1343    3.8276   20.6289 C   0  0  0  0  0  0  0  0  0  0  0  0
  -13.2686    3.2724   21.0492 C   0  0  0  0  0  0  0  0  0  0  0  0
  -13.9263    3.7982   22.3672 C   0  0  0  0  0  0  0  0  0  0  0  0
  1  7  1  0
  7  8  1  0
  7 10  1  0
  9 12  1  0
 11 12  1  0
 12 13  1  0
  5 19  1  0
  8  9  1  0
 11 10  1  0
 19 20  2  0
 20 21  1  0
 22 23  1  0
 23 24  2  0
 24 19  1  0
 13 14  2  0
 14 15  1  0
 15 16  2  0
 16 18  1  0
 18 17  2  0
 17 13  1  0
  1  2  2  0
  2  4  1  0
  4  6  2  0
  6  5  1  0
  5  3  2  0
  3  1  1  0
 21 22  2  0
 22 28  1  0
 28 27  2  0
 27 26  1  0
 26 25  2  0
 25 21  1  0
M  END
$$$$
