No_3385-complexes_sdf/6BKW-FPZ/2024-09-17-14-21-01/
     RDKit          3D

 10 10  0  0  0  0  0  0  0  0999 V2000
   -7.2496    3.8871   27.4508 C   0  0  0  0  0  0  0  0  0  0  0  0
   -7.6161    2.7143   27.1523 C   0  0  0  0  0  0  0  0  0  0  0  0
   -6.9719    1.5838   27.5324 C   0  0  0  0  0  0  0  0  0  0  0  0
   -7.4590    0.2827   27.2615 C   0  0  0  0  0  0  0  0  0  0  0  0
   -8.8629    2.3938   26.5063 C   0  0  0  0  0  0  0  0  0  0  0  0
   -9.3223    1.1948   26.1623 C   0  0  0  0  0  0  0  0  0  0  0  0
   -6.6631   -0.8475   27.7554 C   0  0  0  0  0  0  0  0  0  0  0  0
   -8.6034    0.1373   26.6045 C   0  0  0  0  0  0  0  0  0  0  0  0
   -8.0670    5.0953   27.2290 C   0  0  0  0  0  0  0  0  0  0  0  0
   -7.6967    6.3659   27.8601 C   0  0  0  0  0  0  0  0  0  0  0  0
  4  7  1  0
  1  9  1  0
  9 10  2  0
  1  2  1  0
  2  3  2  0
  3  4  1  0
  4  8  2  0
  8  6  1  0
  6  5  2  0
  5  2  1  0
M  END
$$$$
