No_3089-complexes_sdf/6BKW-FPZ/2024-09-17-14-21-01/
     RDKit          3D

 10 11  0  0  0  0  0  0  0  0999 V2000
   -7.7129    4.2099   27.0854 C   0  0  0  0  0  0  0  0  0  0  0  0
   -8.9133    4.4736   27.0998 C   0  0  0  0  0  0  0  0  0  0  0  0
   -9.7135    3.9633   26.0300 C   0  0  0  0  0  0  0  0  0  0  0  0
   -6.8655    4.8824   28.1822 C   0  0  0  0  0  0  0  0  0  0  0  0
  -10.8856    4.5824   25.6430 C   0  0  0  0  0  0  0  0  0  0  0  0
   -7.2976    5.7414   28.7932 N   0  0  0  0  0  0  0  0  0  0  0  0
  -11.5968    5.0610   26.7549 C   0  0  0  0  0  0  0  0  0  0  0  0
  -10.9996    5.2589   28.0146 C   0  0  0  0  0  0  0  0  0  0  0  0
   -9.6593    5.0677   28.1686 C   0  0  0  0  0  0  0  0  0  0  0  0
   -8.8150    5.8083   28.9272 C   0  0  0  0  0  0  0  0  0  0  0  0
  2  3  1  0
  3  5  2  0
  5  7  1  0
  7  8  2  0
  8  9  1  0
  1  2  2  0
  2  9  1  0
  9 10  2  0
 10  6  1  0
  6  4  2  0
  4  1  1  0
M  END
$$$$
