No_3254-complexes_sdf/6BKW-FPZ/2024-09-17-14-21-01/
     RDKit          3D

 23 26  0  0  0  0  0  0  0  0999 V2000
   -7.9040    3.9820   27.1177 C   0  0  0  0  0  0  0  0  0  0  0  0
   -7.8663    4.8694   27.9238 C   0  0  0  0  0  0  0  0  0  0  0  0
   -9.0953    3.1697   27.0532 C   0  0  0  0  0  0  0  0  0  0  0  0
  -10.1313    3.4052   27.8871 C   0  0  0  0  0  0  0  0  0  0  0  0
   -8.9489    5.3814   28.6671 C   0  0  0  0  0  0  0  0  0  0  0  0
  -10.1039    4.5714   28.7102 C   0  0  0  0  0  0  0  0  0  0  0  0
   -9.0505    1.9437   26.1963 C   0  0  0  0  0  0  0  0  0  0  0  0
   -9.5005    2.1052   24.8742 C   0  0  0  0  0  0  0  0  0  0  0  0
   -9.4919    1.0870   23.9344 C   0  0  0  0  0  0  0  0  0  0  0  0
   -8.5089    0.7561   26.5738 C   0  0  0  0  0  0  0  0  0  0  0  0
   -8.4570   -0.3334   25.6792 C   0  0  0  0  0  0  0  0  0  0  0  0
   -8.9264   -0.1459   24.3811 C   0  0  0  0  0  0  0  0  0  0  0  0
   -9.9868    3.5419   24.5381 C   0  0  0  0  0  0  0  0  0  0  0  0
  -10.7968    3.6374   23.3403 C   0  0  0  0  0  0  0  0  0  0  0  0
  -11.3473    4.9480   23.1809 C   0  0  0  0  0  0  0  0  0  0  0  0
  -10.9157    2.7153   22.3636 C   0  0  0  0  0  0  0  0  0  0  0  0
  -10.1559    1.2755   22.6690 C   0  0  0  0  0  0  0  0  0  0  0  0
  -11.3452    2.5914   27.9288 C   0  0  0  0  0  0  0  0  0  0  0  0
  -12.5118    2.9637   27.2348 C   0  0  0  0  0  0  0  0  0  0  0  0
  -13.2944    2.1033   26.5619 C   0  0  0  0  0  0  0  0  0  0  0  0
  -12.9064    0.8198   26.6152 C   0  0  0  0  0  0  0  0  0  0  0  0
  -11.9248    0.2849   27.4847 C   0  0  0  0  0  0  0  0  0  0  0  0
  -11.0243    1.2747   28.1053 C   0  0  0  0  0  0  0  0  0  0  0  0
  3  7  1  0
 14 15  1  0
  4 18  1  0
 18 19  2  0
 19 20  1  0
 20 21  2  0
 21 22  1  0
 22 23  2  0
 23 18  1  0
  9 17  1  0
 17 16  2  0
 16 14  1  0
 14 13  2  0
 13  8  1  0
  1  2  2  0
  2  5  1  0
  5  6  2  0
  6  4  1  0
  4  3  2  0
  3  1  1  0
  7  8  2  0
  8  9  1  0
  9 12  2  0
 12 11  1  0
 11 10  2  0
 10  7  1  0
M  END
$$$$
