No_3688-complexes_sdf/6BKW-FPZ/2024-09-17-14-21-01/
     RDKit          3D

 18 20  0  0  0  0  0  0  0  0999 V2000
   -7.9040    3.9820   27.1177 C   0  0  0  0  0  0  0  0  0  0  0  0
   -7.8663    4.8694   27.9238 C   0  0  0  0  0  0  0  0  0  0  0  0
   -9.0501    3.8017   26.2617 C   0  0  0  0  0  0  0  0  0  0  0  0
  -10.0189    4.7608   26.3707 C   0  0  0  0  0  0  0  0  0  0  0  0
   -8.6973    5.9722   27.8968 C   0  0  0  0  0  0  0  0  0  0  0  0
   -9.8216    5.8946   27.1241 C   0  0  0  0  0  0  0  0  0  0  0  0
   -9.3656    2.6887   25.4285 C   0  0  0  0  0  0  0  0  0  0  0  0
   -8.7688    1.4656   25.7103 C   0  0  0  0  0  0  0  0  0  0  0  0
   -8.7951    0.4320   24.8035 C   0  0  0  0  0  0  0  0  0  0  0  0
  -10.0200    2.8340   24.2434 C   0  0  0  0  0  0  0  0  0  0  0  0
  -10.1052    1.7980   23.3332 C   0  0  0  0  0  0  0  0  0  0  0  0
   -9.5037    0.5971   23.6102 C   0  0  0  0  0  0  0  0  0  0  0  0
  -10.8525    2.1629   22.1097 C   0  0  0  0  0  0  0  0  0  0  0  0
  -10.6824    3.2671   21.5426 C   0  0  0  0  0  0  0  0  0  0  0  0
  -11.3417    3.6363   20.3546 C   0  0  0  0  0  0  0  0  0  0  0  0
  -11.9216    2.6504   19.5687 C   0  0  0  0  0  0  0  0  0  0  0  0
  -11.8750    1.3231   20.0792 C   0  0  0  0  0  0  0  0  0  0  0  0
  -11.3149    1.0581   21.3209 C   0  0  0  0  0  0  0  0  0  0  0  0
  3  7  1  0
 11 13  1  0
 13 14  2  0
 14 15  1  0
 15 16  2  0
 16 17  1  0
 17 18  2  0
 18 13  1  0
  1  2  2  0
  2  5  1  0
  5  6  2  0
  6  4  1  0
  4  3  2  0
  3  1  1  0
  7  8  2  0
  8  9  1  0
  9 12  2  0
 12 11  1  0
 11 10  2  0
 10  7  1  0
M  END
$$$$
