No_3351-complexes_sdf/6BKW-FPZ/2024-09-17-14-21-01/
     RDKit          3D

 20 22  0  0  0  0  0  0  0  0999 V2000
   -7.9040    3.9820   27.1177 C   0  0  0  0  0  0  0  0  0  0  0  0
   -9.0711    4.3164   27.0630 C   0  0  0  0  0  0  0  0  0  0  0  0
   -9.5294    5.4517   27.7215 C   0  0  0  0  0  0  0  0  0  0  0  0
   -7.4336    2.7132   26.5681 C   0  0  0  0  0  0  0  0  0  0  0  0
   -8.2624    1.7597   26.6581 C   0  0  1  0  0  0  0  0  0  0  0  0
   -9.6598    2.0092   26.6342 C   0  0  2  0  0  0  0  0  0  0  0  0
  -10.0433    3.2712   27.0366 C   0  0  2  0  0  0  0  0  0  0  0  0
   -7.7846    0.4007   26.2002 C   0  0  0  0  0  0  0  0  0  0  0  0
   -6.8054   -0.1508   27.0175 C   0  0  0  0  0  0  0  0  0  0  0  0
   -6.1449   -1.2274   26.6465 C   0  0  0  0  0  0  0  0  0  0  0  0
   -6.5656   -1.8786   25.4582 C   0  0  0  0  0  0  0  0  0  0  0  0
   -8.0976   -0.3309   25.1354 C   0  0  0  0  0  0  0  0  0  0  0  0
   -7.4942   -1.3800   24.6736 C   0  0  0  0  0  0  0  0  0  0  0  0
  -11.4852    3.4399   27.3078 C   0  0  0  0  0  0  0  0  0  0  0  0
  -11.8864    3.5703   28.6799 C   0  0  0  0  0  0  0  0  0  0  0  0
  -12.3757    3.6037   26.3383 C   0  0  0  0  0  0  0  0  0  0  0  0
  -13.2128    3.7371   29.1273 C   0  0  0  0  0  0  0  0  0  0  0  0
  -13.7569    3.8817   26.6840 C   0  0  0  0  0  0  0  0  0  0  0  0
  -14.1345    3.9950   28.0599 C   0  0  0  0  0  0  0  0  0  0  0  0
  -10.5674    1.1068   26.8201 F   0  0  0  0  0  0  0  0  0  0  0  0
  1  2  1  0
  2  3  2  0
  1  4  1  0
  4  5  1  0
  5  6  1  0
  2  7  1  0
  6  7  1  0
  5  8  1  6
  7 14  1  6
  6 20  1  1
 14 15  2  0
 15 17  1  0
 17 19  2  0
 19 18  1  0
 18 16  2  0
 16 14  1  0
  8  9  2  0
  9 10  1  0
 10 11  2  0
 11 13  1  0
 13 12  2  0
 12  8  1  0
M  END
$$$$
