No_3878-complexes_sdf/6BKW-FPZ/2024-09-17-14-21-01/
     RDKit          3D

 16 18  0  0  0  0  0  0  0  0999 V2000
   -7.7129    4.2099   27.0854 C   0  0  0  0  0  0  0  0  0  0  0  0
   -7.7814    5.1722   27.8972 C   0  0  0  0  0  0  0  0  0  0  0  0
   -8.8255    3.2789   27.1191 C   0  0  0  0  0  0  0  0  0  0  0  0
   -8.7530    2.0643   26.3119 C   0  0  0  0  0  0  0  0  0  0  0  0
   -9.8958    1.4956   25.8527 C   0  0  0  0  0  0  0  0  0  0  0  0
  -11.1040    1.9266   26.2564 C   0  0  0  0  0  0  0  0  0  0  0  0
  -10.1519    3.6814   27.3365 C   0  0  0  0  0  0  0  0  0  0  0  0
  -11.2495    3.0370   27.1007 C   0  0  0  0  0  0  0  0  0  0  0  0
   -9.1033    5.8127   28.2751 C   0  0  0  0  0  0  0  0  0  0  0  0
  -10.2176    5.0075   28.0782 C   0  0  0  0  0  0  0  0  0  0  0  0
  -12.5936    3.3735   27.6400 C   0  0  0  0  0  0  0  0  0  0  0  0
  -13.6694    3.0998   27.2930 C   0  0  0  0  0  0  0  0  0  0  0  0
  -14.8740    3.5596   27.8098 C   0  0  0  0  0  0  0  0  0  0  0  0
  -14.8421    4.5780   28.8136 C   0  0  0  0  0  0  0  0  0  0  0  0
  -13.6287    5.0485   29.2552 C   0  0  0  0  0  0  0  0  0  0  0  0
  -12.5154    4.5636   28.7108 C   0  0  0  0  0  0  0  0  0  0  0  0
  8 11  1  0
  1  2  2  0
  2  9  1  0
  9 10  2  0
 10  7  1  0
  3  1  1  0
 11 12  2  0
 12 13  1  0
 13 14  2  0
 14 15  1  0
 15 16  2  0
 16 11  1  0
  3  4  2  0
  4  5  1  0
  5  6  2  0
  6  8  1  0
  8  7  2  0
  7  3  1  0
M  END
$$$$
