No_3797-complexes_sdf/6BKW-FPZ/2024-09-17-14-21-01/
     RDKit          3D

  6  5  0  0  0  0  0  0  0  0999 V2000
   -7.9040    3.9820   27.1177 C   0  0  0  0  0  0  0  0  0  0  0  0
   -8.2057    2.8231   26.8733 C   0  0  0  0  0  0  0  0  0  0  0  0
   -7.0130    4.3706   28.1140 C   0  0  0  0  0  0  0  0  0  0  0  0
   -7.3740    1.7588   27.2586 C   0  0  0  0  0  0  0  0  0  0  0  0
   -7.6741    0.4151   27.0228 C   0  0  0  0  0  0  0  0  0  0  0  0
   -5.9145    3.4662   28.2776 C   0  0  0  0  0  0  0  0  0  0  0  0
  1  2  1  0
  1  3  1  0
  2  4  2  3
  4  5  1  0
  3  6  2  0
M  END
$$$$
