No_3673-complexes_sdf/6BKW-FPZ/2024-09-17-14-21-01/
     RDKit          3D

 10 10  0  0  0  0  0  0  0  0999 V2000
   -7.7129    4.2099   27.0854 C   0  0  0  0  0  0  0  0  0  0  0  0
   -8.9133    4.4736   27.0998 C   0  0  2  0  0  0  0  0  0  0  0  0
   -9.7135    3.9633   26.0300 C   0  0  0  0  0  0  0  0  0  0  0  0
   -6.8420    4.9760   28.0851 C   0  0  0  0  0  0  0  0  0  0  0  0
   -9.6552    4.2399   24.9004 C   0  0  0  0  0  0  0  0  0  0  0  0
  -10.3675    3.7380   23.7525 C   0  0  0  0  0  0  0  0  0  0  0  0
  -10.8716    2.8713   23.8831 C   0  0  0  0  0  0  0  0  0  0  0  0
  -11.1269    2.1445   25.0803 C   0  0  0  0  0  0  0  0  0  0  0  0
  -10.4956    2.7286   26.2426 C   0  0  0  0  0  0  0  0  0  0  0  0
   -9.5669    5.3545   28.0128 C   0  0  0  0  0  0  0  0  0  0  0  0
  1  2  1  0
  2  3  1  0
  1  4  1  0
  2 10  1  6
  3  5  2  0
  5  6  1  0
  6  7  2  0
  7  8  1  0
  8  9  2  0
  9  3  1  0
M  END
$$$$
