No_3285-complexes_sdf/6BKW-FPZ/2024-09-17-14-21-01/
     RDKit          3D

 30 33  0  0  0  0  0  0  0  0999 V2000
   -7.9040    3.9820   27.1177 C   0  0  0  0  0  0  0  0  0  0  0  0
   -8.2057    2.8231   26.8733 C   0  0  0  0  0  0  0  0  0  0  0  0
   -9.3234    2.2125   27.0599 C   0  0  0  0  0  0  0  0  0  0  0  0
   -9.0146    4.9428   27.2420 C   0  0  0  0  0  0  0  0  0  0  0  0
  -10.2851    4.4096   27.2820 C   0  0  0  0  0  0  0  0  0  0  0  0
  -10.4907    3.0453   27.2378 C   0  0  0  0  0  0  0  0  0  0  0  0
   -8.9541    6.3750   27.4541 C   0  0  0  0  0  0  0  0  0  0  0  0
   -7.5623    6.8696   27.3087 C   0  0  0  0  0  0  0  0  0  0  0  0
   -9.3483    0.7059   26.8230 C   0  0  0  0  0  0  0  0  0  0  0  0
   -9.4517    0.2345   25.7289 C   0  0  0  0  0  0  0  0  0  0  0  0
   -9.4282   -1.2093   25.5418 C   0  0  0  0  0  0  0  0  0  0  0  0
   -9.3440   -2.0106   26.6739 C   0  0  0  0  0  0  0  0  0  0  0  0
   -9.2722   -1.4606   27.9126 C   0  0  0  0  0  0  0  0  0  0  0  0
   -9.2807   -0.0741   28.1020 C   0  0  0  0  0  0  0  0  0  0  0  0
   -7.5041    8.2492   26.7417 C   0  0  0  0  0  0  0  0  0  0  0  0
  -11.8182    2.4026   27.3840 C   0  0  1  0  0  0  0  0  0  0  0  0
  -12.4678    2.8252   28.4424 C   0  0  0  0  0  0  0  0  0  0  0  0
  -12.5074    3.9328   28.9410 C   0  0  0  0  0  0  0  0  0  0  0  0
  -13.3678    1.7485   29.1275 C   0  0  0  0  0  0  0  0  0  0  0  0
  -13.4625    4.2890   30.0956 C   0  0  0  0  0  0  0  0  0  0  0  0
  -14.1886    2.0093   30.1708 C   0  0  0  0  0  0  0  0  0  0  0  0
  -14.1922    3.3180   30.7047 C   0  0  0  0  0  0  0  0  0  0  0  0
  -15.0737    3.6787   31.8469 C   0  0  0  0  0  0  0  0  0  0  0  0
  -15.9330    4.6432   31.6981 C   0  0  0  0  0  0  0  0  0  0  0  0
  -16.4678    5.1674   32.8190 C   0  0  0  0  0  0  0  0  0  0  0  0
  -16.3055    4.5814   34.0907 C   0  0  0  0  0  0  0  0  0  0  0  0
  -15.4154    3.5562   34.2220 C   0  0  0  0  0  0  0  0  0  0  0  0
  -14.6342    3.0997   33.1227 C   0  0  0  0  0  0  0  0  0  0  0  0
  -12.3446    1.6597   26.3305 C   0  0  0  0  0  0  0  0  0  0  0  0
  -12.7452    1.9964   25.2191 N   0  0  0  0  0  0  0  0  0  0  0  0
  4  7  1  0
  7  8  1  0
  3  9  1  0
  8 15  1  0
  6 16  1  0
 16 17  1  0
 22 23  1  0
 16 29  1  6
 29 30  1  0
 23 24  2  0
 24 25  1  0
 25 26  2  0
 26 27  1  0
 27 28  2  0
 28 23  1  0
  1  2  2  0
  2  3  1  0
  3  6  2  0
  6  5  1  0
  5  4  2  0
  4  1  1  0
 17 18  2  0
 18 20  1  0
 20 22  2  0
 22 21  1  0
 21 19  2  0
 19 17  1  0
  9 10  2  0
 10 11  1  0
 11 12  2  0
 12 13  1  0
 13 14  2  0
 14  9  1  0
M  END
$$$$
