No_3126-complexes_sdf/6BKW-FPZ/2024-09-17-14-21-01/
     RDKit          3D

 15 16  0  0  0  0  0  0  0  0999 V2000
   -7.9040    3.9820   27.1177 C   0  0  0  0  0  0  0  0  0  0  0  0
   -8.2057    2.8231   26.8733 C   0  0  0  0  0  0  0  0  0  0  0  0
   -9.2962    2.4021   26.1155 C   0  0  0  0  0  0  0  0  0  0  0  0
   -8.7358    5.0662   26.5917 C   0  0  0  0  0  0  0  0  0  0  0  0
   -9.7618    4.7023   25.7546 C   0  0  0  0  0  0  0  0  0  0  0  0
  -10.0066    3.4105   25.4922 C   0  0  0  0  0  0  0  0  0  0  0  0
   -8.3943    6.4761   26.8801 C   0  0  0  0  0  0  0  0  0  0  0  0
   -8.5947    7.4080   26.1130 N   0  0  0  0  0  0  0  0  0  0  0  0
   -7.4078    6.5630   27.7887 O   0  0  0  0  0  0  0  0  0  0  0  0
   -7.3630    1.6541   27.4708 C   0  0  0  0  0  0  0  0  0  0  0  0
   -6.0159    1.9046   27.8096 C   0  0  0  0  0  0  0  0  0  0  0  0
   -5.2036    0.8441   28.3183 C   0  0  0  0  0  0  0  0  0  0  0  0
   -5.6965   -0.4381   28.3771 C   0  0  0  0  0  0  0  0  0  0  0  0
   -7.7420    0.3218   27.4814 C   0  0  0  0  0  0  0  0  0  0  0  0
   -6.9774   -0.6583   28.0118 C   0  0  0  0  0  0  0  0  0  0  0  0
  4  7  1  0
  7  8  1  0
  7  9  2  0
  2 10  1  0
  1  2  2  0
  2  3  1  0
  3  6  2  0
  6  5  1  0
  5  4  2  0
  4  1  1  0
 10 11  2  0
 11 12  1  0
 12 13  2  0
 13 15  1  0
 15 14  2  0
 14 10  1  0
M  END
$$$$
