No_3538-complexes_sdf/6BKW-FPZ/2024-09-17-14-21-01/
     RDKit          3D

 40 45  0  0  0  0  0  0  0  0999 V2000
   -7.7129    4.2099   27.0854 C   0  0  0  0  0  0  0  0  0  0  0  0
   -8.2112    3.0637   26.9225 C   0  0  0  0  0  0  0  0  0  0  0  0
   -9.4446    2.8304   26.1868 C   0  0  0  0  0  0  0  0  0  0  0  0
   -8.4697    5.3956   26.7238 C   0  0  0  0  0  0  0  0  0  0  0  0
   -9.6172    5.2111   25.9513 C   0  0  0  0  0  0  0  0  0  0  0  0
  -10.0424    3.9782   25.6873 C   0  0  0  0  0  0  0  0  0  0  0  0
   -7.3251    1.9116   27.4398 C   0  0  0  0  0  0  0  0  0  0  0  0
   -5.9764    2.0610   27.5196 C   0  0  0  0  0  0  0  0  0  0  0  0
   -5.2467    0.9914   28.0678 C   0  0  0  0  0  0  0  0  0  0  0  0
   -5.7767   -0.2315   28.2904 C   0  0  0  0  0  0  0  0  0  0  0  0
   -7.8855    0.6099   27.5974 C   0  0  0  0  0  0  0  0  0  0  0  0
   -7.1330   -0.4072   28.0083 C   0  0  0  0  0  0  0  0  0  0  0  0
   -7.8939    6.9653   27.0755 Cl  0  0  0  0  0  0  0  0  0  0  0  0
   -4.9405   -1.3166   28.7850 C   0  0  1  0  0  0  0  0  0  0  0  0
   -3.7735   -1.1530   29.1589 N   0  0  0  0  0  0  0  0  0  0  0  0
   -5.4866   -2.6315   28.9203 C   0  0  0  0  0  0  0  0  0  0  0  0
   -3.1641   -0.0905   29.4003 C   0  0  0  0  0  0  0  0  0  0  0  0
   -3.2900    1.1918   28.9096 N   0  0  0  0  0  0  0  0  0  0  0  0
   -3.9832    1.5940   28.4498 C   0  0  0  0  0  0  0  0  0  0  0  0
  -11.2304    3.8093   24.8376 C   0  0  0  0  0  0  0  0  0  0  0  0
  -12.3643    3.5919   25.2620 N   0  0  0  0  0  0  0  0  0  0  0  0
  -13.4222    3.5160   24.4283 C   0  0  0  0  0  0  0  0  0  0  0  0
  -11.0312    3.8874   23.4179 C   0  0  0  0  0  0  0  0  0  0  0  0
  -11.8812    3.8335   22.6820 C   0  0  0  0  0  0  0  0  0  0  0  0
  -13.2240    3.6742   23.1060 C   0  0  0  0  0  0  0  0  0  0  0  0
   -6.3286   -2.9059   29.8576 C   0  0  0  0  0  0  0  0  0  0  0  0
   -6.9324   -4.1972   30.0774 C   0  0  0  0  0  0  0  0  0  0  0  0
   -6.5854   -5.1468   29.1110 C   0  0  0  0  0  0  0  0  0  0  0  0
   -5.3132   -3.7307   28.0638 C   0  0  0  0  0  0  0  0  0  0  0  0
   -4.4083   -3.3344   26.8641 C   0  0  0  0  0  0  0  0  0  0  0  0
   -5.7998   -4.9270   28.1098 C   0  0  0  0  0  0  0  0  0  0  0  0
   -3.0881   -3.3109   27.0095 C   0  0  0  0  0  0  0  0  0  0  0  0
   -2.2077   -3.1137   26.0096 C   0  0  0  0  0  0  0  0  0  0  0  0
   -2.7846   -2.5530   24.8044 C   0  0  0  0  0  0  0  0  0  0  0  0
   -4.1823   -2.4529   24.6655 C   0  0  0  0  0  0  0  0  0  0  0  0
   -5.0147   -2.8310   25.7263 C   0  0  0  0  0  0  0  0  0  0  0  0
   -6.4550   -2.7331   25.5538 C   0  0  0  0  0  0  0  0  0  0  0  0
   -6.9821   -1.9861   24.5714 C   0  0  0  0  0  0  0  0  0  0  0  0
   -8.0181   -1.8440   24.2639 C   0  0  0  0  0  0  0  0  0  0  0  0
   -8.5210   -0.9073   23.2218 C   0  0  0  0  0  0  0  0  0  0  0  0
  2  7  1  0
  4 13  1  0
 10 14  1  0
 14 15  1  0
 14 16  1  1
 15 17  1  0
 17 18  2  0
  9 19  1  0
 18 19  1  0
  6 20  1  0
 29 30  1  0
 36 37  1  0
 37 38  2  3
 38 39  1  0
 39 40  1  0
 20 21  2  0
 21 22  1  0
 22 25  2  0
 25 24  1  0
 24 23  2  0
 23 20  1  0
  1  2  2  0
  2  3  1  0
  3  6  2  0
  6  5  1  0
  5  4  2  0
  4  1  1  0
 16 26  2  0
 26 27  1  0
 27 28  2  0
 28 31  1  0
 31 29  2  0
 29 16  1  0
  7  8  2  0
  8  9  1  0
  9 10  2  0
 10 12  1  0
 12 11  2  0
 11  7  1  0
 30 32  2  0
 32 33  1  0
 33 34  2  0
 34 35  1  0
 35 36  2  0
 36 30  1  0
M  END
$$$$
