No_3473-complexes_sdf/6BKW-FPZ/2024-09-17-14-21-01/
     RDKit          3D

 18 21  0  0  0  0  0  0  0  0999 V2000
   -7.7129    4.2099   27.0854 C   0  0  0  0  0  0  0  0  0  0  0  0
   -8.2112    3.0637   26.9225 C   0  0  0  0  0  0  0  0  0  0  0  0
   -8.4224    5.2106   27.8516 C   0  0  0  0  0  0  0  0  0  0  0  0
   -9.3720    2.7081   27.2300 C   0  0  0  0  0  0  0  0  0  0  0  0
   -9.7994    4.9763   28.0403 C   0  0  0  0  0  0  0  0  0  0  0  0
  -10.2691    3.6888   27.7912 C   0  0  0  0  0  0  0  0  0  0  0  0
  -11.6882    3.3446   28.1338 C   0  0  0  0  0  0  0  0  0  0  0  0
  -12.5189    4.1949   28.4240 C   0  0  0  0  0  0  0  0  0  0  0  0
  -11.9674    1.9501   28.2962 C   0  0  0  0  0  0  0  0  0  0  0  0
  -13.8420    3.9397   28.8344 C   0  0  0  0  0  0  0  0  0  0  0  0
  -13.2695    1.6057   28.7473 C   0  0  0  0  0  0  0  0  0  0  0  0
  -13.6007    0.1852   28.8895 C   0  0  0  0  0  0  0  0  0  0  0  0
  -14.1731    2.6127   28.9858 C   0  0  0  0  0  0  0  0  0  0  0  0
  -12.6990   -0.6526   28.5026 C   0  0  0  0  0  0  0  0  0  0  0  0
  -11.3790   -0.3020   28.0530 C   0  0  0  0  0  0  0  0  0  0  0  0
  -11.0526    0.9444   27.9893 C   0  0  0  0  0  0  0  0  0  0  0  0
   -9.9207    1.3093   27.3812 C   0  0  0  0  0  0  0  0  0  0  0  0
   -9.0140    0.4173   26.9633 O   0  0  0  0  0  0  0  0  0  0  0  0
  6  7  1  0
  4 17  1  0
 16 17  1  0
 17 18  2  0
  1  2  2  0
  2  4  1  0
  4  6  2  0
  6  5  1  0
  5  3  2  0
  3  1  1  0
 11 12  2  0
 12 14  1  0
 14 15  2  0
 15 16  1  0
 16  9  2  0
  7  8  2  0
  8 10  1  0
 10 13  2  0
 13 11  1  0
 11  9  1  0
  9  7  1  0
M  END
$$$$
