No_3139-complexes_sdf/6BKW-FPZ/2024-09-17-14-21-01/
     RDKit          3D

 17 18  0  0  0  0  0  0  0  0999 V2000
   -7.9040    3.9820   27.1177 C   0  0  0  0  0  0  0  0  0  0  0  0
   -8.2057    2.8231   26.8733 C   0  0  0  0  0  0  0  0  0  0  0  0
   -9.2962    2.4021   26.1155 C   0  0  0  0  0  0  0  0  0  0  0  0
   -8.7358    5.0662   26.5917 C   0  0  0  0  0  0  0  0  0  0  0  0
   -9.7618    4.7023   25.7546 C   0  0  0  0  0  0  0  0  0  0  0  0
  -10.0066    3.4105   25.4922 C   0  0  0  0  0  0  0  0  0  0  0  0
   -8.3943    6.4760   26.8801 C   0  0  0  0  0  0  0  0  0  0  0  0
   -7.6749    7.3286   26.8288 C   0  0  0  0  0  0  0  0  0  0  0  0
   -7.3362    1.6560   27.4564 C   0  0  0  0  0  0  0  0  0  0  0  0
   -7.7814    0.4686   27.4484 O   0  0  0  0  0  0  0  0  0  0  0  0
   -6.1221    1.9049   27.8472 O   0  0  0  0  0  0  0  0  0  0  0  0
   -5.1917    0.8963   28.0337 C   0  0  0  0  0  0  0  0  0  0  0  0
   -3.9318    1.3951   27.9589 C   0  0  0  0  0  0  0  0  0  0  0  0
   -2.8813    0.3625   28.1251 C   0  0  0  0  0  0  0  0  0  0  0  0
   -3.2229   -0.8504   28.7408 C   0  0  0  0  0  0  0  0  0  0  0  0
   -4.5697   -1.1964   28.8588 C   0  0  0  0  0  0  0  0  0  0  0  0
   -5.5576   -0.2659   28.5826 C   0  0  0  0  0  0  0  0  0  0  0  0
  4  7  1  0
  7  8  3  0
  2  9  1  0
  9 10  2  0
  9 11  1  0
 11 12  1  0
 12 13  2  0
 13 14  1  0
 14 15  2  0
 15 16  1  0
 16 17  2  0
 17 12  1  0
  1  2  2  0
  2  3  1  0
  3  6  2  0
  6  5  1  0
  5  4  2  0
  4  1  1  0
M  END
$$$$
