No_3485-complexes_sdf/6BKW-FPZ/2024-09-17-14-21-01/
     RDKit          3D

 35 38  0  0  0  0  0  0  0  0999 V2000
   -7.7129    4.2099   27.0854 C   0  0  0  0  0  0  0  0  0  0  0  0
   -7.7814    5.1722   27.8972 C   0  0  0  0  0  0  0  0  0  0  0  0
   -8.8522    3.8137   26.2657 C   0  0  0  0  0  0  0  0  0  0  0  0
   -9.9224    4.6845   26.2875 C   0  0  0  0  0  0  0  0  0  0  0  0
   -8.8204    6.1727   27.7799 C   0  0  0  0  0  0  0  0  0  0  0  0
   -9.9053    5.8748   27.0014 C   0  0  0  0  0  0  0  0  0  0  0  0
   -8.6588    2.5600   25.5577 C   0  0  0  0  0  0  0  0  0  0  0  0
   -9.4046    2.3586   24.5571 N   0  0  0  0  0  0  0  0  0  0  0  0
  -10.3255    1.6858   24.3646 C   0  0  0  0  0  0  0  0  0  0  0  0
  -10.6305    0.7291   25.1151 C   0  0  0  0  0  0  0  0  0  0  0  0
  -11.3403    1.9565   23.5519 O   0  0  0  0  0  0  0  0  0  0  0  0
  -10.5491    0.2225   25.9828 C   0  0  0  0  0  0  0  0  0  0  0  0
   -7.9577    1.6763   26.1140 O   0  0  0  0  0  0  0  0  0  0  0  0
  -10.8605   -0.6243   27.0335 C   0  0  0  0  0  0  0  0  0  0  0  0
  -10.7565   -1.2322   28.2163 C   0  0  0  0  0  0  0  0  0  0  0  0
  -10.9177   -2.3913   28.5648 C   0  0  0  0  0  0  0  0  0  0  0  0
  -10.8786   -2.8652   29.9403 C   0  0  0  0  0  0  0  0  0  0  0  0
  -10.7337   -3.9895   30.4640 C   0  0  0  0  0  0  0  0  0  0  0  0
  -10.5637   -4.2079   31.8452 C   0  0  0  0  0  0  0  0  0  0  0  0
  -10.5643   -3.0778   32.7227 C   0  0  0  0  0  0  0  0  0  0  0  0
  -10.7240   -1.8145   32.1676 C   0  0  0  0  0  0  0  0  0  0  0  0
  -10.8428   -1.6415   30.8732 C   0  0  0  0  0  0  0  0  0  0  0  0
  -11.1723   -3.3707   27.6066 C   0  0  0  0  0  0  0  0  0  0  0  0
  -12.2716   -3.2832   26.9100 C   0  0  0  0  0  0  0  0  0  0  0  0
  -13.3831   -2.5664   27.3306 C   0  0  0  0  0  0  0  0  0  0  0  0
  -14.6005   -2.5912   26.5416 C   0  0  0  0  0  0  0  0  0  0  0  0
  -14.5134   -3.2890   25.4046 C   0  0  0  0  0  0  0  0  0  0  0  0
  -13.4278   -3.9848   24.9511 C   0  0  0  0  0  0  0  0  0  0  0  0
  -12.3302   -4.0360   25.7126 C   0  0  0  0  0  0  0  0  0  0  0  0
  -10.1637   -4.3978   27.4204 C   0  0  0  0  0  0  0  0  0  0  0  0
   -9.1282   -4.5498   27.6336 C   0  0  0  0  0  0  0  0  0  0  0  0
   -8.2633   -5.6413   27.4287 C   0  0  0  0  0  0  0  0  0  0  0  0
   -8.8652   -6.6666   26.7688 C   0  0  2  0  0  0  0  0  0  0  0  0
  -10.5059   -5.6742   26.8098 N   0  0  0  0  0  0  0  0  0  0  0  0
   -8.1012   -7.8424   26.4705 N   0  0  0  0  0  0  0  0  0  0  0  0
  3  7  1  0
  7  8  1  0
  8  9  1  0
  9 10  1  0
  9 11  2  0
 10 12  3  0
  7 13  2  0
 12 14  1  0
 14 15  1  0
 15 16  2  3
 16 17  1  0
 16 23  1  0
 23 30  1  0
 30 31  1  0
 31 32  2  0
 32 33  1  0
 30 34  2  0
 33 34  1  0
 33 35  1  1
 23 24  1  0
 17 18  2  0
 18 19  1  0
 19 20  2  0
 20 21  1  0
 21 22  2  0
 22 17  1  0
 24 25  2  0
 25 26  1  0
 26 27  2  0
 27 28  1  0
 28 29  2  0
 29 24  1  0
  1  2  2  0
  2  5  1  0
  5  6  2  0
  6  4  1  0
  4  3  2  0
  3  1  1  0
M  END
$$$$
