No_3402-complexes_sdf/6BKW-FPZ/2024-09-17-14-21-01/
     RDKit          3D

 12 13  0  0  0  0  0  0  0  0999 V2000
   -7.7129    4.2099   27.0854 C   0  0  0  0  0  0  0  0  0  0  0  0
   -7.7814    5.1722   27.8972 C   0  0  0  0  0  0  0  0  0  0  0  0
   -8.8776    3.8408   26.3416 C   0  0  0  0  0  0  0  0  0  0  0  0
   -8.9136    2.6330   25.5655 C   0  0  0  0  0  0  0  0  0  0  0  0
   -8.8361    6.1389   27.9032 C   0  0  0  0  0  0  0  0  0  0  0  0
   -9.8295    4.8219   26.2725 C   0  0  0  0  0  0  0  0  0  0  0  0
   -9.8494    5.9177   27.0428 C   0  0  0  0  0  0  0  0  0  0  0  0
   -8.3266    1.4961   26.2131 C   0  0  0  0  0  0  0  0  0  0  0  0
   -8.3832    0.2448   25.6185 C   0  0  0  0  0  0  0  0  0  0  0  0
   -8.9770    0.2167   24.3466 C   0  0  0  0  0  0  0  0  0  0  0  0
   -9.4649    2.4009   24.3746 C   0  0  0  0  0  0  0  0  0  0  0  0
   -9.4877    1.2701   23.7469 C   0  0  0  0  0  0  0  0  0  0  0  0
  3  4  1  0
  4  8  2  0
  8  9  1  0
  9 10  2  0
 10 12  1  0
 12 11  2  0
 11  4  1  0
  1  2  2  0
  2  5  1  0
  5  7  2  0
  7  6  1  0
  6  3  2  0
  3  1  1  0
M  END
$$$$
