No_3997-complexes_sdf/6BKW-FPZ/2024-09-17-14-21-01/
     RDKit          3D

 36 40  0  0  0  0  0  0  0  0999 V2000
   -7.2496    3.8871   27.4508 C   0  0  0  0  0  0  0  0  0  0  0  0
   -7.9379    4.9063   27.8518 C   0  0  0  0  0  0  0  0  0  0  0  0
   -7.5112    6.1898   27.6280 C   0  0  0  0  0  0  0  0  0  0  0  0
   -7.4783    2.5435   27.5904 C   0  0  0  0  0  0  0  0  0  0  0  0
   -6.6064    1.5370   27.1750 C   0  0  0  0  0  0  0  0  0  0  0  0
   -6.4382    0.4862   27.9021 C   0  0  0  0  0  0  0  0  0  0  0  0
   -7.4924   -0.5142   27.9242 C   0  0  0  0  0  0  0  0  0  0  0  0
   -8.8030    0.1848   27.7575 C   0  0  0  0  0  0  0  0  0  0  0  0
   -8.7969    1.6443   27.4923 C   0  0  0  0  0  0  0  0  0  0  0  0
   -4.9669   -0.1254   27.8091 C   0  0  0  0  0  0  0  0  0  0  0  0
   -4.4087    0.0177   29.1179 C   0  0  0  0  0  0  0  0  0  0  0  0
   -3.2518   -0.7465   29.4190 C   0  0  0  0  0  0  0  0  0  0  0  0
   -2.5349   -1.2912   28.3682 C   0  0  0  0  0  0  0  0  0  0  0  0
   -4.0345    0.4788   26.8907 C   0  0  0  0  0  0  0  0  0  0  0  0
   -2.6823   -0.4595   27.0975 C   0  0  0  0  0  0  0  0  0  0  0  0
   -3.4594   -1.6860   30.5741 C   0  0  0  0  0  0  0  0  0  0  0  0
   -3.8075   -2.7233   30.4908 C   0  0  0  0  0  0  0  0  0  0  0  0
   -4.2203   -3.5210   31.5782 C   0  0  0  0  0  0  0  0  0  0  0  0
   -3.1053   -0.9535   31.8665 C   0  0  0  0  0  0  0  0  0  0  0  0
   -3.4218   -1.6843   33.0666 C   0  0  0  0  0  0  0  0  0  0  0  0
   -3.9513   -2.9844   32.9312 C   0  0  0  0  0  0  0  0  0  0  0  0
  -10.0550    2.4255   27.5483 C   0  0  0  0  0  0  0  0  0  0  0  0
  -11.0335    2.1236   26.8110 C   0  0  0  0  0  0  0  0  0  0  0  0
  -12.2931    2.8093   26.8932 C   0  0  0  0  0  0  0  0  0  0  0  0
  -12.3323    3.9932   27.7431 C   0  0  0  0  0  0  0  0  0  0  0  0
  -11.1389    4.3528   28.4167 C   0  0  0  0  0  0  0  0  0  0  0  0
  -10.0599    3.6180   28.3981 C   0  0  0  0  0  0  0  0  0  0  0  0
   -9.4998    4.9194   28.0642 C   0  0  2  0  0  0  0  0  0  0  0  0
  -10.2413    6.2100   27.5900 C   0  0  0  0  0  0  0  0  0  0  0  0
   -3.1110   -1.0868   34.3931 C   0  0  0  0  0  0  0  0  0  0  0  0
   -4.0077   -0.8885   35.1489 O   0  0  0  0  0  0  0  0  0  0  0  0
   -1.8849   -0.6346   34.6332 O   0  0  0  0  0  0  0  0  0  0  0  0
   -2.4260   -1.1766   25.9027 O   0  0  0  0  0  0  0  0  0  0  0  0
   -7.4508   -1.8618   28.2099 C   0  0  0  0  0  0  0  0  0  0  0  0
   -6.9204   -2.7558   27.3583 C   0  0  0  0  0  0  0  0  0  0  0  0
   -6.7027   -4.0930   27.7560 C   0  0  0  0  0  0  0  0  0  0  0  0
  1  2  1  0
  2  3  2  0
  1  4  1  0
  6 10  1  0
 12 16  1  0
  9 22  1  0
  2 28  1  0
 27 28  1  0
 28 29  1  6
 20 30  1  0
 30 31  2  0
 30 32  1  0
 15 33  1  0
  7 34  1  0
 34 35  2  3
 35 36  1  0
 22 23  2  0
 23 24  1  0
 24 25  2  0
 25 26  1  0
 26 27  2  0
 27 22  1  0
 16 17  2  0
 17 18  1  0
 18 21  2  0
 21 20  1  0
 20 19  2  0
 19 16  1  0
 10 11  2  0
 11 12  1  0
 12 13  2  0
 13 15  1  0
 15 14  2  0
 14 10  1  0
  4  5  2  0
  5  6  1  0
  6  7  2  0
  7  8  1  0
  8  9  2  0
  9  4  1  0
M  END
$$$$
