No_383-complexes_sdf/6BKW-FPZ/2024-09-17-14-21-01/
     RDKit          3D

 14 15  0  0  0  0  0  0  0  0999 V2000
   -7.9040    3.9820   27.1177 C   0  0  0  0  0  0  0  0  0  0  0  0
   -9.0711    4.3164   27.0630 C   0  0  0  0  0  0  0  0  0  0  0  0
   -9.9692    3.7224   26.1073 C   0  0  0  0  0  0  0  0  0  0  0  0
   -7.4776    2.6994   26.6283 C   0  0  0  0  0  0  0  0  0  0  0  0
   -8.4406    1.9440   25.9776 C   0  0  0  0  0  0  0  0  0  0  0  0
   -9.6379    2.5001   25.6881 C   0  0  0  0  0  0  0  0  0  0  0  0
   -7.0137    4.6011   27.9177 F   0  0  0  0  0  0  0  0  0  0  0  0
  -10.7202    1.8986   24.7952 C   0  0  0  0  0  0  0  0  0  0  0  0
  -11.3613    2.5455   23.9953 C   0  0  0  0  0  0  0  0  0  0  0  0
  -11.5953    4.0266   24.3806 C   0  0  0  0  0  0  0  0  0  0  0  0
  -10.7516    4.6084   25.2769 C   0  0  0  0  0  0  0  0  0  0  0  0
  -12.3599    2.0641   23.0645 C   0  0  0  0  0  0  0  0  0  0  0  0
  -12.9624    1.1415   23.0559 C   0  0  0  0  0  0  0  0  0  0  0  0
  -13.8289    0.6181   22.0072 C   0  0  0  0  0  0  0  0  0  0  0  0
  1  7  1  0
  9 12  1  0
 12 13  2  3
 13 14  1  0
  1  2  2  0
  2  3  1  0
  6  5  1  0
  5  4  2  0
  4  1  1  0
  3  6  2  0
  6  8  1  0
  8  9  2  0
  9 10  1  0
 10 11  2  0
 11  3  1  0
M  END
$$$$
