No_3670-complexes_sdf/6BKW-FPZ/2024-09-17-14-21-01/
     RDKit          3D

 18 18  0  0  0  0  0  0  0  0999 V2000
   -7.2496    3.8871   27.4508 C   0  0  0  0  0  0  0  0  0  0  0  0
   -8.5096    4.0291   27.2770 C   0  0  0  0  0  0  0  0  0  0  0  0
   -9.2677    5.1714   27.5773 C   0  0  0  0  0  0  0  0  0  0  0  0
   -9.2765    2.8248   26.8371 C   0  0  0  0  0  0  0  0  0  0  0  0
   -8.6731    1.7312   26.5464 C   0  0  0  0  0  0  0  0  0  0  0  0
   -6.5350    2.6522   27.3724 C   0  0  0  0  0  0  0  0  0  0  0  0
   -7.2308    1.5739   26.9609 C   0  0  0  0  0  0  0  0  0  0  0  0
  -10.4997    5.2632   27.8924 O   0  0  0  0  0  0  0  0  0  0  0  0
   -8.5459    6.3678   27.5284 O   0  0  0  0  0  0  0  0  0  0  0  0
   -6.5486    0.3171   26.7043 C   0  0  0  0  0  0  0  0  0  0  0  0
   -6.6718   -0.3372   25.7774 O   0  0  0  0  0  0  0  0  0  0  0  0
   -5.7787   -0.1254   27.7990 O   0  0  0  0  0  0  0  0  0  0  0  0
   -5.5866   -1.3744   28.1763 C   0  0  0  0  0  0  0  0  0  0  0  0
   -5.1101   -1.3782   29.4322 C   0  0  0  0  0  0  0  0  0  0  0  0
   -3.9600   -1.7492   29.7813 C   0  0  0  0  0  0  0  0  0  0  0  0
   -3.3800   -1.6363   31.1632 C   0  0  0  0  0  0  0  0  0  0  0  0
   -4.2308   -1.1016   32.1722 C   0  0  0  0  0  0  0  0  0  0  0  0
   -5.5267   -0.7549   31.8291 C   0  0  0  0  0  0  0  0  0  0  0  0
  2  3  1  0
  3  8  2  0
  3  9  1  0
  7 10  1  0
 10 11  2  0
 10 12  1  0
 12 13  1  0
 13 14  2  3
 14 15  1  0
 15 16  1  0
 16 17  2  3
 17 18  1  0
  1  2  2  0
  2  4  1  0
  4  5  2  0
  5  7  1  0
  7  6  2  0
  6  1  1  0
M  END
$$$$
