No_3569-complexes_sdf/6BKW-FPZ/2024-09-17-14-21-01/
     RDKit          3D

 17 18  0  0  0  0  0  0  0  0999 V2000
   -7.7129    4.2099   27.0854 C   0  0  0  0  0  0  0  0  0  0  0  0
   -8.2112    3.0637   26.9225 C   0  0  0  0  0  0  0  0  0  0  0  0
   -8.5108    5.3904   26.9436 C   0  0  0  0  0  0  0  0  0  0  0  0
   -7.9752    6.6981   27.2112 C   0  0  0  0  0  0  0  0  0  0  0  0
   -9.5213    2.8208   26.4688 C   0  0  0  0  0  0  0  0  0  0  0  0
  -10.2979    3.9327   26.2378 C   0  0  0  0  0  0  0  0  0  0  0  0
   -9.7894    5.2123   26.4395 C   0  0  0  0  0  0  0  0  0  0  0  0
   -7.1839    1.6335   27.2373 Cl  0  0  0  0  0  0  0  0  0  0  0  0
   -8.6373    7.7977   26.8084 N   0  0  0  0  0  0  0  0  0  0  0  0
   -6.8507    6.7802   27.7980 O   0  0  0  0  0  0  0  0  0  0  0  0
   -9.9624    1.4218   26.2394 C   0  0  0  0  0  0  0  0  0  0  0  0
  -10.5266    0.7257   27.2190 C   0  0  0  0  0  0  0  0  0  0  0  0
  -10.9469   -0.6183   27.1773 C   0  0  0  0  0  0  0  0  0  0  0  0
  -11.5444   -1.2412   28.3011 C   0  0  0  0  0  0  0  0  0  0  0  0
  -12.0402   -0.4237   29.3351 C   0  0  0  0  0  0  0  0  0  0  0  0
  -11.8457    0.9484   29.3111 C   0  0  0  0  0  0  0  0  0  0  0  0
  -11.1227    1.5729   28.3358 C   0  0  0  0  0  0  0  0  0  0  0  0
  3  4  1  0
  2  8  1  0
  4  9  1  0
  4 10  2  0
  5 11  1  0
 11 12  1  0
 12 13  2  0
 13 14  1  0
 14 15  2  0
 15 16  1  0
 16 17  2  0
 17 12  1  0
  1  2  2  0
  2  5  1  0
  5  6  2  0
  6  7  1  0
  7  3  2  0
  3  1  1  0
M  END
$$$$
