No_3535-complexes_sdf/6BKW-FPZ/2024-09-17-14-21-01/
     RDKit          3D

 29 32  0  0  0  0  0  0  0  0999 V2000
   -7.7129    4.2099   27.0854 C   0  0  0  0  0  0  0  0  0  0  0  0
   -7.7814    5.1722   27.8972 C   0  0  0  0  0  0  0  0  0  0  0  0
   -8.8776    3.8408   26.3416 C   0  0  0  0  0  0  0  0  0  0  0  0
   -9.9844    4.6492   26.4743 C   0  0  0  0  0  0  0  0  0  0  0  0
   -8.7830    6.1594   27.8870 C   0  0  0  0  0  0  0  0  0  0  0  0
  -11.0777    4.2772   25.6418 C   0  0  2  0  0  0  0  0  0  0  0  0
   -9.9463    5.8095   27.1423 C   0  0  0  0  0  0  0  0  0  0  0  0
  -12.2520    3.8316   26.0041 C   0  0  0  0  0  0  0  0  0  0  0  0
  -12.4991    3.6984   27.3872 C   0  0  0  0  0  0  0  0  0  0  0  0
  -13.7510    3.3534   27.9690 C   0  0  0  0  0  0  0  0  0  0  0  0
  -14.7970    3.3194   27.0801 C   0  0  0  0  0  0  0  0  0  0  0  0
  -13.4611    3.8494   25.2611 C   0  0  0  0  0  0  0  0  0  0  0  0
  -14.6894    3.5774   25.7396 C   0  0  0  0  0  0  0  0  0  0  0  0
  -10.6356    3.8045   24.2646 C   0  0  0  0  0  0  0  0  0  0  0  0
   -8.6841    2.8708   25.5021 F   0  0  0  0  0  0  0  0  0  0  0  0
  -10.6317    4.8931   23.3278 C   0  0  0  0  0  0  0  0  0  0  0  0
  -10.6085    2.5782   23.7918 C   0  0  0  0  0  0  0  0  0  0  0  0
  -10.7040    1.4441   24.5752 C   0  0  0  0  0  0  0  0  0  0  0  0
  -10.5620    2.3839   22.3994 C   0  0  0  0  0  0  0  0  0  0  0  0
  -10.3757    3.3585   21.4296 C   0  0  0  0  0  0  0  0  0  0  0  0
  -10.4373    4.7261   21.9887 C   0  0  0  0  0  0  0  0  0  0  0  0
   -9.9534    0.8792   25.1583 C   0  0  0  0  0  0  0  0  0  0  0  0
  -10.0990   -0.4871   25.8077 C   0  0  0  0  0  0  0  0  0  0  0  0
  -11.4034   -0.9119   25.8349 C   0  0  0  0  0  0  0  0  0  0  0  0
  -12.4159   -0.2754   25.1441 C   0  0  0  0  0  0  0  0  0  0  0  0
  -12.1243    0.8750   24.4847 C   0  0  0  0  0  0  0  0  0  0  0  0
  -15.8648    3.5802   24.8738 C   0  0  0  0  0  0  0  0  0  0  0  0
  -16.0710    4.2876   23.9142 C   0  0  0  0  0  0  0  0  0  0  0  0
  -17.1748    4.1891   23.0094 C   0  0  0  0  0  0  0  0  0  0  0  0
  6  4  1  1
  6  8  1  0
  6 14  1  0
  3 15  1  0
 17 18  1  0
 13 27  1  0
 27 28  2  3
 28 29  1  0
 18 22  2  0
 22 23  1  0
 23 24  2  0
 24 25  1  0
 25 26  2  0
 26 18  1  0
 14 16  2  0
 16 21  1  0
 21 20  2  0
 20 19  1  0
 19 17  2  0
 17 14  1  0
  8  9  2  0
  9 10  1  0
 10 11  2  0
 11 13  1  0
 13 12  2  0
 12  8  1  0
  1  2  2  0
  2  5  1  0
  5  7  2  0
  7  4  1  0
  4  3  2  0
  3  1  1  0
M  END
$$$$
