No_3208-complexes_sdf/6BKW-FPZ/2024-09-17-14-21-01/
     RDKit          3D

 21 22  0  0  0  0  0  0  0  0999 V2000
   -7.2496    3.8871   27.4508 C   0  0  0  0  0  0  0  0  0  0  0  0
   -7.6161    2.7143   27.1523 C   0  0  0  0  0  0  0  0  0  0  0  0
   -8.6212    2.2239   26.4074 C   0  0  0  0  0  0  0  0  0  0  0  0
   -8.2540    4.9237   27.1711 C   0  0  0  0  0  0  0  0  0  0  0  0
   -8.0299    6.2902   27.5027 C   0  0  0  0  0  0  0  0  0  0  0  0
   -9.3752    4.6360   26.4536 C   0  0  0  0  0  0  0  0  0  0  0  0
   -9.6012    3.2992   26.1125 C   0  0  0  0  0  0  0  0  0  0  0  0
   -8.8738    7.3551   27.0512 C   0  0  0  0  0  0  0  0  0  0  0  0
   -6.5819    1.5494   27.5554 C   0  0  0  0  0  0  0  0  0  0  0  0
   -6.8372    0.1775   27.4790 C   0  0  0  0  0  0  0  0  0  0  0  0
   -5.9743   -0.7112   27.8920 C   0  0  0  0  0  0  0  0  0  0  0  0
   -4.7198   -0.2717   28.4598 C   0  0  0  0  0  0  0  0  0  0  0  0
   -4.4684    1.0846   28.5465 C   0  0  0  0  0  0  0  0  0  0  0  0
   -5.3107    1.9635   28.1428 C   0  0  0  0  0  0  0  0  0  0  0  0
  -10.7510    2.9117   25.2849 C   0  0  0  0  0  0  0  0  0  0  0  0
  -11.9325    2.5968   25.9190 C   0  0  0  0  0  0  0  0  0  0  0  0
  -10.6567    2.8557   23.8860 C   0  0  0  0  0  0  0  0  0  0  0  0
   -9.9426    3.2401   23.1671 C   0  0  0  0  0  0  0  0  0  0  0  0
   -9.9228    3.2503   21.6917 C   0  0  0  0  0  0  0  0  0  0  0  0
  -10.8861    2.4727   21.1018 C   0  0  0  0  0  0  0  0  0  0  0  0
  -11.8204    1.8633   21.9436 C   0  0  0  0  0  0  0  0  0  0  0  0
  4  5  1  0
  5  8  2  0
  2  9  1  0
  7 15  1  0
 15 16  1  0
 15 17  1  0
 17 18  2  3
 18 19  1  0
 19 20  2  3
 20 21  1  0
  9 10  2  0
 10 11  1  0
 11 12  2  0
 12 13  1  0
 13 14  2  0
 14  9  1  0
  1  2  2  0
  2  3  1  0
  3  7  2  0
  7  6  1  0
  6  4  2  0
  4  1  1  0
M  END
$$$$
