No_3281-complexes_sdf/6BKW-FPZ/2024-09-17-14-21-01/
     RDKit          3D

 20 22  0  0  0  0  0  0  0  0999 V2000
   -7.7129    4.2099   27.0854 C   0  0  0  0  0  0  0  0  0  0  0  0
   -8.2112    3.0637   26.9225 C   0  0  0  0  0  0  0  0  0  0  0  0
   -8.4224    5.2106   27.8516 C   0  0  0  0  0  0  0  0  0  0  0  0
   -9.5628    2.7160   27.4089 C   0  0  0  0  0  0  0  0  0  0  0  0
  -10.0990    1.4393   27.3379 C   0  0  0  0  0  0  0  0  0  0  0  0
   -9.7443    4.9752   28.2420 C   0  0  0  0  0  0  0  0  0  0  0  0
  -10.2586    3.7259   28.1259 C   0  0  0  0  0  0  0  0  0  0  0  0
   -9.2400    0.4052   27.1590 C   0  0  0  0  0  0  0  0  0  0  0  0
   -7.9071    0.6663   26.7058 C   0  0  0  0  0  0  0  0  0  0  0  0
   -7.3957    1.9661   26.6679 C   0  0  0  0  0  0  0  0  0  0  0  0
   -7.9492    6.5022   27.8814 O   0  0  0  0  0  0  0  0  0  0  0  0
   -7.1349   -0.4007   26.3356 O   0  0  0  0  0  0  0  0  0  0  0  0
   -6.1285   -0.7997   27.1120 C   0  0  0  0  0  0  0  0  0  0  0  0
   -6.0650   -0.5643   28.2820 C   0  0  0  0  0  0  0  0  0  0  0  0
   -4.9217   -0.8058   29.1673 C   0  0  0  0  0  0  0  0  0  0  0  0
   -4.7043   -0.3061   30.4956 C   0  0  0  0  0  0  0  0  0  0  0  0
   -3.4841   -0.1991   31.0674 C   0  0  0  0  0  0  0  0  0  0  0  0
   -2.3723   -0.7641   30.3844 C   0  0  0  0  0  0  0  0  0  0  0  0
   -3.7368   -1.3747   28.6831 C   0  0  0  0  0  0  0  0  0  0  0  0
   -2.5086   -1.2918   29.1950 C   0  0  0  0  0  0  0  0  0  0  0  0
  3 11  1  0
  9 12  1  0
 12 13  1  0
 13 14  2  3
 14 15  1  0
  1  2  2  0
  4  7  2  0
  7  6  1  0
  6  3  2  0
  3  1  1  0
  2  4  1  0
  4  5  1  0
  5  8  2  0
  8  9  1  0
  9 10  2  0
 10  2  1  0
 15 16  2  0
 16 17  1  0
 17 18  2  0
 18 20  1  0
 20 19  2  0
 19 15  1  0
M  END
$$$$
