No_3799-complexes_sdf/6BKW-FPZ/2024-09-17-14-21-01/
     RDKit          3D

 17 19  0  0  0  0  0  0  0  0999 V2000
   -7.7129    4.2099   27.0854 C   0  0  0  0  0  0  0  0  0  0  0  0
   -8.2112    3.0637   26.9225 C   0  0  0  0  0  0  0  0  0  0  0  0
   -7.0021    4.5281   28.2396 C   0  0  0  0  0  0  0  0  0  0  0  0
   -9.4237    2.7810   26.2714 C   0  0  0  0  0  0  0  0  0  0  0  0
   -9.8781    3.7859   25.4663 C   0  0  0  0  0  0  0  0  0  0  0  0
   -9.3689    5.0975   25.5965 C   0  0  0  0  0  0  0  0  0  0  0  0
   -8.4784    5.3402   26.5448 C   0  0  0  0  0  0  0  0  0  0  0  0
  -10.9887    3.5347   24.5135 C   0  0  0  0  0  0  0  0  0  0  0  0
  -12.1661    3.1796   24.9300 C   0  0  0  0  0  0  0  0  0  0  0  0
  -10.7171    3.7169   23.1270 C   0  0  0  0  0  0  0  0  0  0  0  0
  -11.6719    3.5546   22.1694 C   0  0  0  0  0  0  0  0  0  0  0  0
  -13.2184    2.9868   23.9720 C   0  0  0  0  0  0  0  0  0  0  0  0
  -12.9464    3.1844   22.5919 C   0  0  0  0  0  0  0  0  0  0  0  0
   -7.6198    1.8393   27.6249 C   0  0  0  0  0  0  0  0  0  0  0  0
   -8.1314    0.6300   27.5308 C   0  0  0  0  0  0  0  0  0  0  0  0
   -9.8138    1.4726   25.9273 C   0  0  0  0  0  0  0  0  0  0  0  0
   -9.2418    0.3984   26.6823 C   0  0  0  0  0  0  0  0  0  0  0  0
  5  8  1  0
  3  1  1  0
  4 16  1  0
 16 17  2  0
 17 15  1  0
 15 14  2  0
 14  2  1  0
  8  9  2  0
  9 12  1  0
 12 13  2  0
 13 11  1  0
 11 10  2  0
 10  8  1  0
  1  2  2  0
  2  4  1  0
  4  5  2  0
  5  6  1  0
  6  7  2  0
  7  1  1  0
M  END
$$$$
