No_3446-complexes_sdf/6BKW-FPZ/2024-09-17-14-21-01/
     RDKit          3D

 32 36  0  0  0  0  0  0  0  0999 V2000
   -7.2496    3.8871   27.4508 C   0  0  0  0  0  0  0  0  0  0  0  0
   -7.9379    4.9063   27.8518 C   0  0  0  0  0  0  0  0  0  0  0  0
   -7.5112    6.1898   27.6280 C   0  0  0  0  0  0  0  0  0  0  0  0
   -7.8078    2.6331   27.2522 C   0  0  0  0  0  0  0  0  0  0  0  0
   -9.1846    2.4724   27.5426 C   0  0  0  0  0  0  0  0  0  0  0  0
   -9.8869    3.5177   28.0783 C   0  0  0  0  0  0  0  0  0  0  0  0
   -9.3786    4.7757   28.1464 C   0  0  0  0  0  0  0  0  0  0  0  0
  -11.2459    2.9929   28.3650 C   0  0  0  0  0  0  0  0  0  0  0  0
  -12.1686    3.1554   27.6074 C   0  0  0  0  0  0  0  0  0  0  0  0
  -12.1945    3.3933   26.4068 C   0  0  0  0  0  0  0  0  0  0  0  0
  -13.3552    3.7244   25.5860 C   0  0  0  0  0  0  0  0  0  0  0  0
  -14.5864    3.7118   26.2397 C   0  0  0  0  0  0  0  0  0  0  0  0
  -13.6321    3.3006   28.1706 C   0  0  0  0  0  0  0  0  0  0  0  0
  -14.7132    3.5492   27.4987 C   0  0  0  0  0  0  0  0  0  0  0  0
   -7.0226    1.4583   26.8441 C   0  0  0  0  0  0  0  0  0  0  0  0
   -7.2084    0.4661   27.4694 O   0  0  0  0  0  0  0  0  0  0  0  0
   -6.2733   -0.5237   27.4771 C   0  0  0  0  0  0  0  0  0  0  0  0
   -6.1328   -1.4448   26.6299 C   0  0  0  0  0  0  0  0  0  0  0  0
   -5.3354   -0.4489   28.6551 C   0  0  0  0  0  0  0  0  0  0  0  0
   -4.3706   -1.3919   28.8747 C   0  0  0  0  0  0  0  0  0  0  0  0
   -3.5381   -1.2268   29.9991 C   0  0  0  0  0  0  0  0  0  0  0  0
   -3.6797   -0.0989   30.8155 C   0  0  0  0  0  0  0  0  0  0  0  0
   -4.5058    0.8880   30.4328 N   0  0  0  0  0  0  0  0  0  0  0  0
   -5.3129    0.7512   29.4579 C   0  0  0  0  0  0  0  0  0  0  0  0
   -5.1807   -2.3725   26.6781 C   0  0  0  0  0  0  0  0  0  0  0  0
   -4.2778   -2.3896   27.8986 C   0  0  0  0  0  0  0  0  0  0  0  0
  -13.6985    3.0563   29.7179 C   0  0  0  0  0  0  0  0  0  0  0  0
  -13.9038    4.1941   30.4793 C   0  0  0  0  0  0  0  0  0  0  0  0
  -13.6654    1.7412   30.1806 C   0  0  0  0  0  0  0  0  0  0  0  0
  -14.8079    4.1370   31.4567 C   0  0  0  0  0  0  0  0  0  0  0  0
  -14.3570    1.5843   31.4334 C   0  0  0  0  0  0  0  0  0  0  0  0
  -15.1780    3.0181   31.9820 C   0  0  0  0  0  0  0  0  0  0  0  0
  6  8  1  0
  8  9  1  0
  4 15  1  0
 15 16  1  0
 16 17  1  0
 13 27  1  0
  3  2  1  0
 27 28  2  0
 28 30  1  0
 30 32  2  0
 32 31  1  0
 31 29  2  0
 29 27  1  0
 17 18  2  0
 18 25  1  0
 25 26  2  0
 26 20  1  0
 19 17  1  0
  1  2  2  0
  2  7  1  0
  7  6  2  0
  6  5  1  0
  5  4  2  0
  4  1  1  0
 19 20  2  0
 20 21  1  0
 21 22  2  0
 22 23  1  0
 23 24  2  0
 24 19  1  0
  9 10  2  0
 10 11  1  0
 11 12  2  0
 12 14  1  0
 14 13  2  0
 13  9  1  0
M  END
$$$$
