No_3231-complexes_sdf/6BKW-FPZ/2024-09-17-14-21-01/
     RDKit          3D

 28 31  0  0  0  0  0  0  0  0999 V2000
   -7.7129    4.2099   27.0854 C   0  0  0  0  0  0  0  0  0  0  0  0
   -8.2112    3.0637   26.9225 C   0  0  0  0  0  0  0  0  0  0  0  0
   -9.5629    2.7997   27.0678 C   0  0  0  0  0  0  0  0  0  0  0  0
   -8.5911    5.3704   27.2036 C   0  0  0  0  0  0  0  0  0  0  0  0
   -9.9544    5.1489   27.1401 C   0  0  0  0  0  0  0  0  0  0  0  0
  -10.4577    3.9280   27.0818 C   0  0  0  0  0  0  0  0  0  0  0  0
   -8.1808    6.6342   27.4567 F   0  0  0  0  0  0  0  0  0  0  0  0
   -9.8813    1.3214   26.8432 C   0  0  0  0  0  0  0  0  0  0  0  0
   -9.0279    0.4382   26.9968 C   0  0  0  0  0  0  0  0  0  0  0  0
   -7.6149    0.7448   27.0139 C   0  0  0  0  0  0  0  0  0  0  0  0
   -7.2255    1.9920   27.0151 C   0  0  0  0  0  0  0  0  0  0  0  0
   -6.4629   -0.2335   26.9328 C   0  0  1  0  0  0  0  0  0  0  0  0
   -5.4696   -0.0726   27.7823 C   0  0  0  0  0  0  0  0  0  0  0  0
   -4.3227   -0.9669   27.7931 C   0  0  0  0  0  0  0  0  0  0  0  0
   -3.2394   -0.6725   28.6958 C   0  0  0  0  0  0  0  0  0  0  0  0
   -3.3530    0.3642   29.6153 C   0  0  0  0  0  0  0  0  0  0  0  0
   -4.5194    1.1595   29.6331 C   0  0  0  0  0  0  0  0  0  0  0  0
   -5.4407    0.9491   28.8060 C   0  0  0  0  0  0  0  0  0  0  0  0
   -6.5832   -1.2811   26.0250 C   0  0  0  0  0  0  0  0  0  0  0  0
   -6.9617   -2.3912   26.1776 N   0  0  0  0  0  0  0  0  0  0  0  0
   -6.1928   -0.9505   24.7061 N   0  0  0  0  0  0  0  0  0  0  0  0
   -7.1304   -3.3774   25.4532 C   0  0  0  0  0  0  0  0  0  0  0  0
   -6.2590   -1.7955   23.7006 C   0  0  0  0  0  0  0  0  0  0  0  0
   -6.7422   -3.1032   24.0267 C   0  0  0  0  0  0  0  0  0  0  0  0
   -6.8789   -4.1054   22.9991 C   0  0  0  0  0  0  0  0  0  0  0  0
   -6.6171   -4.0009   21.9375 O   0  0  0  0  0  0  0  0  0  0  0  0
   -7.3526   -5.3856   23.3762 N   0  0  0  0  0  0  0  0  0  0  0  0
   -7.7036   -5.7581   24.6902 C   0  0  0  0  0  0  0  0  0  0  0  0
  4  7  1  0
 12 10  1  1
 12 19  1  0
 24 25  1  0
 25 26  2  0
 25 27  1  0
 27 28  1  0
 12 13  1  0
 19 20  2  0
 20 22  1  0
 22 24  2  0
 24 23  1  0
 23 21  2  0
 21 19  1  0
 13 14  2  0
 14 15  1  0
 15 16  2  0
 16 17  1  0
 17 18  2  0
 18 13  1  0
  1  2  2  0
  3  6  2  0
  6  5  1  0
  5  4  2  0
  4  1  1  0
  2  3  1  0
  3  8  1  0
  8  9  2  0
  9 10  1  0
 10 11  2  0
 11  2  1  0
M  END
$$$$
