No_3644-complexes_sdf/6BKW-FPZ/2024-09-17-14-21-01/
     RDKit          3D

 29 32  0  0  0  0  0  0  0  0999 V2000
   -7.2496    3.8871   27.4508 C   0  0  0  0  0  0  0  0  0  0  0  0
   -7.9379    4.9063   27.8518 C   0  0  0  0  0  0  0  0  0  0  0  0
   -9.3460    4.8223   27.8695 C   0  0  0  0  0  0  0  0  0  0  0  0
   -5.8517    3.7801   27.6257 C   0  0  0  0  0  0  0  0  0  0  0  0
   -7.9316    2.7294   26.8691 C   0  0  0  0  0  0  0  0  0  0  0  0
   -9.3390    2.7357   26.8266 C   0  0  0  0  0  0  0  0  0  0  0  0
  -10.0683    3.8132   27.3888 C   0  0  0  0  0  0  0  0  0  0  0  0
   -5.2487    2.5443   27.5416 N   0  0  0  0  0  0  0  0  0  0  0  0
  -11.5406    3.7831   27.3830 C   0  0  0  0  0  0  0  0  0  0  0  0
  -12.2398    4.2474   28.2888 C   0  0  0  0  0  0  0  0  0  0  0  0
  -13.6910    4.1883   28.3750 C   0  0  0  0  0  0  0  0  0  0  0  0
  -14.3166    3.5335   27.3529 C   0  0  0  0  0  0  0  0  0  0  0  0
  -12.2588    3.0805   26.4149 C   0  0  0  0  0  0  0  0  0  0  0  0
  -13.5776    3.0306   26.3701 C   0  0  0  0  0  0  0  0  0  0  0  0
   -5.6313    1.5472   28.4194 C   0  0  0  0  0  0  0  0  0  0  0  0
   -5.9936    0.3589   27.8485 C   0  0  0  0  0  0  0  0  0  0  0  0
   -6.0597   -0.7809   28.5754 C   0  0  0  0  0  0  0  0  0  0  0  0
   -6.8036   -1.8839   28.1685 C   0  0  0  0  0  0  0  0  0  0  0  0
   -7.1419   -2.9271   29.0397 C   0  0  0  0  0  0  0  0  0  0  0  0
   -6.5612   -2.9105   30.3414 C   0  0  0  0  0  0  0  0  0  0  0  0
   -5.7553   -1.8961   30.7585 C   0  0  0  0  0  0  0  0  0  0  0  0
   -5.5273   -0.8001   29.8928 C   0  0  0  0  0  0  0  0  0  0  0  0
   -5.0097    1.5526   29.5404 O   0  0  0  0  0  0  0  0  0  0  0  0
   -5.2442   -2.1381   32.0950 C   0  0  0  0  0  0  0  0  0  0  0  0
   -5.8441   -2.2593   33.0946 C   0  0  0  0  0  0  0  0  0  0  0  0
   -5.3072   -2.3228   34.4624 C   0  0  0  0  0  0  0  0  0  0  0  0
   -3.9660   -2.1332   34.6043 C   0  0  0  0  0  0  0  0  0  0  0  0
   -3.7412   -1.9615   32.1485 C   0  0  0  0  0  0  0  0  0  0  0  0
   -3.1389   -1.9755   33.4513 C   0  0  0  0  0  0  0  0  0  0  0  0
  1  4  1  0
  4  8  1  0
  7  9  1  0
  8 15  1  0
 15 16  1  0
 15 23  2  0
 21 24  1  0
 16 17  1  0
 17 18  2  0
 18 19  1  0
 19 20  2  0
 20 21  1  0
 21 22  2  0
 22 17  1  0
  1  2  2  0
  2  3  1  0
  3  7  2  0
  7  6  1  0
  6  5  2  0
  5  1  1  0
 24 25  2  0
 25 26  1  0
 26 27  2  0
 27 29  1  0
 29 28  2  0
 28 24  1  0
  9 10  2  0
 10 11  1  0
 11 12  2  0
 12 14  1  0
 14 13  2  0
 13  9  1  0
M  END
$$$$
