No_3553-complexes_sdf/6BKW-FPZ/2024-09-17-14-21-01/
     RDKit          3D

 10 10  0  0  0  0  0  0  0  0999 V2000
   -7.2496    3.8871   27.4508 C   0  0  0  0  0  0  0  0  0  0  0  0
   -8.5096    4.0291   27.2770 C   0  0  0  0  0  0  0  0  0  0  0  0
   -9.3451    2.8786   26.9046 C   0  0  0  0  0  0  0  0  0  0  0  0
  -10.6709    3.0505   26.6789 C   0  0  0  0  0  0  0  0  0  0  0  0
   -6.5987    2.6095   27.5132 C   0  0  0  0  0  0  0  0  0  0  0  0
   -7.3529    1.5121   27.2159 C   0  0  0  0  0  0  0  0  0  0  0  0
   -8.6970    1.6824   26.9914 C   0  0  0  0  0  0  0  0  0  0  0  0
  -11.4890    3.6022   27.6443 C   0  0  0  0  0  0  0  0  0  0  0  0
  -12.8937    3.8609   27.4997 C   0  0  0  0  0  0  0  0  0  0  0  0
  -13.4502    3.5389   26.2711 C   0  0  0  0  0  0  0  0  0  0  0  0
  4  8  1  0
  8  9  2  3
  9 10  1  0
  4  3  1  0
  1  2  2  0
  2  3  1  0
  3  7  2  0
  7  6  1  0
  6  5  2  0
  5  1  1  0
M  END
$$$$
