No_3534-complexes_sdf/6BKW-FPZ/2024-09-17-14-21-01/
     RDKit          3D

 16 17  0  0  0  0  0  0  0  0999 V2000
   -7.9040    3.9820   27.1177 C   0  0  0  0  0  0  0  0  0  0  0  0
   -8.2057    2.8231   26.8733 C   0  0  0  0  0  0  0  0  0  0  0  0
   -7.0130    4.3706   28.1140 C   0  0  0  0  0  0  0  0  0  0  0  0
   -9.3829    2.4374   26.1668 C   0  0  0  0  0  0  0  0  0  0  0  0
  -10.0975    3.4171   25.5988 C   0  0  1  0  0  0  0  0  0  0  0  0
   -9.7335    4.7745   25.7705 C   0  0  0  0  0  0  0  0  0  0  0  0
   -8.7317    5.1107   26.5933 C   0  0  2  0  0  0  0  0  0  0  0  0
   -8.4060    6.4842   26.8915 C   0  0  0  0  0  0  0  0  0  0  0  0
   -7.5473    7.0726   27.1167 C   0  0  0  0  0  0  0  0  0  0  0  0
   -6.7774    6.8788   27.9486 C   0  0  0  0  0  0  0  0  0  0  0  0
   -6.5835    5.4525   28.3822 C   0  0  0  0  0  0  0  0  0  0  0  0
  -11.1987    3.1153   24.6619 C   0  0  0  0  0  0  0  0  0  0  0  0
  -12.4480    3.0051   25.0691 C   0  0  0  0  0  0  0  0  0  0  0  0
  -10.9046    2.9811   23.2719 C   0  0  0  0  0  0  0  0  0  0  0  0
  -10.0131    2.5499   22.7172 C   0  0  0  0  0  0  0  0  0  0  0  0
   -9.7743    2.3449   21.2756 C   0  0  0  0  0  0  0  0  0  0  0  0
  1  2  1  0
  1  3  2  0
  2  4  1  0
  4  5  1  0
  5  6  1  0
  1  7  1  0
  7  6  1  6
  7  8  1  0
  8  9  2  0
  9 10  1  0
  3 11  1  0
 10 11  1  0
  5 12  1  6
 12 13  1  0
 12 14  1  0
 14 15  2  3
 15 16  1  0
M  END
$$$$
