No_3817-complexes_sdf/6BKW-FPZ/2024-09-17-14-21-01/
     RDKit          3D

 17 18  0  0  0  0  0  0  0  0999 V2000
   -7.7129    4.2099   27.0854 C   0  0  0  0  0  0  0  0  0  0  0  0
   -7.7814    5.1722   27.8972 C   0  0  0  0  0  0  0  0  0  0  0  0
   -7.2983    2.9533   27.5684 C   0  0  0  0  0  0  0  0  0  0  0  0
   -7.6908    1.8111   26.9553 C   0  0  0  0  0  0  0  0  0  0  0  0
   -8.6533    1.9165   25.9430 C   0  0  0  0  0  0  0  0  0  0  0  0
   -9.2376    3.0581   25.6387 C   0  0  0  0  0  0  0  0  0  0  0  0
   -8.8901    4.1760   26.2867 C   0  0  0  0  0  0  0  0  0  0  0  0
   -8.3894    6.3916   27.5666 N   0  0  0  0  0  0  0  0  0  0  0  0
   -7.0671    0.5323   27.2925 C   0  0  0  0  0  0  0  0  0  0  0  0
   -5.8259    0.4848   27.9365 C   0  0  0  0  0  0  0  0  0  0  0  0
   -5.2459   -0.7265   28.2902 C   0  0  0  0  0  0  0  0  0  0  0  0
   -5.9396   -1.8746   28.0484 C   0  0  0  0  0  0  0  0  0  0  0  0
   -7.3846   -0.8592   27.2621 C   0  0  0  0  0  0  0  0  0  0  0  0
   -3.9015   -0.6327   28.9709 C   0  0  0  0  0  0  0  0  0  0  0  0
   -3.7030   -0.9724   30.0888 N   0  0  0  0  0  0  0  0  0  0  0  0
   -2.8926   -0.2333   28.2219 O   0  0  0  0  0  0  0  0  0  0  0  0
   -2.3822   -0.9085   30.7929 C   0  0  0  0  0  0  0  0  0  0  0  0
  2  8  1  0
  4  9  1  0
  9 10  2  0
 10 11  1  0
 11 12  2  0
  9 13  1  0
 12 13  1  0
 11 14  1  0
 14 15  1  0
 14 16  2  0
 15 17  1  0
  2  1  1  0
  1  3  2  0
  3  4  1  0
  4  5  2  0
  5  6  1  0
  6  7  2  0
  7  1  1  0
M  END
$$$$
