No_3232-complexes_sdf/6BKW-FPZ/2024-09-17-14-21-01/
     RDKit          3D

 30 33  0  0  0  0  0  0  0  0999 V2000
   -7.9040    3.9820   27.1177 C   0  0  0  0  0  0  0  0  0  0  0  0
   -8.2057    2.8231   26.8733 C   0  0  0  0  0  0  0  0  0  0  0  0
   -7.4766    1.7477   27.4593 C   0  0  0  0  0  0  0  0  0  0  0  0
   -8.7468    5.1251   26.6967 C   0  0  0  0  0  0  0  0  0  0  0  0
   -9.7234    4.8589   25.8202 C   0  0  0  0  0  0  0  0  0  0  0  0
   -9.9711    3.5858   25.4266 C   0  0  0  0  0  0  0  0  0  0  0  0
   -9.2394    2.5984   25.9408 C   0  0  0  0  0  0  0  0  0  0  0  0
   -6.7908    1.1561   26.8562 F   0  0  0  0  0  0  0  0  0  0  0  0
   -8.3934    6.5238   27.0688 C   0  0  0  0  0  0  0  0  0  0  0  0
   -8.6694    7.5456   26.4149 N   0  0  0  0  0  0  0  0  0  0  0  0
   -7.6108    6.5633   28.1554 O   0  0  0  0  0  0  0  0  0  0  0  0
   -6.6893    2.3120   28.5290 F   0  0  0  0  0  0  0  0  0  0  0  0
   -8.4498    0.9605   28.1025 F   0  0  0  0  0  0  0  0  0  0  0  0
  -11.0440    3.1657   24.5486 C   0  0  1  0  0  0  0  0  0  0  0  0
  -12.2949    2.9878   24.9037 C   0  0  2  0  0  0  0  0  0  0  0  0
  -12.6222    2.8593   26.1537 C   0  0  0  0  0  0  0  0  0  0  0  0
  -11.8971    2.6648   27.0728 C   0  0  0  0  0  0  0  0  0  0  0  0
  -12.4192    2.4991   28.5507 C   0  0  0  0  0  0  0  0  0  0  0  0
  -11.5404    2.3969   29.6235 C   0  0  0  0  0  0  0  0  0  0  0  0
  -13.6133    1.7188   28.5204 C   0  0  0  0  0  0  0  0  0  0  0  0
  -14.1647    1.3531   29.7625 C   0  0  0  0  0  0  0  0  0  0  0  0
  -14.9816    0.3869   29.8296 C   0  0  0  0  0  0  0  0  0  0  0  0
  -15.6338    0.0256   28.7815 C   0  0  0  0  0  0  0  0  0  0  0  0
  -15.2374    0.4399   27.5029 C   0  0  0  0  0  0  0  0  0  0  0  0
  -14.1516    1.1959   27.4007 C   0  0  0  0  0  0  0  0  0  0  0  0
  -13.7244    1.7765   26.1171 C   0  0  0  0  0  0  0  0  0  0  0  0
  -13.8497    1.0488   24.8994 C   0  0  0  0  0  0  0  0  0  0  0  0
  -12.9865    1.8751   24.0144 C   0  0  0  0  0  0  0  0  0  0  0  0
  -10.6576    3.4610   23.0887 C   0  0  0  0  0  0  0  0  0  0  0  0
  -10.7954    4.6060   22.4520 C   0  0  0  0  0  0  0  0  0  0  0  0
  2  3  1  0
  3  8  1  0
  4  9  1  0
  9 10  1  0
  9 11  2  0
  3 12  1  0
  3 13  1  0
  6 14  1  0
 14 15  1  0
 15 16  1  0
 26 27  1  0
 15 28  1  6
 27 28  2  0
 14 29  1  6
 29 30  2  0
 19 18  1  0
  1  2  2  0
  2  7  1  0
  7  6  2  0
  6  5  1  0
  5  4  2  0
  4  1  1  0
 20 21  1  0
 21 22  2  0
 22 23  1  0
 23 24  2  0
 24 25  1  0
 16 17  2  0
 17 18  1  0
 18 20  2  0
 20 25  1  0
 25 26  2  0
 26 16  1  0
M  END
$$$$
