No_3518-complexes_sdf/6BKW-FPZ/2024-09-17-14-21-01/
     RDKit          3D

 24 26  0  0  0  0  0  0  0  0999 V2000
   -7.7129    4.2099   27.0854 C   0  0  0  0  0  0  0  0  0  0  0  0
   -7.7814    5.1722   27.8972 C   0  0  0  0  0  0  0  0  0  0  0  0
   -7.3155    2.9699   27.6145 C   0  0  0  0  0  0  0  0  0  0  0  0
   -7.6814    1.8188   26.9581 C   0  0  0  0  0  0  0  0  0  0  0  0
   -7.2010    0.5770   27.3247 C   0  0  0  0  0  0  0  0  0  0  0  0
   -5.9696    0.6081   28.0083 C   0  0  0  0  0  0  0  0  0  0  0  0
   -5.3021    1.7942   28.3184 C   0  0  0  0  0  0  0  0  0  0  0  0
   -5.9222    2.9618   28.0230 C   0  0  0  0  0  0  0  0  0  0  0  0
   -8.4168    6.5271   27.5690 C   0  0  0  0  0  0  0  0  0  0  0  0
   -8.6547    4.3291   26.0224 C   0  0  0  0  0  0  0  0  0  0  0  0
   -9.4024    5.5041   25.7254 C   0  0  0  0  0  0  0  0  0  0  0  0
   -9.1994    6.5968   26.4902 C   0  0  0  0  0  0  0  0  0  0  0  0
   -5.3087   -0.7150   28.3158 C   0  0  0  0  0  0  0  0  0  0  0  0
   -4.1665   -0.9733   28.4652 N   0  0  0  0  0  0  0  0  0  0  0  0
   -3.6449   -2.1056   28.9281 C   0  0  0  0  0  0  0  0  0  0  0  0
   -6.1153   -1.7672   28.2172 O   0  0  0  0  0  0  0  0  0  0  0  0
   -8.9301    3.2487   25.2313 O   0  0  0  0  0  0  0  0  0  0  0  0
  -10.0999    3.1626   24.5918 C   0  0  0  0  0  0  0  0  0  0  0  0
  -10.0345    2.4069   23.4281 C   0  0  0  0  0  0  0  0  0  0  0  0
  -11.1063    2.3529   22.5343 C   0  0  0  0  0  0  0  0  0  0  0  0
  -10.9761    1.5408   21.3610 C   0  0  0  0  0  0  0  0  0  0  0  0
   -9.8171    0.6798   21.2276 C   0  0  0  0  0  0  0  0  0  0  0  0
   -8.8209    0.6797   22.1915 C   0  0  0  0  0  0  0  0  0  0  0  0
   -8.9590    1.5522   23.3340 C   0  0  0  0  0  0  0  0  0  0  0  0
  6 13  1  0
 13 14  1  0
 14 15  2  0
 13 16  2  0
 10 17  1  0
 17 18  1  0
  3  1  1  0
 18 19  1  0
  3  4  2  0
  4  5  1  0
  5  6  2  0
  6  7  1  0
  7  8  2  0
  8  3  1  0
  1  2  2  0
  2  9  1  0
  9 12  2  0
 12 11  1  0
 11 10  2  0
 10  1  1  0
 19 20  2  0
 20 21  1  0
 21 22  2  0
 22 23  1  0
 23 24  2  0
 24 19  1  0
M  END
$$$$
