No_3262-complexes_sdf/6BKW-FPZ/2024-09-17-14-21-01/
     RDKit          3D

 26 30  0  0  0  0  0  0  0  0999 V2000
   -7.7129    4.2099   27.0854 C   0  0  0  0  0  0  0  0  0  0  0  0
   -7.7814    5.1722   27.8972 C   0  0  0  0  0  0  0  0  0  0  0  0
   -8.8998    3.8713   26.3707 C   0  0  0  0  0  0  0  0  0  0  0  0
   -9.1401    2.5906   25.9433 C   0  0  0  0  0  0  0  0  0  0  0  0
   -8.5962    6.2844   27.4570 C   0  0  0  0  0  0  0  0  0  0  0  0
   -8.4753    1.5183   26.5895 C   0  0  0  0  0  0  0  0  0  0  0  0
   -7.2724    1.7778   27.3220 C   0  0  0  0  0  0  0  0  0  0  0  0
   -7.0886    3.0120   27.7158 C   0  0  0  0  0  0  0  0  0  0  0  0
   -9.6635    4.9293   25.9336 C   0  0  0  0  0  0  0  0  0  0  0  0
   -9.4735    6.2051   26.4895 C   0  0  0  0  0  0  0  0  0  0  0  0
  -10.0812    2.2780   24.9236 C   0  0  0  0  0  0  0  0  0  0  0  0
  -11.2340    2.7746   24.8413 C   0  0  0  0  0  0  0  0  0  0  0  0
   -9.5513    1.5102   23.7979 C   0  0  0  0  0  0  0  0  0  0  0  0
  -12.0997    2.5040   23.7880 C   0  0  0  0  0  0  0  0  0  0  0  0
  -10.3185    1.2267   22.7292 C   0  0  0  0  0  0  0  0  0  0  0  0
  -11.6204    1.7316   22.6952 C   0  0  0  0  0  0  0  0  0  0  0  0
   -6.4626    0.6375   27.8147 C   0  0  0  0  0  0  0  0  0  0  0  0
   -6.8970   -0.6568   27.9299 C   0  0  0  0  0  0  0  0  0  0  0  0
   -6.2425   -1.5767   28.6460 C   0  0  0  0  0  0  0  0  0  0  0  0
   -5.2200    0.9206   28.3169 C   0  0  0  0  0  0  0  0  0  0  0  0
   -4.4083   -0.0053   28.9901 C   0  0  0  0  0  0  0  0  0  0  0  0
   -4.8952   -1.2537   29.1583 C   0  0  0  0  0  0  0  0  0  0  0  0
   -4.1134   -2.2844   29.8793 C   0  0  0  0  0  0  0  0  0  0  0  0
   -2.9672   -2.2087   29.8965 C   0  0  0  0  0  0  0  0  0  0  0  0
   -2.2746   -0.8273   29.7332 C   0  0  0  0  0  0  0  0  0  0  0  0
   -3.0110    0.2570   29.2523 C   0  0  0  0  0  0  0  0  0  0  0  0
  4 11  1  0
  7 17  1  0
  1  2  2  0
  2  5  1  0
  5 10  2  0
 10  9  1  0
  9  3  2  0
  1  3  1  0
  3  4  1  0
  4  6  2  0
  6  7  1  0
  7  8  2  0
  8  1  1  0
 11 12  2  0
 12 14  1  0
 14 16  2  0
 16 15  1  0
 15 13  2  0
 13 11  1  0
 17 18  2  0
 18 19  1  0
 19 22  2  0
 21 20  2  0
 20 17  1  0
 21 22  1  0
 22 23  1  0
 23 24  2  0
 24 25  1  0
 25 26  2  0
 26 21  1  0
M  END
$$$$
