No_3193-complexes_sdf/6BKW-FPZ/2024-09-17-14-21-01/
     RDKit          3D

 33 37  0  0  0  0  0  0  0  0999 V2000
   -7.9040    3.9820   27.1177 C   0  0  0  0  0  0  0  0  0  0  0  0
   -8.2057    2.8231   26.8733 C   0  0  0  0  0  0  0  0  0  0  0  0
   -8.7695    5.0740   26.7916 C   0  0  0  0  0  0  0  0  0  0  0  0
   -9.9618    4.7598   26.1630 C   0  0  0  0  0  0  0  0  0  0  0  0
   -9.4200    2.4524   26.2850 C   0  0  0  0  0  0  0  0  0  0  0  0
  -10.2590    3.4815   25.9250 C   0  0  0  0  0  0  0  0  0  0  0  0
   -8.1837    6.4186   27.1101 C   0  0  0  0  0  0  0  0  0  0  0  0
   -8.2399    7.4092   27.2583 N   0  0  0  0  0  0  0  0  0  0  0  0
   -7.2962    1.6328   27.2579 C   0  0  0  0  0  0  0  0  0  0  0  0
   -7.6488    0.3032   27.1875 C   0  0  0  0  0  0  0  0  0  0  0  0
   -6.7242   -0.6252   27.5073 C   0  0  0  0  0  0  0  0  0  0  0  0
   -5.4237   -0.2404   27.9392 C   0  0  0  0  0  0  0  0  0  0  0  0
   -5.0912    1.1079   28.0166 C   0  0  0  0  0  0  0  0  0  0  0  0
   -5.9414    2.0213   27.6767 C   0  0  0  0  0  0  0  0  0  0  0  0
   -4.4459   -1.3000   28.3567 C   0  0  0  0  0  0  0  0  0  0  0  0
   -4.5177   -1.8288   29.4955 C   0  0  0  0  0  0  0  0  0  0  0  0
   -4.3663   -1.5402   30.4610 C   0  0  0  0  0  0  0  0  0  0  0  0
   -3.9805   -0.0520   30.8201 C   0  0  0  0  0  0  0  0  0  0  0  0
   -3.7081    0.3247   32.2134 C   0  0  0  0  0  0  0  0  0  0  0  0
   -3.6801   -0.6880   33.1671 C   0  0  0  0  0  0  0  0  0  0  0  0
   -3.9173   -1.8269   32.9363 C   0  0  0  0  0  0  0  0  0  0  0  0
   -4.2928   -2.3253   31.7362 C   0  0  0  0  0  0  0  0  0  0  0  0
   -5.1576   -3.2271   29.2576 C   0  0  0  0  0  0  0  0  0  0  0  0
   -5.9325   -3.6275   28.2751 C   0  0  0  0  0  0  0  0  0  0  0  0
   -5.6297   -3.6733   27.1426 C   0  0  0  0  0  0  0  0  0  0  0  0
   -6.4713   -4.1744   26.0303 C   0  0  0  0  0  0  0  0  0  0  0  0
   -7.7598   -4.4522   26.3766 C   0  0  0  0  0  0  0  0  0  0  0  0
   -8.1627   -4.3853   27.7209 C   0  0  0  0  0  0  0  0  0  0  0  0
   -7.2968   -3.9793   28.7197 C   0  0  0  0  0  0  0  0  0  0  0  0
   -5.3976   -3.6893   30.7573 C   0  0  0  0  0  0  0  0  0  0  0  0
   -4.5563   -3.4728   31.8373 C   0  0  0  0  0  0  0  0  0  0  0  0
   -6.2608   -4.7657   30.8633 C   0  0  0  0  0  0  0  0  0  0  0  0
   -6.4053   -5.4874   32.0761 C   0  0  0  0  0  0  0  0  0  0  0  0
  3  7  1  0
  7  8  3  0
  2  9  1  0
 12 15  1  0
 15 16  1  0
 23 24  1  0
 30 32  1  0
 32 33  2  0
 24 25  2  0
 25 26  1  0
 26 27  2  0
 27 28  1  0
 28 29  2  0
 29 24  1  0
  9 10  2  0
 10 11  1  0
 11 12  2  0
 12 13  1  0
 13 14  2  0
 14  9  1  0
 16 17  1  0
 22 31  1  0
 31 30  2  0
 30 23  1  0
 23 16  2  0
 17 18  2  0
 18 19  1  0
 19 20  2  0
 20 21  1  0
 21 22  2  0
 22 17  1  0
  1  2  2  0
  2  5  1  0
  5  6  2  0
  6  4  1  0
  4  3  2  0
  3  1  1  0
M  END
$$$$
