No_3958-complexes_sdf/6BKW-FPZ/2024-09-17-14-21-01/
     RDKit          3D

 22 23  0  0  0  0  0  0  0  0999 V2000
   -7.9040    3.9820   27.1177 C   0  0  0  0  0  0  0  0  0  0  0  0
   -9.0711    4.3164   27.0630 C   0  0  0  0  0  0  0  0  0  0  0  0
   -9.9692    3.7224   26.1073 C   0  0  0  0  0  0  0  0  0  0  0  0
   -6.9787    4.6761   28.1003 C   0  0  0  0  0  0  0  0  0  0  0  0
   -9.4538    2.6801   25.3673 C   0  0  0  0  0  0  0  0  0  0  0  0
   -8.1927    2.1957   25.6621 C   0  0  0  0  0  0  0  0  0  0  0  0
   -7.4333    2.8255   26.6299 C   0  0  0  0  0  0  0  0  0  0  0  0
  -10.3181    2.0008   24.3846 C   0  0  0  0  0  0  0  0  0  0  0  0
  -11.0032    1.2902   24.6312 N   0  0  0  0  0  0  0  0  0  0  0  0
  -11.8658    0.5996   23.8450 C   0  0  0  0  0  0  0  0  0  0  0  0
   -9.7741    2.1546   23.1894 O   0  0  0  0  0  0  0  0  0  0  0  0
   -7.4732    5.7880   28.6744 N   0  0  0  0  0  0  0  0  0  0  0  0
   -5.8170    4.2996   28.2673 O   0  0  0  0  0  0  0  0  0  0  0  0
  -12.8753    1.0507   23.2787 C   0  0  0  0  0  0  0  0  0  0  0  0
  -13.6805    1.8494   23.8868 C   0  0  0  0  0  0  0  0  0  0  0  0
  -14.8569    2.5263   23.2624 C   0  0  0  0  0  0  0  0  0  0  0  0
  -15.0484    2.2459   21.9227 C   0  0  0  0  0  0  0  0  0  0  0  0
  -14.2252    1.4121   21.2516 C   0  0  0  0  0  0  0  0  0  0  0  0
  -13.1470    0.8495   21.8449 C   0  0  0  0  0  0  0  0  0  0  0  0
  -11.4608   -0.8283   23.6901 C   0  0  0  0  0  0  0  0  0  0  0  0
  -12.0497   -1.7316   24.4781 C   0  0  0  0  0  0  0  0  0  0  0  0
  -11.7251   -3.0905   24.3033 C   0  0  0  0  0  0  0  0  0  0  0  0
  1  4  1  0
  5  8  1  0
  8  9  1  0
  9 10  1  0
  8 11  2  0
  4 12  1  0
  4 13  2  0
 10 14  1  0
 10 20  1  0
 20 21  2  3
 21 22  1  0
 14 15  2  0
 15 16  1  0
 16 17  2  0
 17 18  1  0
 18 19  2  0
 19 14  1  0
  1  2  2  0
  2  3  1  0
  3  5  2  0
  5  6  1  0
  6  7  2  0
  7  1  1  0
M  END
$$$$
