No_3174-complexes_sdf/6BKW-FPZ/2024-09-17-14-21-01/
     RDKit          3D

 13 14  0  0  0  0  0  0  0  0999 V2000
   -7.7129    4.2099   27.0854 C   0  0  0  0  0  0  0  0  0  0  0  0
   -7.7814    5.1722   27.8972 C   0  0  0  0  0  0  0  0  0  0  0  0
   -7.3155    2.9700   27.6145 C   0  0  0  0  0  0  0  0  0  0  0  0
   -7.9010    1.7962   27.2023 C   0  0  0  0  0  0  0  0  0  0  0  0
   -9.0217    1.7658   27.1545 C   0  0  0  0  0  0  0  0  0  0  0  0
   -8.8433    4.0596   26.1987 C   0  0  0  0  0  0  0  0  0  0  0  0
   -9.5672    2.8829   26.2551 C   0  0  0  0  0  0  0  0  0  0  0  0
  -10.8629    2.7526   25.5722 C   0  0  0  0  0  0  0  0  0  0  0  0
  -11.9052    3.1582   26.0681 C   0  0  0  0  0  0  0  0  0  0  0  0
  -13.1316    3.2710   25.4570 C   0  0  0  0  0  0  0  0  0  0  0  0
  -10.8118    2.2519   24.2233 C   0  0  0  0  0  0  0  0  0  0  0  0
  -12.0331    2.3083   23.4872 C   0  0  0  0  0  0  0  0  0  0  0  0
  -13.1656    2.8123   24.1103 C   0  0  0  0  0  0  0  0  0  0  0  0
  1  2  1  0
  7  8  1  0
  8  9  2  0
  9 10  1  0
 10 13  2  0
 13 12  1  0
 12 11  2  0
 11  8  1  0
  1  3  2  0
  3  4  1  0
  4  5  2  0
  5  7  1  0
  7  6  2  0
  6  1  1  0
M  END
$$$$
