No_3573-complexes_sdf/6BKW-FPZ/2024-09-17-14-21-01/
     RDKit          3D

 40 43  0  0  0  0  0  0  0  0999 V2000
   -7.9040    3.9820   27.1177 C   0  0  0  0  0  0  0  0  0  0  0  0
   -8.2057    2.8231   26.8733 C   0  0  0  0  0  0  0  0  0  0  0  0
   -8.7695    5.0740   26.7916 C   0  0  0  0  0  0  0  0  0  0  0  0
   -8.4337    6.4678   27.0913 C   0  0  0  0  0  0  0  0  0  0  0  0
   -9.3742    2.4311   26.2346 C   0  0  0  0  0  0  0  0  0  0  0  0
  -10.2395    3.4267   25.8887 C   0  0  0  0  0  0  0  0  0  0  0  0
   -9.9567    4.7548   26.1374 C   0  0  0  0  0  0  0  0  0  0  0  0
   -7.9449    7.5014   26.9590 N   0  0  0  0  0  0  0  0  0  0  0  0
   -7.0833    1.8146   27.3712 C   0  0  0  0  0  0  0  0  0  0  0  0
   -5.8092    2.1957   27.5764 C   0  0  0  0  0  0  0  0  0  0  0  0
   -4.8743    1.2320   28.0946 C   0  0  0  0  0  0  0  0  0  0  0  0
   -5.1979   -0.1030   28.1684 C   0  0  0  0  0  0  0  0  0  0  0  0
   -7.4860    0.4037   27.4731 C   0  0  0  0  0  0  0  0  0  0  0  0
   -6.5204   -0.4632   27.9090 C   0  0  0  0  0  0  0  0  0  0  0  0
   -4.3640   -0.9905   28.6761 F   0  0  0  0  0  0  0  0  0  0  0  0
  -11.4738    3.0933   25.1453 C   0  0  2  0  0  0  0  0  0  0  0  0
  -11.3796    2.7238   23.9170 C   0  0  0  0  0  0  0  0  0  0  0  0
  -12.5467    2.3911   23.1268 C   0  0  0  0  0  0  0  0  0  0  0  0
  -12.3604    1.8783   21.8235 C   0  0  0  0  0  0  0  0  0  0  0  0
  -11.0453    1.6940   21.2909 C   0  0  0  0  0  0  0  0  0  0  0  0
   -9.9206    1.9846   22.0331 C   0  0  0  0  0  0  0  0  0  0  0  0
  -10.0390    2.4533   23.2872 C   0  0  0  0  0  0  0  0  0  0  0  0
  -12.6937    3.3382   25.8357 C   0  0  0  0  0  0  0  0  0  0  0  0
  -12.8214    3.2850   27.0154 N   0  0  0  0  0  0  0  0  0  0  0  0
  -13.8280    3.8435   27.7233 C   0  0  0  0  0  0  0  0  0  0  0  0
  -13.5678    4.0077   25.1940 O   0  0  0  0  0  0  0  0  0  0  0  0
  -14.9004    4.0834   27.3562 C   0  0  0  0  0  0  0  0  0  0  0  0
  -16.0215    4.5724   28.1562 C   0  0  0  0  0  0  0  0  0  0  0  0
  -15.7377    4.8464   29.5463 C   0  0  0  0  0  0  0  0  0  0  0  0
  -14.4655    4.5568   29.9895 C   0  0  0  0  0  0  0  0  0  0  0  0
  -13.5054    4.0006   29.2266 C   0  0  0  0  0  0  0  0  0  0  0  0
  -16.7828    5.3678   30.4472 C   0  0  0  0  0  0  0  0  0  0  0  0
  -17.2597    6.3681   30.2265 O   0  0  0  0  0  0  0  0  0  0  0  0
  -16.9948    4.6407   31.4792 O   0  0  0  0  0  0  0  0  0  0  0  0
  -16.3832    3.7803   31.9677 C   0  0  0  0  0  0  0  0  0  0  0  0
  -15.4004    4.2039   32.8730 C   0  0  0  0  0  0  0  0  0  0  0  0
  -15.4573    5.0279   33.7806 C   0  0  0  0  0  0  0  0  0  0  0  0
  -14.3717    5.5656   34.5713 C   0  0  0  0  0  0  0  0  0  0  0  0
  -13.1217    4.9087   34.4584 C   0  0  0  0  0  0  0  0  0  0  0  0
  -12.9390    3.9232   33.4541 C   0  0  0  0  0  0  0  0  0  0  0  0
  3  4  1  0
  4  8  3  0
  2  9  1  0
 12 15  1  0
  6 16  1  0
 16 23  1  6
 23 24  1  0
 24 25  1  0
 23 26  2  0
 29 32  1  0
 32 33  2  0
 32 34  1  0
 34 35  1  0
 35 36  1  0
 36 37  1  0
 37 38  2  3
 38 39  1  0
 39 40  2  0
 16 17  1  0
 17 18  2  0
 18 19  1  0
 19 20  2  0
 20 21  1  0
 21 22  2  0
 22 17  1  0
 25 27  2  0
 27 28  1  0
 28 29  2  0
 29 30  1  0
 30 31  2  0
 31 25  1  0
  1  2  2  0
  2  5  1  0
  5  6  2  0
  6  7  1  0
  7  3  2  0
  3  1  1  0
  9 10  2  0
 10 11  1  0
 11 12  2  0
 12 14  1  0
 14 13  2  0
 13  9  1  0
M  END
$$$$
