No_3918-complexes_sdf/6BKW-FPZ/2024-09-17-14-21-01/
     RDKit          3D

 22 24  0  0  0  0  0  0  0  0999 V2000
   -7.9040    3.9820   27.1177 C   0  0  0  0  0  0  0  0  0  0  0  0
   -8.2057    2.8231   26.8733 C   0  0  0  0  0  0  0  0  0  0  0  0
   -7.0130    4.3706   28.1140 C   0  0  0  0  0  0  0  0  0  0  0  0
   -7.4093    1.7370   27.3857 C   0  0  0  0  0  0  0  0  0  0  0  0
   -6.1943    2.1490   28.0403 C   0  0  0  0  0  0  0  0  0  0  0  0
   -5.2077    1.1775   28.4320 C   0  0  0  0  0  0  0  0  0  0  0  0
   -5.9705    3.5268   28.3803 C   0  0  0  0  0  0  0  0  0  0  0  0
   -5.5039   -0.1875   28.5196 C   0  0  0  0  0  0  0  0  0  0  0  0
   -4.5799   -1.0807   28.9723 C   0  0  0  0  0  0  0  0  0  0  0  0
   -3.2836   -0.6233   29.3184 C   0  0  0  0  0  0  0  0  0  0  0  0
   -2.9646    0.6954   29.1440 C   0  0  0  0  0  0  0  0  0  0  0  0
   -3.8511    1.5590   28.7661 C   0  0  0  0  0  0  0  0  0  0  0  0
   -8.9550    5.0723   26.6847 C   0  0  0  0  0  0  0  0  0  0  0  0
   -9.5678    4.9297   25.4188 C   0  0  0  0  0  0  0  0  0  0  0  0
   -8.9880    6.3497   27.3065 C   0  0  0  0  0  0  0  0  0  0  0  0
  -10.3487    3.8617   25.1310 C   0  0  0  0  0  0  0  0  0  0  0  0
  -11.0373    3.2059   26.0956 C   0  0  0  0  0  0  0  0  0  0  0  0
  -11.8304    2.0943   25.6978 C   0  0  0  0  0  0  0  0  0  0  0  0
  -10.4423    3.4719   23.7683 C   0  0  0  0  0  0  0  0  0  0  0  0
  -11.2152    2.4223   23.3500 C   0  0  0  0  0  0  0  0  0  0  0  0
  -11.9425    1.7519   24.3605 C   0  0  0  0  0  0  0  0  0  0  0  0
   -2.4085   -1.5674   29.7745 F   0  0  0  0  0  0  0  0  0  0  0  0
  5  6  1  0
  1 13  1  0
 13 14  2  3
 13 15  1  0
 14 16  1  0
 10 22  1  0
  1  2  2  0
  2  4  1  0
  4  5  2  0
  5  7  1  0
  7  3  2  0
  3  1  1  0
 16 17  2  0
 17 18  1  0
 18 21  2  0
 21 20  1  0
 20 19  2  0
 19 16  1  0
  6  8  2  0
  8  9  1  0
  9 10  2  0
 10 11  1  0
 11 12  2  0
 12  6  1  0
M  END
$$$$
