No_323-complexes_sdf/6BKW-FPZ/2024-09-17-14-21-01/
     RDKit          3D

 21 23  0  0  0  0  0  0  0  0999 V2000
   -7.7129    4.2099   27.0854 C   0  0  0  0  0  0  0  0  0  0  0  0
   -8.9133    4.4736   27.0998 C   0  0  0  0  0  0  0  0  0  0  0  0
   -9.4643    5.5426   27.7628 C   0  0  0  0  0  0  0  0  0  0  0  0
   -6.8373    4.9942   27.9785 C   0  0  0  0  0  0  0  0  0  0  0  0
   -7.3717    6.0428   28.6744 C   0  0  0  0  0  0  0  0  0  0  0  0
   -8.6869    6.3937   28.5345 C   0  0  0  0  0  0  0  0  0  0  0  0
   -9.8077    3.6184   26.2213 C   0  0  0  0  0  0  0  0  0  0  0  0
   -9.9211    2.3431   26.3757 C   0  0  0  0  0  0  0  0  0  0  0  0
  -10.3690    1.4873   25.5845 C   0  0  0  0  0  0  0  0  0  0  0  0
   -9.6585    4.0556   24.7768 C   0  0  0  0  0  0  0  0  0  0  0  0
  -10.3429    3.3119   23.8335 C   0  0  0  0  0  0  0  0  0  0  0  0
  -10.5089    1.9276   24.1291 C   0  0  0  0  0  0  0  0  0  0  0  0
  -11.0322    1.0889   23.0904 C   0  0  0  0  0  0  0  0  0  0  0  0
  -12.2748    0.8401   23.0098 C   0  0  0  0  0  0  0  0  0  0  0  0
  -12.7805    0.0797   22.0071 C   0  0  0  0  0  0  0  0  0  0  0  0
  -10.0456    0.5653   22.1819 C   0  0  0  0  0  0  0  0  0  0  0  0
  -10.4600   -0.2410   21.1046 C   0  0  0  0  0  0  0  0  0  0  0  0
  -11.8164   -0.4737   21.0073 C   0  0  0  0  0  0  0  0  0  0  0  0
  -10.5715    3.8257   22.5440 C   0  0  0  0  0  0  0  0  0  0  0  0
  -10.2262    3.8716   21.4992 C   0  0  0  0  0  0  0  0  0  0  0  0
  -10.6434    4.5805   20.3159 C   0  0  0  0  0  0  0  0  0  0  0  0
  2  7  1  0
 12 13  1  0
 11 19  1  0
 19 20  2  3
 20 21  1  0
 13 14  2  0
 14 15  1  0
 15 18  2  0
 18 17  1  0
 17 16  2  0
 16 13  1  0
  1  2  2  0
  2  3  1  0
  3  6  2  0
  6  5  1  0
  5  4  2  0
  4  1  1  0
  7  8  2  0
  8  9  1  0
  9 12  2  0
 12 11  1  0
 11 10  2  0
 10  7  1  0
M  END
$$$$
