No_3241-complexes_sdf/6BKW-FPZ/2024-09-17-14-21-01/
     RDKit          3D

 34 38  0  0  0  0  0  0  0  0999 V2000
   -7.7129    4.2099   27.0854 C   0  0  0  0  0  0  0  0  0  0  0  0
   -7.7814    5.1722   27.8972 C   0  0  0  0  0  0  0  0  0  0  0  0
   -8.8998    3.8713   26.3707 C   0  0  0  0  0  0  0  0  0  0  0  0
   -9.7416    3.2213   26.9591 C   0  0  0  0  0  0  0  0  0  0  0  0
  -10.4037    4.0341   28.0402 C   0  0  0  0  0  0  0  0  0  0  0  0
   -9.8492    4.9703   28.9035 C   0  0  0  0  0  0  0  0  0  0  0  0
   -8.8955    5.5317   28.4931 C   0  0  0  0  0  0  0  0  0  0  0  0
  -11.8113    3.4458   28.4103 C   0  0  0  0  0  0  0  0  0  0  0  0
  -12.6531    3.5107   27.6324 C   0  0  0  0  0  0  0  0  0  0  0  0
  -14.0082    2.9838   27.9228 C   0  0  0  0  0  0  0  0  0  0  0  0
  -14.2446    2.4858   29.1919 C   0  0  0  0  0  0  0  0  0  0  0  0
  -13.2053    2.4150   30.0974 C   0  0  0  0  0  0  0  0  0  0  0  0
  -11.9755    2.9223   29.7715 C   0  0  0  0  0  0  0  0  0  0  0  0
  -15.0288    3.0657   27.0064 O   0  0  0  0  0  0  0  0  0  0  0  0
  -14.8271    3.3698   25.8064 C   0  0  1  0  0  0  0  0  0  0  0  0
  -14.2135    2.7016   25.0640 C   0  0  0  0  0  0  0  0  0  0  0  0
  -14.1178    1.5198   24.9891 C   0  0  0  0  0  0  0  0  0  0  0  0
  -13.4692    0.7900   24.3948 C   0  0  0  0  0  0  0  0  0  0  0  0
  -12.5671    1.3629   23.4025 C   0  0  0  0  0  0  0  0  0  0  0  0
  -12.5264    2.6934   23.2458 C   0  0  0  0  0  0  0  0  0  0  0  0
  -13.2514    3.4364   24.0867 C   0  0  0  0  0  0  0  0  0  0  0  0
  -11.5937    3.3486   22.2829 C   0  0  0  0  0  0  0  0  0  0  0  0
  -10.6077    3.6240   22.2385 C   0  0  0  0  0  0  0  0  0  0  0  0
  -12.5115    3.8017   21.0905 C   0  0  0  0  0  0  0  0  0  0  0  0
  -15.4669    4.4525   25.4372 F   0  0  0  0  0  0  0  0  0  0  0  0
   -9.7438    4.3083   21.3253 C   0  0  0  0  0  0  0  0  0  0  0  0
  -13.8315    3.5197   21.0480 C   0  0  0  0  0  0  0  0  0  0  0  0
  -10.4737    4.7183   20.1847 C   0  0  0  0  0  0  0  0  0  0  0  0
  -11.8472    4.4723   20.0777 C   0  0  0  0  0  0  0  0  0  0  0  0
  -14.4135    2.3846   20.8455 C   0  0  0  0  0  0  0  0  0  0  0  0
  -15.8011    2.2399   20.7667 C   0  0  0  0  0  0  0  0  0  0  0  0
  -16.6323    3.3337   20.9822 C   0  0  0  0  0  0  0  0  0  0  0  0
  -16.0829    4.5996   21.1853 C   0  0  0  0  0  0  0  0  0  0  0  0
  -14.6990    4.7692   21.2596 C   0  0  0  0  0  0  0  0  0  0  0  0
  1  2  1  0
  1  3  1  0
  3  4  1  0
  4  5  1  0
  5  6  2  0
  2  7  2  0
  6  7  1  0
  5  8  1  0
 10 14  1  0
 14 15  1  0
 15 16  1  0
 20 22  1  0
 15 25  1  6
 24 27  1  0
 22 23  2  0
 23 26  1  0
 26 28  2  0
 28 29  1  0
 29 24  2  0
 24 22  1  0
 27 30  2  0
 30 31  1  0
 31 32  2  0
 32 33  1  0
 33 34  2  0
 34 27  1  0
  8  9  2  0
  9 10  1  0
 10 11  2  0
 11 12  1  0
 12 13  2  0
 13  8  1  0
 16 17  2  0
 17 18  1  0
 18 19  2  0
 19 20  1  0
 20 21  2  0
 21 16  1  0
M  END
$$$$
