No_3876-complexes_sdf/6BKW-FPZ/2024-09-17-14-21-01/
     RDKit          3D

 22 25  0  0  0  0  0  0  0  0999 V2000
   -7.9040    3.9820   27.1177 C   0  0  0  0  0  0  0  0  0  0  0  0
   -7.8663    4.8694   27.9238 C   0  0  0  0  0  0  0  0  0  0  0  0
   -7.4547    2.7080   27.4594 C   0  0  0  0  0  0  0  0  0  0  0  0
   -7.9337    1.5946   26.8372 C   0  0  0  0  0  0  0  0  0  0  0  0
   -8.9032    1.7881   25.8510 C   0  0  0  0  0  0  0  0  0  0  0  0
   -9.3787    2.9871   25.5530 C   0  0  0  0  0  0  0  0  0  0  0  0
   -8.9781    4.0300   26.2200 C   0  0  0  0  0  0  0  0  0  0  0  0
   -8.0014    6.0716   27.8481 N   0  0  0  0  0  0  0  0  0  0  0  0
  -10.3917    3.1448   24.4429 C   0  0  0  0  0  0  0  0  0  0  0  0
  -10.9884    4.3468   24.2273 C   0  0  0  0  0  0  0  0  0  0  0  0
  -10.5647    2.1452   23.5130 C   0  0  0  0  0  0  0  0  0  0  0  0
  -11.4132    2.3243   22.4240 C   0  0  0  0  0  0  0  0  0  0  0  0
  -11.8305    4.5686   23.1643 C   0  0  0  0  0  0  0  0  0  0  0  0
  -12.0450    3.5762   22.2336 C   0  0  0  0  0  0  0  0  0  0  0  0
   -8.7162    6.6215   26.8530 C   0  0  0  0  0  0  0  0  0  0  0  0
   -9.2246    5.5608   25.9646 C   0  0  0  0  0  0  0  0  0  0  0  0
   -7.3605    0.2398   27.0845 C   0  0  0  0  0  0  0  0  0  0  0  0
   -8.0239   -0.8859   26.9597 C   0  0  0  0  0  0  0  0  0  0  0  0
   -7.5395   -2.0790   27.3917 C   0  0  0  0  0  0  0  0  0  0  0  0
   -6.0525    0.1870   27.6862 C   0  0  0  0  0  0  0  0  0  0  0  0
   -5.5063   -0.9677   28.1501 C   0  0  0  0  0  0  0  0  0  0  0  0
   -6.2659   -2.1250   28.0186 C   0  0  0  0  0  0  0  0  0  0  0  0
  6  9  1  0
  4 17  1  0
  9 10  2  0
 10 13  1  0
 13 14  2  0
 14 12  1  0
 12 11  2  0
 11  9  1  0
  1  2  2  0
  2  8  1  0
  8 15  2  0
 15 16  1  0
 16  7  2  0
 17 18  2  0
 18 19  1  0
 19 22  2  0
 22 21  1  0
 21 20  2  0
 20 17  1  0
  1  3  1  0
  3  4  2  0
  4  5  1  0
  5  6  2  0
  6  7  1  0
  7  1  1  0
M  END
$$$$
