No_3810-complexes_sdf/6BKW-FPZ/2024-09-17-14-21-01/
     RDKit          3D

 23 25  0  0  0  0  0  0  0  0999 V2000
   -7.7129    4.2099   27.0854 C   0  0  0  0  0  0  0  0  0  0  0  0
   -8.9133    4.4736   27.0998 C   0  0  0  0  0  0  0  0  0  0  0  0
   -9.4643    5.5426   27.7628 C   0  0  0  0  0  0  0  0  0  0  0  0
   -7.2009    2.9448   26.6134 C   0  0  0  0  0  0  0  0  0  0  0  0
   -8.1365    1.9533   26.2981 C   0  0  0  0  0  0  0  0  0  0  0  0
   -9.4514    2.2934   26.2667 C   0  0  0  0  0  0  0  0  0  0  0  0
   -9.8600    3.4834   26.7068 C   0  0  0  0  0  0  0  0  0  0  0  0
   -7.4236    0.7284   25.8792 C   0  0  0  0  0  0  0  0  0  0  0  0
   -7.9575    0.1587   24.8866 O   0  0  0  0  0  0  0  0  0  0  0  0
   -6.5687    0.1376   26.6160 O   0  0  0  0  0  0  0  0  0  0  0  0
   -6.7788   -1.0131   27.2902 C   0  0  0  0  0  0  0  0  0  0  0  0
   -5.9391   -1.1521   28.3904 C   0  0  0  0  0  0  0  0  0  0  0  0
   -6.2029   -2.2615   29.3189 C   0  0  0  0  0  0  0  0  0  0  0  0
   -5.4617   -2.3650   30.5030 C   0  0  0  0  0  0  0  0  0  0  0  0
   -4.4856   -1.3857   30.8608 C   0  0  0  0  0  0  0  0  0  0  0  0
   -4.2463   -0.3143   29.9321 C   0  0  0  0  0  0  0  0  0  0  0  0
   -5.0207   -0.1895   28.8260 C   0  0  0  0  0  0  0  0  0  0  0  0
   -3.6704   -1.4456   32.0739 C   0  0  0  0  0  0  0  0  0  0  0  0
   -4.3087   -1.1065   33.2314 C   0  0  0  0  0  0  0  0  0  0  0  0
   -2.3365   -1.8025   32.0035 C   0  0  0  0  0  0  0  0  0  0  0  0
   -1.6748   -1.7640   33.1458 C   0  0  0  0  0  0  0  0  0  0  0  0
   -3.5849   -1.0987   34.4624 C   0  0  0  0  0  0  0  0  0  0  0  0
   -2.2294   -1.4105   34.4348 C   0  0  0  0  0  0  0  0  0  0  0  0
  5  8  1  0
  8  9  2  0
  8 10  1  0
 10 11  1  0
 15 18  1  0
 11 12  1  0
  3  2  1  0
 12 13  2  0
 13 14  1  0
 14 15  2  0
 15 16  1  0
 16 17  2  0
 17 12  1  0
 18 19  2  0
 19 22  1  0
 22 23  2  0
 23 21  1  0
 21 20  2  0
 20 18  1  0
  1  2  2  0
  2  7  1  0
  7  6  2  0
  6  5  1  0
  5  4  2  0
  4  1  1  0
M  END
$$$$
