No_3801-complexes_sdf/6BKW-FPZ/2024-09-17-14-21-01/
     RDKit          3D

 18 19  0  0  0  0  0  0  0  0999 V2000
   -7.2496    3.8871   27.4508 C   0  0  0  0  0  0  0  0  0  0  0  0
   -8.5096    4.0291   27.2770 C   0  0  0  0  0  0  0  0  0  0  0  0
   -9.3451    2.8786   26.9046 C   0  0  0  0  0  0  0  0  0  0  0  0
   -8.7138    1.7135   26.7541 C   0  0  0  0  0  0  0  0  0  0  0  0
   -6.6024    2.6286   27.4581 C   0  0  0  0  0  0  0  0  0  0  0  0
   -7.3557    1.5598   27.1381 C   0  0  0  0  0  0  0  0  0  0  0  0
   -9.1549    5.3630   27.3415 C   0  0  0  0  0  0  0  0  0  0  0  0
  -10.4861    5.6125   27.6028 C   0  0  0  0  0  0  0  0  0  0  0  0
   -8.2947    6.5412   27.1592 C   0  0  0  0  0  0  0  0  0  0  0  0
   -8.4855    7.7177   26.5460 C   0  0  0  0  0  0  0  0  0  0  0  0
   -6.6812    0.2604   27.0066 C   0  0  0  0  0  0  0  0  0  0  0  0
   -6.8553   -0.5472   26.0425 C   0  0  0  0  0  0  0  0  0  0  0  0
   -7.7909   -0.2112   24.9874 C   0  0  0  0  0  0  0  0  0  0  0  0
   -8.7983    0.7700   25.2563 C   0  0  0  0  0  0  0  0  0  0  0  0
   -9.9016    1.1347   24.4604 C   0  0  0  0  0  0  0  0  0  0  0  0
  -10.9748    1.5785   24.8008 N   0  0  0  0  0  0  0  0  0  0  0  0
  -11.8855    0.9981   25.3506 C   0  0  0  0  0  0  0  0  0  0  0  0
  -13.0657    1.6414   25.8589 C   0  0  0  0  0  0  0  0  0  0  0  0
  2  7  1  0
  7  8  1  0
  7  9  1  0
  9 10  1  0
 14 15  1  0
 15 16  1  0
 16 17  1  0
 17 18  2  0
  6 11  1  0
 11 12  2  0
 12 13  1  0
 13 14  2  0
 14  4  1  0
  1  2  2  0
  2  3  1  0
  3  4  2  0
  4  6  1  0
  6  5  2  0
  5  1  1  0
M  END
$$$$
