No_3922-complexes_sdf/6BKW-FPZ/2024-09-17-14-21-01/
     RDKit          3D

  9  9  0  0  0  0  0  0  0  0999 V2000
   -7.7129    4.2099   27.0854 C   0  0  0  0  0  0  0  0  0  0  0  0
   -8.2112    3.0637   26.9225 C   0  0  0  0  0  0  0  0  0  0  0  0
   -8.4224    5.2106   27.8516 C   0  0  0  0  0  0  0  0  0  0  0  0
   -9.5628    2.7160   27.4089 C   0  0  0  0  0  0  0  0  0  0  0  0
  -10.2639    3.7034   28.1156 C   0  0  0  0  0  0  0  0  0  0  0  0
   -9.7059    4.9514   28.3169 C   0  0  0  0  0  0  0  0  0  0  0  0
  -11.6346    3.5858   28.6624 C   0  0  0  0  0  0  0  0  0  0  0  0
  -12.6920    4.2026   28.1801 C   0  0  0  0  0  0  0  0  0  0  0  0
  -12.5954    4.8814   26.9446 C   0  0  0  0  0  0  0  0  0  0  0  0
  5  7  1  0
  7  8  2  3
  8  9  1  0
  1  2  2  0
  2  4  1  0
  4  5  2  0
  5  6  1  0
  6  3  2  0
  3  1  1  0
M  END
$$$$
