No_3114-complexes_sdf/6BKW-FPZ/2024-09-17-14-21-01/
     RDKit          3D

 12 13  0  0  0  0  0  0  0  0999 V2000
   -7.9040    3.9820   27.1177 C   0  0  0  0  0  0  0  0  0  0  0  0
   -9.0711    4.3164   27.0630 C   0  0  0  0  0  0  0  0  0  0  0  0
   -9.5294    5.4517   27.7215 C   0  0  0  0  0  0  0  0  0  0  0  0
   -6.9328    4.7309   27.8881 C   0  0  0  0  0  0  0  0  0  0  0  0
   -7.3377    5.8421   28.5537 C   0  0  0  0  0  0  0  0  0  0  0  0
   -8.6411    6.2609   28.3972 C   0  0  0  0  0  0  0  0  0  0  0  0
  -10.1659    3.5880   26.3758 C   0  0  0  0  0  0  0  0  0  0  0  0
   -9.8255    2.3856   25.8160 C   0  0  0  0  0  0  0  0  0  0  0  0
   -9.1319    1.5675   26.5731 C   0  0  0  0  0  0  0  0  0  0  0  0
   -9.3358    0.4647   26.7621 C   0  0  0  0  0  0  0  0  0  0  0  0
   -8.5285   -0.4673   27.6326 C   0  0  0  0  0  0  0  0  0  0  0  0
   -8.1064    2.2446   27.5282 C   0  0  0  0  0  0  0  0  0  0  0  0
  2  7  1  0
  7  8  1  0
  8  9  1  0
  9 10  2  3
 10 11  1  0
  1 12  1  0
  9 12  1  0
  1  2  1  0
  2  3  2  0
  3  6  1  0
  6  5  2  0
  5  4  1  0
  4  1  2  0
M  END
$$$$
