No_3237-complexes_sdf/6BKW-FPZ/2024-09-17-14-21-01/
     RDKit          3D

 24 26  0  0  0  0  0  0  0  0999 V2000
   -7.9040    3.9820   27.1177 C   0  0  0  0  0  0  0  0  0  0  0  0
   -8.2057    2.8231   26.8733 C   0  0  0  0  0  0  0  0  0  0  0  0
   -9.2962    2.4021   26.1155 C   0  0  0  0  0  0  0  0  0  0  0  0
   -8.7358    5.0662   26.5917 C   0  0  0  0  0  0  0  0  0  0  0  0
   -9.7618    4.7023   25.7546 C   0  0  0  0  0  0  0  0  0  0  0  0
  -10.0066    3.4105   25.4922 C   0  0  0  0  0  0  0  0  0  0  0  0
   -8.3943    6.4760   26.8801 C   0  0  0  0  0  0  0  0  0  0  0  0
   -8.6590    7.3213   26.1280 F   0  0  0  0  0  0  0  0  0  0  0  0
   -7.0387    6.4908   27.1906 F   0  0  0  0  0  0  0  0  0  0  0  0
   -9.0767    6.6237   28.1752 F   0  0  0  0  0  0  0  0  0  0  0  0
   -7.3568    1.6625   27.4892 C   0  0  0  0  0  0  0  0  0  0  0  0
   -5.9718    1.8944   27.7471 C   0  0  0  0  0  0  0  0  0  0  0  0
   -5.1902    0.8377   28.2747 C   0  0  0  0  0  0  0  0  0  0  0  0
   -5.7160   -0.4334   28.3587 C   0  0  0  0  0  0  0  0  0  0  0  0
   -7.6038    0.2727   27.4440 C   0  0  0  0  0  0  0  0  0  0  0  0
   -6.9341   -0.6755   27.9757 C   0  0  0  0  0  0  0  0  0  0  0  0
   -4.8113   -1.4812   28.9715 C   0  0  0  0  0  0  0  0  0  0  0  0
   -3.6731   -1.3398   29.0406 C   0  0  0  0  0  0  0  0  0  0  0  0
   -3.0260    0.0424   28.8705 C   0  0  0  0  0  0  0  0  0  0  0  0
   -3.7623    1.0836   28.4148 C   0  0  0  0  0  0  0  0  0  0  0  0
  -11.1272    3.1482   24.5851 C   0  0  0  0  0  0  0  0  0  0  0  0
  -10.8774    2.8840   23.4777 F   0  0  0  0  0  0  0  0  0  0  0  0
  -11.9883    4.2216   24.6292 F   0  0  0  0  0  0  0  0  0  0  0  0
  -11.8796    2.1163   25.0794 F   0  0  0  0  0  0  0  0  0  0  0  0
  4  7  1  0
  7  8  1  0
  7  9  1  0
  7 10  1  0
  2 11  1  0
  6 21  1  0
 21 22  1  0
 21 23  1  0
 21 24  1  0
  1  2  2  0
  2  3  1  0
  3  6  2  0
  6  5  1  0
  5  4  2  0
  4  1  1  0
 14 17  2  0
 17 18  1  0
 18 19  2  0
 19 20  1  0
 20 13  2  0
 11 12  2  0
 12 13  1  0
 13 14  1  0
 14 16  1  0
 16 15  2  0
 15 11  1  0
M  END
$$$$
