No_3694-complexes_sdf/6BKW-FPZ/2024-09-17-14-21-01/
     RDKit          3D

 24 27  0  0  0  0  0  0  0  0999 V2000
   -7.2496    3.8871   27.4508 C   0  0  0  0  0  0  0  0  0  0  0  0
   -8.5096    4.0291   27.2770 C   0  0  0  0  0  0  0  0  0  0  0  0
   -9.3502    2.8685   26.8763 C   0  0  0  0  0  0  0  0  0  0  0  0
   -6.4573    5.0084   27.9855 C   0  0  0  0  0  0  0  0  0  0  0  0
   -9.1243    5.2674   27.5163 C   0  0  0  0  0  0  0  0  0  0  0  0
   -8.4032    6.3854   27.8703 C   0  0  0  0  0  0  0  0  0  0  0  0
   -7.0896    6.2292   28.0937 C   0  0  0  0  0  0  0  0  0  0  0  0
   -8.7515    1.6383   26.8136 C   0  0  0  0  0  0  0  0  0  0  0  0
   -9.4985    0.4814   26.4715 C   0  0  0  0  0  0  0  0  0  0  0  0
  -10.8711    0.6430   26.2994 C   0  0  0  0  0  0  0  0  0  0  0  0
  -10.6790    2.7235   26.8578 C   0  0  0  0  0  0  0  0  0  0  0  0
  -11.4575    1.7350   26.6075 C   0  0  1  0  0  0  0  0  0  0  0  0
   -8.7476   -0.7852   26.1844 C   0  0  0  0  0  0  0  0  0  0  0  0
   -7.6296   -0.7905   26.1625 C   0  0  0  0  0  0  0  0  0  0  0  0
   -6.7562    0.3295   26.6378 C   0  0  0  0  0  0  0  0  0  0  0  0
   -7.2746    1.4633   26.8463 C   0  0  0  0  0  0  0  0  0  0  0  0
   -6.6295    2.6394   27.3554 N   0  0  0  0  0  0  0  0  0  0  0  0
  -12.9582    1.8249   26.5811 C   0  0  0  0  0  0  0  0  0  0  0  0
  -13.6597    2.7852   27.0999 C   0  0  0  0  0  0  0  0  0  0  0  0
  -13.7921    3.8697   26.3037 C   0  0  0  0  0  0  0  0  0  0  0  0
  -13.3011    4.0599   25.0409 C   0  0  0  0  0  0  0  0  0  0  0  0
  -12.0097    3.9211   24.7455 C   0  0  0  0  0  0  0  0  0  0  0  0
  -11.5033    4.0958   23.4774 C   0  0  0  0  0  0  0  0  0  0  0  0
  -10.0949    3.9815   23.1894 C   0  0  0  0  0  0  0  0  0  0  0  0
  1  2  2  0
  2  3  1  0
  1  4  1  0
  2  5  1  0
  5  6  2  0
  4  7  1  0
  6  7  1  0
  3  8  2  0
  8  9  1  0
  9 10  2  0
  3 11  1  0
 10 12  1  0
 11 12  1  0
  9 13  1  0
 13 14  2  0
 14 15  1  0
  8 16  1  0
 15 16  2  0
  1 17  1  0
 16 17  1  0
 12 18  1  6
 18 19  1  0
 19 20  2  3
 20 21  1  0
 21 22  1  0
 22 23  2  3
 23 24  1  0
M  END
$$$$
