No_3613-complexes_sdf/6BKW-FPZ/2024-09-17-14-21-01/
     RDKit          3D

 20 22  0  0  0  0  0  0  0  0999 V2000
   -7.9040    3.9820   27.1177 C   0  0  0  0  0  0  0  0  0  0  0  0
   -7.8663    4.8694   27.9238 C   0  0  0  0  0  0  0  0  0  0  0  0
   -9.0501    3.8017   26.2617 C   0  0  0  0  0  0  0  0  0  0  0  0
   -9.1826    2.7026   25.3575 C   0  0  0  0  0  0  0  0  0  0  0  0
   -8.6940    6.0131   27.8614 C   0  0  0  0  0  0  0  0  0  0  0  0
   -9.9755    4.8547   26.2361 C   0  0  0  0  0  0  0  0  0  0  0  0
   -9.7463    5.9398   27.0364 C   0  0  0  0  0  0  0  0  0  0  0  0
  -10.0838    2.7760   24.3160 C   0  0  0  0  0  0  0  0  0  0  0  0
  -10.2843    1.6590   23.4970 C   0  0  0  0  0  0  0  0  0  0  0  0
   -9.3974    0.5260   23.6644 C   0  0  0  0  0  0  0  0  0  0  0  0
   -8.4186    1.4919   25.4757 C   0  0  0  0  0  0  0  0  0  0  0  0
   -8.5121    0.4868   24.6643 C   0  0  0  0  0  0  0  0  0  0  0  0
   -7.7690   -0.5857   24.8078 F   0  0  0  0  0  0  0  0  0  0  0  0
  -11.1997    1.7705   22.3549 C   0  0  0  0  0  0  0  0  0  0  0  0
  -11.3913    2.8576   21.8544 N   0  0  0  0  0  0  0  0  0  0  0  0
  -10.9327    3.9155   22.3688 C   0  0  0  0  0  0  0  0  0  0  0  0
  -10.3390    4.0081   23.6674 C   0  0  0  0  0  0  0  0  0  0  0  0
  -12.1853    2.9666   20.5890 C   0  0  0  0  0  0  0  0  0  0  0  0
  -11.3071    5.0625   21.8138 O   0  0  0  0  0  0  0  0  0  0  0  0
  -11.5356    0.6249   21.8563 O   0  0  0  0  0  0  0  0  0  0  0  0
  3  4  1  0
 12 13  1  0
  9 14  1  0
 14 15  1  0
 15 16  1  0
  8 17  1  0
 16 17  1  0
 15 18  1  0
 16 19  2  0
 14 20  2  0
  4  8  2  0
  8  9  1  0
  9 10  2  0
 10 12  1  0
 12 11  2  0
 11  4  1  0
  1  2  2  0
  2  5  1  0
  5  7  2  0
  7  6  1  0
  6  3  2  0
  3  1  1  0
M  END
$$$$
