No_3778-complexes_sdf/6BKW-FPZ/2024-09-17-14-21-01/
     RDKit          3D

 40 46  0  0  0  0  0  0  0  0999 V2000
   -7.7129    4.2099   27.0854 C   0  0  0  0  0  0  0  0  0  0  0  0
   -8.2112    3.0637   26.9225 C   0  0  0  0  0  0  0  0  0  0  0  0
   -9.4446    2.8304   26.1868 C   0  0  0  0  0  0  0  0  0  0  0  0
   -8.4697    5.3956   26.7238 C   0  0  0  0  0  0  0  0  0  0  0  0
   -9.6172    5.2111   25.9513 C   0  0  0  0  0  0  0  0  0  0  0  0
  -10.0424    3.9782   25.6873 C   0  0  0  0  0  0  0  0  0  0  0  0
   -7.5056    1.8167   27.4088 C   0  0  0  0  0  0  0  0  0  0  0  0
   -8.0829    0.6212   27.3227 N   0  0  0  0  0  0  0  0  0  0  0  0
   -9.3001    0.4007   27.3997 C   0  0  0  0  0  0  0  0  0  0  0  0
  -10.1253    1.4226   26.5321 C   0  0  1  0  0  0  0  0  0  0  0  0
   -6.2581    1.9646   27.7407 O   0  0  0  0  0  0  0  0  0  0  0  0
  -11.5282    1.7338   26.9636 C   0  0  0  0  0  0  0  0  0  0  0  0
  -11.9071    2.2525   28.0348 C   0  0  0  0  0  0  0  0  0  0  0  0
  -13.2675    2.4003   28.4372 C   0  0  0  0  0  0  0  0  0  0  0  0
  -14.2217    1.8694   27.6514 C   0  0  0  0  0  0  0  0  0  0  0  0
  -12.4942    1.0867   26.1736 C   0  0  0  0  0  0  0  0  0  0  0  0
  -13.8468    1.2320   26.4911 C   0  0  0  0  0  0  0  0  0  0  0  0
  -10.1741    0.9574   25.0208 C   0  0  0  0  0  0  0  0  0  0  0  0
  -11.3202    0.5069   24.6441 C   0  0  0  0  0  0  0  0  0  0  0  0
  -12.4429    0.0802   25.5721 O   0  0  0  0  0  0  0  0  0  0  0  0
  -13.5462    3.1408   29.7539 C   0  0  0  0  0  0  0  0  0  0  0  0
  -12.9295    2.6944   30.9766 C   0  0  0  0  0  0  0  0  0  0  0  0
  -14.4186    4.2699   29.6863 C   0  0  0  0  0  0  0  0  0  0  0  0
  -15.1855    4.6031   30.7851 C   0  0  0  0  0  0  0  0  0  0  0  0
  -13.5420    3.2364   32.1843 C   0  0  0  0  0  0  0  0  0  0  0  0
  -14.5405    4.2851   32.0981 C   0  0  0  0  0  0  0  0  0  0  0  0
   -7.1742   -0.5402   27.4836 C   0  0  0  0  0  0  0  0  0  0  0  0
   -7.0674   -1.3086   26.6107 C   0  0  0  0  0  0  0  0  0  0  0  0
   -6.1860   -2.4222   26.6995 C   0  0  0  0  0  0  0  0  0  0  0  0
   -5.3286   -2.5453   27.7950 C   0  0  0  0  0  0  0  0  0  0  0  0
   -5.3837   -1.5422   28.7708 C   0  0  0  0  0  0  0  0  0  0  0  0
   -6.2448   -0.4922   28.6314 C   0  0  0  0  0  0  0  0  0  0  0  0
  -11.2291   -0.7212   23.6033 C   0  0  0  0  0  0  0  0  0  0  0  0
  -10.9712   -0.3833   22.4779 C   0  0  0  0  0  0  0  0  0  0  0  0
  -10.7415    0.9135   22.0689 C   0  0  0  0  0  0  0  0  0  0  0  0
  -10.0868    1.2054   20.8112 C   0  0  0  0  0  0  0  0  0  0  0  0
  -10.8569   -1.3967   21.4239 C   0  0  0  0  0  0  0  0  0  0  0  0
  -10.3399   -1.0489   20.1231 C   0  0  0  0  0  0  0  0  0  0  0  0
  -10.0115    0.2545   19.8590 C   0  0  0  0  0  0  0  0  0  0  0  0
  -14.9368    0.6934   25.7355 C   0  0  0  0  0  0  0  0  0  0  0  0
  2  7  1  0
  7  8  1  0
  8  9  1  0
  3 10  1  0
 10  9  1  1
  7 11  2  0
 10 12  1  0
 10 18  1  0
 18 19  2  0
 16 20  1  0
 19 20  1  0
 14 21  1  0
  8 27  1  0
 19 33  1  0
 33 34  1  0
 17 40  1  0
  1  2  2  0
  2  3  1  0
  3  6  2  0
  6  5  1  0
  5  4  2  0
  4  1  1  0
 12 13  2  0
 13 14  1  0
 14 15  2  0
 15 17  1  0
 17 16  2  0
 16 12  1  0
 27 28  2  0
 28 29  1  0
 29 30  2  0
 30 31  1  0
 31 32  2  0
 32 27  1  0
 21 22  2  0
 22 25  1  0
 25 26  2  0
 26 24  1  0
 24 23  2  0
 23 21  1  0
 34 35  2  0
 35 36  1  0
 36 39  2  0
 39 38  1  0
 38 37  2  0
 37 34  1  0
M  END
$$$$
