No_3374-complexes_sdf/6BKW-FPZ/2024-09-17-14-21-01/
     RDKit          3D

 13 14  0  0  0  0  0  0  0  0999 V2000
   -7.7129    4.2099   27.0854 C   0  0  0  0  0  0  0  0  0  0  0  0
   -7.7814    5.1722   27.8972 C   0  0  0  0  0  0  0  0  0  0  0  0
   -8.8998    3.8713   26.3707 C   0  0  0  0  0  0  0  0  0  0  0  0
   -8.9563    2.6796   25.5490 C   0  0  0  0  0  0  0  0  0  0  0  0
   -8.8501    6.0071   27.8467 N   0  0  0  0  0  0  0  0  0  0  0  0
   -9.9490    5.7837   27.2002 C   0  0  0  0  0  0  0  0  0  0  0  0
   -9.9821    4.6597   26.4501 C   0  0  0  0  0  0  0  0  0  0  0  0
   -9.6408    1.7833   26.0445 C   0  0  0  0  0  0  0  0  0  0  0  0
   -9.6571    0.4767   25.3927 C   0  0  0  0  0  0  0  0  0  0  0  0
   -9.2228    0.4143   24.2645 C   0  0  0  0  0  0  0  0  0  0  0  0
   -8.7513    1.5290   23.5014 C   0  0  0  0  0  0  0  0  0  0  0  0
   -8.5537    2.6853   24.2116 C   0  0  0  0  0  0  0  0  0  0  0  0
   -6.7798    5.6339   28.6280 F   0  0  0  0  0  0  0  0  0  0  0  0
  3  4  1  0
  2 13  1  0
  4  8  2  0
  8  9  1  0
  9 10  2  0
 10 11  1  0
 11 12  2  0
 12  4  1  0
  1  2  2  0
  2  5  1  0
  5  6  2  0
  6  7  1  0
  7  3  2  0
  3  1  1  0
M  END
$$$$
