No_3695-complexes_sdf/6BKW-FPZ/2024-09-17-14-21-01/
     RDKit          3D

 30 32  0  0  0  0  0  0  0  0999 V2000
   -7.9040    3.9820   27.1177 C   0  0  0  0  0  0  0  0  0  0  0  0
   -8.2057    2.8231   26.8733 C   0  0  0  0  0  0  0  0  0  0  0  0
   -8.7695    5.0740   26.7916 C   0  0  0  0  0  0  0  0  0  0  0  0
   -9.9618    4.7598   26.1630 C   0  0  0  0  0  0  0  0  0  0  0  0
   -9.4200    2.4524   26.2849 C   0  0  0  0  0  0  0  0  0  0  0  0
  -10.2590    3.4815   25.9250 C   0  0  0  0  0  0  0  0  0  0  0  0
   -8.3840    6.4693   27.0829 C   0  0  0  0  0  0  0  0  0  0  0  0
   -7.7453    6.8270   28.1334 N   0  0  0  0  0  0  0  0  0  0  0  0
   -8.8431    7.4339   26.3634 O   0  0  0  0  0  0  0  0  0  0  0  0
   -7.2735    1.6676   27.2781 C   0  0  0  0  0  0  0  0  0  0  0  0
   -6.0241    1.9797   27.8483 C   0  0  0  0  0  0  0  0  0  0  0  0
   -5.1389    0.9067   28.1930 C   0  0  0  0  0  0  0  0  0  0  0  0
   -5.5202   -0.3704   28.0382 C   0  0  0  0  0  0  0  0  0  0  0  0
   -7.5792    0.3190   27.1635 C   0  0  0  0  0  0  0  0  0  0  0  0
   -6.8092   -0.6433   27.5799 C   0  0  0  0  0  0  0  0  0  0  0  0
   -4.6213   -1.4249   28.5577 C   0  0  0  0  0  0  0  0  0  0  0  0
   -3.5117   -1.4042   28.3102 C   0  0  0  0  0  0  0  0  0  0  0  0
   -5.2346   -2.4795   29.3378 C   0  0  0  0  0  0  0  0  0  0  0  0
   -6.1018   -2.4557   30.0587 C   0  0  0  0  0  0  0  0  0  0  0  0
   -6.6384   -3.5225   30.9329 C   0  0  0  0  0  0  0  0  0  0  0  0
   -7.6594   -3.2931   31.8780 C   0  0  0  0  0  0  0  0  0  0  0  0
   -8.1165   -3.9384   32.7821 C   0  0  0  0  0  0  0  0  0  0  0  0
   -2.6983   -1.7098   27.6597 C   0  0  0  0  0  0  0  0  0  0  0  0
   -1.2676   -1.4519   27.4278 C   0  0  0  0  0  0  0  0  0  0  0  0
   -0.7506   -0.4441   28.2006 C   0  0  0  0  0  0  0  0  0  0  0  0
   -2.6708   -0.2003   29.1706 C   0  0  0  0  0  0  0  0  0  0  0  0
   -1.4070    0.0674   29.0968 N   0  0  0  0  0  0  0  0  0  0  0  0
   -9.1514   -3.5071   33.6930 C   0  0  0  0  0  0  0  0  0  0  0  0
   -9.9406   -2.4056   33.2787 C   0  0  0  0  0  0  0  0  0  0  0  0
   -9.6050   -1.8314   32.0613 C   0  0  0  0  0  0  0  0  0  0  0  0
  3  7  1  0
  7  8  1  0
  7  9  2  0
  2 10  1  0
 13 16  1  0
 16 17  1  0
 16 18  1  0
 18 19  2  3
 19 20  1  0
 20 21  2  3
 21 22  1  0
 22 28  2  3
 28 29  1  0
 29 30  2  0
 10 11  2  0
 11 12  1  0
 12 13  2  0
 13 15  1  0
 15 14  2  0
 14 10  1  0
  1  2  2  0
  2  5  1  0
  5  6  2  0
  6  4  1  0
  4  3  2  0
  3  1  1  0
 17 23  2  0
 23 24  1  0
 24 25  2  0
 25 27  1  0
 27 26  2  0
 26 17  1  0
M  END
$$$$
