No_3574-complexes_sdf/6BKW-FPZ/2024-09-17-14-21-01/
     RDKit          3D

 23 26  0  0  0  0  0  0  0  0999 V2000
   -7.9040    3.9820   27.1177 C   0  0  0  0  0  0  0  0  0  0  0  0
   -9.0711    4.3164   27.0630 C   0  0  0  0  0  0  0  0  0  0  0  0
   -9.5294    5.4517   27.7215 C   0  0  0  0  0  0  0  0  0  0  0  0
   -9.9845    3.5634   26.2189 C   0  0  0  0  0  0  0  0  0  0  0  0
  -10.7684    4.0785   25.5182 C   0  0  0  0  0  0  0  0  0  0  0  0
   -7.4478    2.6253   26.8734 C   0  0  0  0  0  0  0  0  0  0  0  0
   -8.2393    1.7898   26.9984 C   0  0  0  0  0  0  0  0  0  0  0  0
   -9.5242    2.2100   25.9882 C   0  0  0  0  0  0  0  0  0  0  0  0
   -8.1062    0.3282   27.1893 C   0  0  0  0  0  0  0  0  0  0  0  0
   -9.4402   -0.3358   27.4024 C   0  0  0  0  0  0  0  0  0  0  0  0
   -6.9402   -0.2547   27.4632 C   0  0  0  0  0  0  0  0  0  0  0  0
   -6.8125   -1.5131   28.0027 C   0  0  0  0  0  0  0  0  0  0  0  0
   -9.2866   -1.6881   27.9922 C   0  0  0  0  0  0  0  0  0  0  0  0
  -10.5055   -2.3773   28.2572 C   0  0  0  0  0  0  0  0  0  0  0  0
   -8.0370   -2.1647   28.2665 C   0  0  0  0  0  0  0  0  0  0  0  0
  -11.5715   -2.0649   27.7125 C   0  0  0  0  0  0  0  0  0  0  0  0
  -11.6333   -0.7911   27.0464 C   0  0  0  0  0  0  0  0  0  0  0  0
  -10.6177    0.0600   26.9674 C   0  0  0  0  0  0  0  0  0  0  0  0
  -10.7228    4.5528   24.1585 C   0  0  0  0  0  0  0  0  0  0  0  0
  -11.5281    4.5459   23.1516 C   0  0  0  0  0  0  0  0  0  0  0  0
  -12.8404    4.0398   23.3362 C   0  0  0  0  0  0  0  0  0  0  0  0
  -13.1907    3.8558   24.7120 C   0  0  0  0  0  0  0  0  0  0  0  0
  -12.2760    3.7124   25.7439 C   0  0  0  0  0  0  0  0  0  0  0  0
  2  3  1  0
  4  5  1  0
  7  9  1  0
  5 19  2  0
 19 20  1  0
 20 21  2  0
 21 22  1  0
 22 23  2  0
 23  5  1  0
  1  2  2  0
  2  4  1  0
  4  8  2  0
  8  7  1  0
  7  6  2  0
  6  1  1  0
 13 14  1  0
 14 16  2  0
 16 17  1  0
 17 18  2  0
 18 10  1  0
  9 10  2  0
 10 13  1  0
 13 15  2  0
 15 12  1  0
 12 11  2  0
 11  9  1  0
M  END
$$$$
