No_3049-complexes_sdf/6BKW-FPZ/2024-09-17-14-21-01/
     RDKit          3D

 13 13  0  0  0  0  0  0  0  0999 V2000
   -7.9040    3.9820   27.1177 C   0  0  0  0  0  0  0  0  0  0  0  0
   -8.2057    2.8231   26.8733 C   0  0  0  0  0  0  0  0  0  0  0  0
   -7.4766    1.7477   27.4593 C   0  0  0  0  0  0  0  0  0  0  0  0
   -8.7468    5.1251   26.6967 C   0  0  0  0  0  0  0  0  0  0  0  0
   -9.7234    4.8589   25.8202 C   0  0  0  0  0  0  0  0  0  0  0  0
   -9.9711    3.5858   25.4266 C   0  0  0  0  0  0  0  0  0  0  0  0
   -9.2266    2.4957   25.9600 C   0  0  0  0  0  0  0  0  0  0  0  0
   -6.7828    1.1562   26.8573 F   0  0  0  0  0  0  0  0  0  0  0  0
   -8.3986    6.5180   27.0601 C   0  0  0  0  0  0  0  0  0  0  0  0
   -7.9533    7.6034   27.0391 N   0  0  0  0  0  0  0  0  0  0  0  0
   -8.4779    0.8025   28.0314 F   0  0  0  0  0  0  0  0  0  0  0  0
   -6.6876    2.1934   28.4858 F   0  0  0  0  0  0  0  0  0  0  0  0
  -11.2580    3.2210   24.1248 Br  0  0  0  0  0  0  0  0  0  0  0  0
  2  3  1  0
  3  8  1  0
  4  9  1  0
  9 10  3  0
  3 11  1  0
  3 12  1  0
  6 13  1  0
  1  2  2  0
  2  7  1  0
  7  6  2  0
  6  5  1  0
  5  4  2  0
  4  1  1  0
M  END
$$$$
