No_3314-complexes_sdf/6BKW-FPZ/2024-09-17-14-21-01/
     RDKit          3D

 17 18  0  0  0  0  0  0  0  0999 V2000
   -7.2496    3.8871   27.4508 C   0  0  0  0  0  0  0  0  0  0  0  0
   -7.9379    4.9063   27.8518 C   0  0  0  0  0  0  0  0  0  0  0  0
   -7.5112    6.1898   27.6280 C   0  0  0  0  0  0  0  0  0  0  0  0
   -7.8078    2.6331   27.2522 C   0  0  0  0  0  0  0  0  0  0  0  0
   -9.1846    2.4724   27.5426 C   0  0  0  0  0  0  0  0  0  0  0  0
   -9.9168    3.5155   28.0405 C   0  0  0  0  0  0  0  0  0  0  0  0
   -9.3366    4.7963   28.1727 C   0  0  0  0  0  0  0  0  0  0  0  0
  -11.3249    3.2653   28.4083 C   0  0  0  0  0  0  0  0  0  0  0  0
  -12.2269    3.2385   27.5161 C   0  0  0  0  0  0  0  0  0  0  0  0
  -13.6286    3.0119   27.8988 C   0  0  0  0  0  0  0  0  0  0  0  0
  -14.5955    2.9450   26.9026 C   0  0  0  0  0  0  0  0  0  0  0  0
  -12.1597    3.7679   26.2459 C   0  0  0  0  0  0  0  0  0  0  0  0
  -13.1118    3.8738   25.3007 C   0  0  0  0  0  0  0  0  0  0  0  0
  -14.3741    3.5096   25.6732 C   0  0  0  0  0  0  0  0  0  0  0  0
   -7.0567    1.4387   26.8565 C   0  0  0  0  0  0  0  0  0  0  0  0
   -5.9839    1.1404   27.5287 O   0  0  0  0  0  0  0  0  0  0  0  0
   -7.4943    0.7058   25.8678 O   0  0  0  0  0  0  0  0  0  0  0  0
  6  8  1  0
  4 15  1  0
 15 16  2  0
 15 17  1  0
  8  9  1  0
  3  2  1  0
  9 10  2  0
 10 11  1  0
 11 14  2  0
 14 13  1  0
 13 12  2  0
 12  9  1  0
  1  2  2  0
  2  7  1  0
  7  6  2  0
  6  5  1  0
  5  4  2  0
  4  1  1  0
M  END
$$$$
