No_33-complexes_sdf/6BKW-FPZ/2024-09-17-14-21-01/
     RDKit          3D

 30 32  0  0  0  0  0  0  0  0999 V2000
   -7.9040    3.9820   27.1177 C   0  0  0  0  0  0  0  0  0  0  0  0
   -8.2057    2.8231   26.8733 C   0  0  0  0  0  0  0  0  0  0  0  0
   -9.2962    2.4021   26.1155 C   0  0  0  0  0  0  0  0  0  0  0  0
   -8.7358    5.0662   26.5917 C   0  0  0  0  0  0  0  0  0  0  0  0
   -8.4603    6.4492   26.8781 C   0  0  0  0  0  0  0  0  0  0  0  0
  -10.1146    3.3815   25.6105 C   0  0  0  0  0  0  0  0  0  0  0  0
   -9.8194    4.7235   25.8263 C   0  0  0  0  0  0  0  0  0  0  0  0
   -8.0995    6.9133   28.0601 N   0  0  0  0  0  0  0  0  0  0  0  0
   -8.6500    7.3141   25.9303 O   0  0  0  0  0  0  0  0  0  0  0  0
   -7.4963    1.5335   27.3703 C   0  0  1  0  0  0  0  0  0  0  0  0
   -7.9790    0.3451   27.3436 N   0  0  0  0  0  0  0  0  0  0  0  0
   -9.1703    0.0407   27.3344 C   0  0  0  0  0  0  0  0  0  0  0  0
  -10.0322    0.7470   27.2127 C   0  0  0  0  0  0  0  0  0  0  0  0
  -10.0375    1.3034   26.0441 C   0  0  0  0  0  0  0  0  0  0  0  0
   -6.1727    1.8026   27.7611 N   0  0  0  0  0  0  0  0  0  0  0  0
   -5.4760    2.5410   28.2916 C   0  0  0  0  0  0  0  0  0  0  0  0
   -5.2597    0.6471   27.2420 C   0  0  0  0  0  0  0  0  0  0  0  0
   -4.7149   -0.1506   28.2561 C   0  0  2  0  0  0  0  0  0  0  0  0
   -3.6648    0.6521   28.9718 C   0  0  0  0  0  0  0  0  0  0  0  0
   -3.1093   -0.2320   30.3528 Cl  0  0  0  0  0  0  0  0  0  0  0  0
   -9.3582   -1.1789   28.0099 F   0  0  0  0  0  0  0  0  0  0  0  0
   -4.5999   -1.4079   28.1183 C   0  0  0  0  0  0  0  0  0  0  0  0
   -3.7780   -1.9794   27.5115 C   0  0  0  0  0  0  0  0  0  0  0  0
   -5.6142   -2.2866   28.8298 C   0  0  0  0  0  0  0  0  0  0  0  0
   -5.2616   -3.3006   29.4155 C   0  0  0  0  0  0  0  0  0  0  0  0
   -3.4170   -3.4185   27.6940 C   0  0  0  0  0  0  0  0  0  0  0  0
   -4.2462   -4.1086   28.6202 C   0  0  0  0  0  0  0  0  0  0  0  0
   -4.0009   -5.4971   28.9441 C   0  0  0  0  0  0  0  0  0  0  0  0
   -3.2964   -5.8068   29.8109 O   0  0  0  0  0  0  0  0  0  0  0  0
   -4.4266   -6.2983   27.9406 O   0  0  0  0  0  0  0  0  0  0  0  0
  4  5  1  0
  5  8  1  0
  5  9  2  0
  2 10  1  0
 10 11  1  0
 11 12  1  0
 12 13  2  0
  3 14  1  0
 13 14  1  0
 10 15  1  6
 15 16  1  0
 15 17  1  0
 18 17  1  6
 18 19  1  0
 19 20  1  0
 12 21  1  0
 18 22  1  0
 27 28  1  0
 28 29  2  0
 28 30  1  0
  1  2  2  0
  2  3  1  0
  3  6  2  0
  6  7  1  0
  7  4  2  0
  4  1  1  0
 22 23  2  0
 23 26  1  0
 26 27  2  0
 27 25  1  0
 25 24  2  0
 24 22  1  0
M  END
$$$$
