No_3475-complexes_sdf/6BKW-FPZ/2024-09-17-14-21-01/
     RDKit          3D

 10 11  0  0  0  0  0  0  0  0999 V2000
   -7.2496    3.8871   27.4508 C   0  0  0  0  0  0  0  0  0  0  0  0
   -7.6161    2.7143   27.1523 C   0  0  0  0  0  0  0  0  0  0  0  0
   -6.9719    1.5838   27.5324 C   0  0  0  0  0  0  0  0  0  0  0  0
   -7.4590    0.2827   27.2615 C   0  0  0  0  0  0  0  0  0  0  0  0
   -8.6787    2.5578   26.1663 C   0  0  0  0  0  0  0  0  0  0  0  0
   -9.1184    1.2615   25.8299 C   0  0  0  0  0  0  0  0  0  0  0  0
   -8.4686    0.1496   26.4163 C   0  0  0  0  0  0  0  0  0  0  0  0
   -8.0315    5.0828   27.1943 C   0  0  0  0  0  0  0  0  0  0  0  0
   -9.0909    5.0652   26.2552 C   0  0  0  0  0  0  0  0  0  0  0  0
   -9.4666    3.7056   25.7802 C   0  0  0  0  0  0  0  0  0  0  0  0
  1  2  2  0
  5 10  2  0
 10  9  1  0
  9  8  2  0
  8  1  1  0
  2  3  1  0
  3  4  2  0
  4  7  1  0
  7  6  2  0
  6  5  1  0
  5  2  1  0
M  END
$$$$
