No_3683-complexes_sdf/6BKW-FPZ/2024-09-17-14-21-01/
     RDKit          3D

 29 32  0  0  0  0  0  0  0  0999 V2000
   -7.7129    4.2099   27.0854 C   0  0  0  0  0  0  0  0  0  0  0  0
   -8.9133    4.4736   27.0998 C   0  0  0  0  0  0  0  0  0  0  0  0
   -9.8363    3.8127   27.2418 C   0  0  0  0  0  0  0  0  0  0  0  0
   -7.2995    2.8520   27.3808 C   0  0  0  0  0  0  0  0  0  0  0  0
   -8.3404    1.9507   27.4989 C   0  0  0  0  0  0  0  0  0  0  0  0
   -9.6166    2.3791   27.4719 C   0  0  0  0  0  0  0  0  0  0  0  0
   -9.1683    6.0342   26.9011 C   0  0  0  0  0  0  0  0  0  0  0  0
   -8.7928    6.7353   25.9035 N   0  0  0  0  0  0  0  0  0  0  0  0
   -7.9694    0.2841   27.7886 Cl  0  0  0  0  0  0  0  0  0  0  0  0
   -9.8012    6.6599   27.8521 O   0  0  0  0  0  0  0  0  0  0  0  0
  -10.7170    1.4242   27.7846 C   0  0  0  0  0  0  0  0  0  0  0  0
  -10.8371    0.2484   27.3185 C   0  0  0  0  0  0  0  0  0  0  0  0
  -11.9337   -0.1097   26.8051 C   0  0  0  0  0  0  0  0  0  0  0  0
  -12.9599    0.6861   26.7227 C   0  0  0  0  0  0  0  0  0  0  0  0
  -11.9952    1.9578   28.2522 C   0  0  0  0  0  0  0  0  0  0  0  0
  -13.0967    1.7042   27.6949 C   0  0  0  0  0  0  0  0  0  0  0  0
  -14.3558    2.4224   27.9447 C   0  0  0  0  0  0  0  0  0  0  0  0
  -14.4661    3.1327   29.1311 C   0  0  0  0  0  0  0  0  0  0  0  0
  -15.3387    3.0877   29.9117 C   0  0  0  0  0  0  0  0  0  0  0  0
  -16.4321    2.2629   29.7942 C   0  0  0  0  0  0  0  0  0  0  0  0
  -16.5360    1.6944   28.5198 C   0  0  0  0  0  0  0  0  0  0  0  0
  -15.3133    1.2406   28.1478 C   0  0  0  0  0  0  0  0  0  0  0  0
  -14.7585    3.3202   26.8531 C   0  0  0  0  0  0  0  0  0  0  0  0
  -14.3339    3.0961   25.6873 C   0  0  0  0  0  0  0  0  0  0  0  0
  -14.6232    4.0898   24.6337 C   0  0  0  0  0  0  0  0  0  0  0  0
  -14.0215    3.9697   23.3521 C   0  0  0  0  0  0  0  0  0  0  0  0
  -13.1431    2.9335   23.1387 C   0  0  0  0  0  0  0  0  0  0  0  0
  -12.8934    1.9735   24.1223 C   0  0  0  0  0  0  0  0  0  0  0  0
  -13.4316    2.1107   25.3831 C   0  0  0  0  0  0  0  0  0  0  0  0
  2  7  1  0
  7  8  1  0
  5  9  1  0
  7 10  2  0
  6 11  1  0
 16 17  1  0
 17 18  1  0
 19 20  1  0
 17 22  1  0
 21 22  1  0
 17 23  1  0
 23 24  1  0
 18 19  1  0
 20 21  1  0
 24 25  2  0
 25 26  1  0
 26 27  2  0
 27 28  1  0
 28 29  2  0
 29 24  1  0
  1  2  2  0
  2  3  1  0
  3  6  2  0
  6  5  1  0
  5  4  2  0
  4  1  1  0
 11 12  2  0
 12 13  1  0
 13 14  2  0
 14 16  1  0
 16 15  2  0
 15 11  1  0
M  END
$$$$
