No_3849-complexes_sdf/6BKW-FPZ/2024-09-17-14-21-01/
     RDKit          3D

  9  9  0  0  0  0  0  0  0  0999 V2000
   -7.9040    3.9820   27.1177 C   0  0  0  0  0  0  0  0  0  0  0  0
   -7.8663    4.8694   27.9238 C   0  0  0  0  0  0  0  0  0  0  0  0
   -9.0491    3.8523   26.2542 C   0  0  0  0  0  0  0  0  0  0  0  0
   -9.4067    2.6808   25.6532 C   0  0  0  0  0  0  0  0  0  0  0  0
   -6.7494    5.0754   28.8003 C   0  0  0  0  0  0  0  0  0  0  0  0
   -8.5527    1.5692   25.8280 C   0  0  0  0  0  0  0  0  0  0  0  0
   -7.4809    1.6222   26.7492 C   0  0  0  0  0  0  0  0  0  0  0  0
   -7.2515    2.7501   27.4801 C   0  0  0  0  0  0  0  0  0  0  0  0
   -8.7235    6.1076   27.8442 C   0  0  0  0  0  0  0  0  0  0  0  0
  1  2  1  0
  2  5  1  0
  2  9  1  0
  1  3  2  0
  3  4  1  0
  4  6  2  0
  6  7  1  0
  7  8  2  0
  8  1  1  0
M  END
$$$$
