No_357-complexes_sdf/6BKW-FPZ/2024-09-17-14-21-01/
     RDKit          3D

 18 19  0  0  0  0  0  0  0  0999 V2000
   -7.9040    3.9820   27.1177 C   0  0  0  0  0  0  0  0  0  0  0  0
   -7.8663    4.8694   27.9238 C   0  0  0  0  0  0  0  0  0  0  0  0
   -9.0501    3.8017   26.2617 C   0  0  0  0  0  0  0  0  0  0  0  0
  -10.0189    4.7608   26.3707 C   0  0  0  0  0  0  0  0  0  0  0  0
   -8.6973    5.9722   27.8968 C   0  0  0  0  0  0  0  0  0  0  0  0
   -9.8216    5.8946   27.1241 C   0  0  0  0  0  0  0  0  0  0  0  0
   -9.1445    2.6271   25.4265 C   0  0  0  0  0  0  0  0  0  0  0  0
  -10.0990    1.9169   25.7294 F   0  0  0  0  0  0  0  0  0  0  0  0
   -8.5563    2.4571   24.4527 F   0  0  0  0  0  0  0  0  0  0  0  0
   -6.6706    5.1114   28.6772 O   0  0  0  0  0  0  0  0  0  0  0  0
   -7.1103    2.8530   27.0534 O   0  0  0  0  0  0  0  0  0  0  0  0
   -6.9971    1.9651   28.2402 C   0  0  0  0  0  0  0  0  0  0  0  0
   -7.0296    0.5930   27.5332 C   0  0  0  0  0  0  0  0  0  0  0  0
   -6.0703    0.0614   27.0493 C   0  0  0  0  0  0  0  0  0  0  0  0
   -6.1468   -1.1611   26.3211 C   0  0  0  0  0  0  0  0  0  0  0  0
   -7.3832   -1.6995   26.0943 C   0  0  0  0  0  0  0  0  0  0  0  0
   -8.5308   -1.1201   26.6926 C   0  0  0  0  0  0  0  0  0  0  0  0
   -8.3631    0.0943   27.3814 C   0  0  0  0  0  0  0  0  0  0  0  0
  3  7  1  0
  7  8  1  0
  7  9  1  0
  2 10  1  0
  1 11  1  0
 11 12  1  0
 12 13  1  0
 13 14  2  0
 14 15  1  0
 15 16  2  0
 16 17  1  0
 17 18  2  0
 18 13  1  0
  1  2  2  0
  2  5  1  0
  5  6  2  0
  6  4  1  0
  4  3  2  0
  3  1  1  0
M  END
$$$$
