No_3895-complexes_sdf/6BKW-FPZ/2024-09-17-14-21-01/
     RDKit          3D

 32 36  0  0  0  0  0  0  0  0999 V2000
   -7.9040    3.9820   27.1177 C   0  0  0  0  0  0  0  0  0  0  0  0
   -8.2057    2.8231   26.8733 C   0  0  0  0  0  0  0  0  0  0  0  0
   -9.2962    2.4021   26.1155 C   0  0  0  0  0  0  0  0  0  0  0  0
   -6.8682    4.5169   28.0704 C   0  0  0  0  0  0  0  0  0  0  0  0
  -10.0578    3.3688   25.5520 C   0  0  0  0  0  0  0  0  0  0  0  0
   -9.6997    4.7480   25.6981 C   0  0  0  0  0  0  0  0  0  0  0  0
   -8.6783    5.1111   26.5262 C   0  0  0  0  0  0  0  0  0  0  0  0
  -11.1704    3.0677   24.6150 C   0  0  0  0  0  0  0  0  0  0  0  0
  -11.2492    3.6669   23.4645 C   0  0  0  0  0  0  0  0  0  0  0  0
  -10.3798    4.2049   22.8053 C   0  0  0  0  0  0  0  0  0  0  0  0
  -10.5383    4.8408   21.4817 C   0  0  0  0  0  0  0  0  0  0  0  0
  -12.5461    3.4974   22.6856 C   0  0  0  0  0  0  0  0  0  0  0  0
  -13.5669    2.7564   23.3570 C   0  0  0  0  0  0  0  0  0  0  0  0
  -13.3372    2.2789   24.6210 C   0  0  0  0  0  0  0  0  0  0  0  0
  -12.2018    2.4644   25.3339 C   0  0  0  0  0  0  0  0  0  0  0  0
   -5.8143    3.7515   28.1519 F   0  0  0  0  0  0  0  0  0  0  0  0
   -6.9847    5.5373   28.6969 F   0  0  0  0  0  0  0  0  0  0  0  0
  -11.6653    4.6495   20.8156 C   0  0  0  0  0  0  0  0  0  0  0  0
  -12.7302    4.0029   21.4161 C   0  0  0  0  0  0  0  0  0  0  0  0
  -12.0890    1.9487   26.7015 C   0  0  0  0  0  0  0  0  0  0  0  0
  -12.3470    2.6520   27.7345 C   0  0  0  0  0  0  0  0  0  0  0  0
  -12.1485    2.1960   29.1529 C   0  0  0  0  0  0  0  0  0  0  0  0
  -11.7919    0.8264   29.2213 C   0  0  0  0  0  0  0  0  0  0  0  0
  -11.6077    0.6170   27.0422 C   0  0  0  0  0  0  0  0  0  0  0  0
  -11.3153   -0.2903   25.8820 C   0  0  0  0  0  0  0  0  0  0  0  0
  -11.4276    0.0965   28.2521 C   0  0  0  0  0  0  0  0  0  0  0  0
  -11.9228   -1.4624   25.7693 C   0  0  0  0  0  0  0  0  0  0  0  0
  -11.6957   -2.2680   24.6610 C   0  0  0  0  0  0  0  0  0  0  0  0
  -10.9124   -1.8189   23.6206 C   0  0  0  0  0  0  0  0  0  0  0  0
  -10.2952   -0.5624   23.6786 C   0  0  0  0  0  0  0  0  0  0  0  0
  -10.4998    0.2053   24.8045 C   0  0  0  0  0  0  0  0  0  0  0  0
  -12.8593    4.1051   27.6622 C   0  0  0  0  0  0  0  0  0  0  0  0
  1  4  1  0
  5  8  1  0
  4 16  1  0
  4 17  1  0
 15 20  1  0
 24 25  1  0
 21 32  1  0
 25 27  2  0
 27 28  1  0
 28 29  2  0
 29 30  1  0
 30 31  2  0
 31 25  1  0
  1  2  2  0
  2  3  1  0
  3  5  2  0
  5  6  1  0
  6  7  2  0
  7  1  1  0
 20 21  2  0
 21 22  1  0
 22 23  2  0
 23 26  1  0
 26 24  2  0
 24 20  1  0
  9 10  2  0
 10 11  1  0
 11 18  2  0
 18 19  1  0
 19 12  2  0
  8  9  1  0
  9 12  1  0
 12 13  1  0
 13 14  2  0
 14 15  1  0
 15  8  2  0
M  END
$$$$
