No_3819-complexes_sdf/6BKW-FPZ/2024-09-17-14-21-01/
     RDKit          3D

 21 23  0  0  0  0  0  0  0  0999 V2000
   -7.9040    3.9820   27.1177 C   0  0  0  0  0  0  0  0  0  0  0  0
   -9.0711    4.3164   27.0630 C   0  0  0  0  0  0  0  0  0  0  0  0
   -9.5294    5.4517   27.7215 C   0  0  0  0  0  0  0  0  0  0  0  0
   -7.4336    2.7132   26.5681 C   0  0  0  0  0  0  0  0  0  0  0  0
   -8.3353    1.8569   26.0442 C   0  0  0  0  0  0  0  0  0  0  0  0
   -9.6477    2.2853   25.9146 C   0  0  0  0  0  0  0  0  0  0  0  0
  -10.0346    3.4497   26.4483 C   0  0  2  0  0  0  0  0  0  0  0  0
   -7.8750    0.5509   25.5918 C   0  0  0  0  0  0  0  0  0  0  0  0
   -8.0040    0.2730   24.4392 O   0  0  0  0  0  0  0  0  0  0  0  0
   -7.3963   -0.2648   26.4783 O   0  0  0  0  0  0  0  0  0  0  0  0
   -6.9060    4.6959   27.8685 N   0  0  0  0  0  0  0  0  0  0  0  0
   -7.2515    5.8736   28.4583 C   0  0  0  0  0  0  0  0  0  0  0  0
   -8.5674    6.2499   28.3351 N   0  0  0  0  0  0  0  0  0  0  0  0
  -11.4145    3.8802   26.1654 C   0  0  0  0  0  0  0  0  0  0  0  0
  -11.9683    3.9957   25.0337 C   0  0  0  0  0  0  0  0  0  0  0  0
  -11.2338    4.0020   23.8246 C   0  0  0  0  0  0  0  0  0  0  0  0
  -11.8172    4.1244   22.5615 C   0  0  0  0  0  0  0  0  0  0  0  0
  -13.1656    4.2242   22.5120 C   0  0  0  0  0  0  0  0  0  0  0  0
  -13.9418    4.2745   23.6697 C   0  0  0  0  0  0  0  0  0  0  0  0
  -13.3570    4.2131   24.9345 C   0  0  0  0  0  0  0  0  0  0  0  0
  -12.0925    4.1156   27.3615 O   0  0  0  0  0  0  0  0  0  0  0  0
  1  4  1  0
  4  5  1  0
  5  6  1  0
  2  7  1  0
  6  7  1  0
  5  8  1  0
  8  9  2  0
  8 10  1  0
  7 14  1  6
 14 15  1  0
 14 21  2  0
 15 16  2  0
 16 17  1  0
 17 18  2  0
 18 19  1  0
 19 20  2  0
 20 15  1  0
  1  2  1  0
  2  3  2  0
  3 13  1  0
 13 12  2  0
 12 11  1  0
 11  1  2  0
M  END
$$$$
