No_3199-complexes_sdf/6BKW-FPZ/2024-09-17-14-21-01/
     RDKit          3D

 13 14  0  0  0  0  0  0  0  0999 V2000
   -7.7129    4.2099   27.0854 C   0  0  0  0  0  0  0  0  0  0  0  0
   -7.7814    5.1722   27.8972 C   0  0  0  0  0  0  0  0  0  0  0  0
   -8.7889    3.2468   27.2220 C   0  0  0  0  0  0  0  0  0  0  0  0
   -9.8671    3.4455   28.0317 C   0  0  0  0  0  0  0  0  0  0  0  0
   -8.9592    5.6476   28.6200 C   0  0  0  0  0  0  0  0  0  0  0  0
   -9.9658    4.7049   28.7257 C   0  0  0  0  0  0  0  0  0  0  0  0
   -8.4902    1.9582   26.4588 C   0  0  0  0  0  0  0  0  0  0  0  0
   -7.5713    1.0520   26.9245 C   0  0  0  0  0  0  0  0  0  0  0  0
   -7.3808   -0.1681   26.3402 C   0  0  0  0  0  0  0  0  0  0  0  0
   -8.1632   -0.4342   25.1949 C   0  0  0  0  0  0  0  0  0  0  0  0
   -9.2745    1.5404   25.4924 C   0  0  0  0  0  0  0  0  0  0  0  0
   -9.0777    0.4635   24.7464 C   0  0  0  0  0  0  0  0  0  0  0  0
  -11.1391    2.3492   28.1317 Cl  0  0  0  0  0  0  0  0  0  0  0  0
  3  7  1  0
  4 13  1  0
  7  8  2  0
  8  9  1  0
  9 10  2  0
 10 12  1  0
 12 11  2  0
 11  7  1  0
  1  2  2  0
  2  5  1  0
  5  6  2  0
  6  4  1  0
  4  3  2  0
  3  1  1  0
M  END
$$$$
