No_3104-complexes_sdf/6BKW-FPZ/2024-09-17-14-21-01/
     RDKit          3D

 13 14  0  0  0  0  0  0  0  0999 V2000
   -7.2496    3.8871   27.4508 C   0  0  0  0  0  0  0  0  0  0  0  0
   -7.9379    4.9063   27.8518 C   0  0  0  0  0  0  0  0  0  0  0  0
   -8.7729    5.5444   27.0168 C   0  0  0  0  0  0  0  0  0  0  0  0
   -7.7708    3.0049   26.4155 C   0  0  0  0  0  0  0  0  0  0  0  0
   -9.4150    4.8195   25.9760 C   0  0  0  0  0  0  0  0  0  0  0  0
   -8.8843    3.5312   25.7385 C   0  0  0  0  0  0  0  0  0  0  0  0
   -9.4722    2.7950   24.6213 C   0  0  0  0  0  0  0  0  0  0  0  0
   -9.2484    1.4955   24.4387 C   0  0  0  0  0  0  0  0  0  0  0  0
  -10.2980    3.5203   23.6749 C   0  0  0  0  0  0  0  0  0  0  0  0
  -10.8096    2.8894   22.5751 C   0  0  0  0  0  0  0  0  0  0  0  0
   -8.4745    0.7047   25.2708 C   0  0  0  0  0  0  0  0  0  0  0  0
   -7.5754    1.5878   26.2964 C   0  0  0  0  0  0  0  0  0  0  0  0
  -10.5915    1.5388   22.4464 C   0  0  0  0  0  0  0  0  0  0  0  0
  7  9  1  0
  9 10  1  0
 10 13  2  0
  1  2  2  0
  2  3  1  0
  3  5  2  0
  5  6  1  0
  4  1  1  0
  4  6  2  0
  6  7  1  0
  7  8  2  0
  8 11  1  0
 11 12  2  0
 12  4  1  0
M  END
$$$$
