No_3130-complexes_sdf/6BKW-FPZ/2024-09-17-14-21-01/
     RDKit          3D

 14 14  0  0  0  0  0  0  0  0999 V2000
   -7.7129    4.2099   27.0854 C   0  0  0  0  0  0  0  0  0  0  0  0
   -7.7814    5.1722   27.8972 C   0  0  0  0  0  0  0  0  0  0  0  0
   -8.8998    3.8713   26.3707 C   0  0  0  0  0  0  0  0  0  0  0  0
   -8.9563    2.6796   25.5490 C   0  0  0  0  0  0  0  0  0  0  0  0
   -8.8131    6.1334   27.9344 C   0  0  0  0  0  0  0  0  0  0  0  0
   -9.9804    5.8121   27.1929 C   0  0  0  0  0  0  0  0  0  0  0  0
   -9.9861    4.6836   26.4532 C   0  0  0  0  0  0  0  0  0  0  0  0
   -9.3813    2.7713   24.3934 F   0  0  0  0  0  0  0  0  0  0  0  0
   -9.7053    1.7183   26.2851 F   0  0  0  0  0  0  0  0  0  0  0  0
   -7.7333    2.0982   25.5770 F   0  0  0  0  0  0  0  0  0  0  0  0
   -6.6672    5.5859   28.6431 O   0  0  0  0  0  0  0  0  0  0  0  0
  -11.0437    4.4117   25.6926 O   0  0  0  0  0  0  0  0  0  0  0  0
  -11.0602    4.4969   24.2985 C   0  0  0  0  0  0  0  0  0  0  0  0
  -12.1723    4.7446   23.6488 C   0  0  0  0  0  0  0  0  0  0  0  0
  3  4  1  0
  4  8  1  0
  4  9  1  0
  4 10  1  0
  2 11  1  0
  7 12  1  0
 12 13  1  0
 13 14  2  0
  1  2  2  0
  2  5  1  0
  5  6  2  0
  6  7  1  0
  7  3  2  0
  3  1  1  0
M  END
$$$$
