No_3490-complexes_sdf/6BKW-FPZ/2024-09-17-14-21-01/
     RDKit          3D

 13 14  0  0  0  0  0  0  0  0999 V2000
   -7.9040    3.9820   27.1177 C   0  0  0  0  0  0  0  0  0  0  0  0
   -8.2057    2.8231   26.8733 C   0  0  0  0  0  0  0  0  0  0  0  0
   -9.2962    2.4021   26.1155 C   0  0  0  0  0  0  0  0  0  0  0  0
   -6.8682    4.5169   28.0704 C   0  0  0  0  0  0  0  0  0  0  0  0
  -10.0578    3.3688   25.5520 C   0  0  0  0  0  0  0  0  0  0  0  0
   -9.6997    4.7480   25.6981 C   0  0  0  0  0  0  0  0  0  0  0  0
   -8.6783    5.1111   26.5262 C   0  0  0  0  0  0  0  0  0  0  0  0
  -11.3473    3.0058   24.4738 Cl  0  0  0  0  0  0  0  0  0  0  0  0
   -7.0334    5.6734   28.6581 N   0  0  0  0  0  0  0  0  0  0  0  0
   -5.8641    3.7843   28.0607 F   0  0  0  0  0  0  0  0  0  0  0  0
   -8.4105    6.4608   26.8792 C   0  0  0  0  0  0  0  0  0  0  0  0
   -7.6649    6.6834   28.0248 C   0  0  0  0  0  0  0  0  0  0  0  0
   -9.6536    0.7632   25.7733 Cl  0  0  0  0  0  0  0  0  0  0  0  0
  5  8  1  0
  4 10  1  0
  3 13  1  0
  1  4  1  0
  4  9  2  0
  9 12  1  0
 12 11  2  0
 11  7  1  0
  1  2  2  0
  2  3  1  0
  3  5  2  0
  5  6  1  0
  6  7  2  0
  7  1  1  0
M  END
$$$$
