No_3257-complexes_sdf/6BKW-FPZ/2024-09-17-14-21-01/
     RDKit          3D

 39 42  0  0  0  0  0  0  0  0999 V2000
   -7.9040    3.9820   27.1177 C   0  0  0  0  0  0  0  0  0  0  0  0
   -7.8663    4.8694   27.9238 C   0  0  0  0  0  0  0  0  0  0  0  0
   -9.0491    3.8523   26.2542 C   0  0  0  0  0  0  0  0  0  0  0  0
   -8.6019    5.9544   27.7203 C   0  0  0  0  0  0  0  0  0  0  0  0
   -9.2255    2.6699   25.4577 C   0  0  0  0  0  0  0  0  0  0  0  0
   -9.6827    6.0063   26.8916 C   0  0  0  0  0  0  0  0  0  0  0  0
   -9.7947    4.9226   26.1034 C   0  0  0  0  0  0  0  0  0  0  0  0
  -10.1436    1.9007   25.8902 C   0  0  0  0  0  0  0  0  0  0  0  0
  -10.3824    0.6589   25.1002 C   0  0  0  0  0  0  0  0  0  0  0  0
   -9.6895    0.4689   23.9989 C   0  0  0  0  0  0  0  0  0  0  0  0
   -8.7848    1.3891   23.4921 C   0  0  0  0  0  0  0  0  0  0  0  0
   -8.5516    2.4908   24.2317 C   0  0  0  0  0  0  0  0  0  0  0  0
   -7.0132    2.7352   27.3437 C   0  0  0  0  0  0  0  0  0  0  0  0
   -5.7644    2.9544   27.5214 N   0  0  0  0  0  0  0  0  0  0  0  0
   -7.4190    1.5890   27.2212 F   0  0  0  0  0  0  0  0  0  0  0  0
   -4.8980    1.8842   27.9023 C   0  0  0  0  0  0  0  0  0  0  0  0
   -3.8255    1.8475   27.8934 O   0  0  0  0  0  0  0  0  0  0  0  0
   -5.5702    0.8461   28.4814 O   0  0  0  0  0  0  0  0  0  0  0  0
   -4.7173   -0.0538   29.1725 C   0  0  0  0  0  0  0  0  0  0  0  0
   -4.6494   -1.1598   28.7991 C   0  0  0  0  0  0  0  0  0  0  0  0
   -5.5164   -1.7155   28.0242 C   0  0  0  0  0  0  0  0  0  0  0  0
   -6.7603   -1.8405   28.2771 C   0  0  0  0  0  0  0  0  0  0  0  0
   -7.2574   -1.6905   29.6004 C   0  0  0  0  0  0  0  0  0  0  0  0
   -7.6277   -2.7414   30.2903 C   0  0  0  0  0  0  0  0  0  0  0  0
   -8.1586   -2.5872   31.6756 C   0  0  0  0  0  0  0  0  0  0  0  0
   -7.9052   -3.0367   32.7438 C   0  0  0  0  0  0  0  0  0  0  0  0
   -6.7615   -3.9228   32.8340 C   0  0  0  0  0  0  0  0  0  0  0  0
   -6.2445   -4.3818   31.6499 C   0  0  0  0  0  0  0  0  0  0  0  0
   -8.1661   -4.0291   29.8412 C   0  0  0  0  0  0  0  0  0  0  0  0
   -5.1077   -5.3331   31.9675 C   0  0  0  0  0  0  0  0  0  0  0  0
   -8.5318   -4.8579   30.3817 C   0  0  0  0  0  0  0  0  0  0  0  0
   -4.5963   -5.4237   33.2147 C   0  0  0  0  0  0  0  0  0  0  0  0
   -5.1362   -4.8197   34.2842 C   0  0  0  0  0  0  0  0  0  0  0  0
   -6.1819   -4.0164   34.1713 C   0  0  0  0  0  0  0  0  0  0  0  0
   -7.1562   -5.3704   30.9579 C   0  0  2  0  0  0  0  0  0  0  0  0
   -6.8464   -6.7713   30.8485 C   0  0  0  0  0  0  0  0  0  0  0  0
   -7.5591   -7.5982   31.2374 C   0  0  0  0  0  0  0  0  0  0  0  0
   -7.2478   -9.0086   31.0695 C   0  0  0  0  0  0  0  0  0  0  0  0
   -6.0667   -9.3030   30.4440 C   0  0  0  0  0  0  0  0  0  0  0  0
  3  5  1  0
  1 13  1  0
 13 14  2  3
 13 15  1  0
 14 16  1  0
 16 17  2  0
 16 18  1  0
 18 19  1  0
 19 20  1  0
 20 21  1  0
 21 22  2  3
 22 23  1  0
 23 24  2  3
 24 25  1  0
 25 26  2  3
 26 27  1  0
 24 29  1  0
 29 31  2  3
 28 35  1  0
 31 35  1  0
 35 36  1  1
 36 37  2  3
 37 38  1  0
 38 39  2  0
  5  8  2  0
  8  9  1  0
  9 10  2  0
 10 11  1  0
 11 12  2  0
 12  5  1  0
  1  2  2  0
  2  4  1  0
  4  6  2  0
  6  7  1  0
  7  3  2  0
  3  1  1  0
 27 28  2  0
 28 30  1  0
 30 32  2  0
 32 33  1  0
 33 34  2  0
 34 27  1  0
M  END
$$$$
