No_3679-complexes_sdf/6BKW-FPZ/2024-09-17-14-21-01/
     RDKit          3D

 33 36  0  0  0  0  0  0  0  0999 V2000
   -7.7129    4.2099   27.0854 C   0  0  0  0  0  0  0  0  0  0  0  0
   -8.2112    3.0637   26.9225 C   0  0  0  0  0  0  0  0  0  0  0  0
   -8.5108    5.3904   26.9436 C   0  0  0  0  0  0  0  0  0  0  0  0
   -9.7256    5.1955   26.3518 C   0  0  0  0  0  0  0  0  0  0  0  0
   -7.4704    1.8386   27.3272 C   0  0  0  0  0  0  0  0  0  0  0  0
   -9.4948    2.8714   26.4765 C   0  0  0  0  0  0  0  0  0  0  0  0
  -10.2383    3.9753   26.1836 C   0  0  0  0  0  0  0  0  0  0  0  0
   -6.0898    1.9940   27.7253 C   0  0  0  0  0  0  0  0  0  0  0  0
   -5.3067    0.7727   28.0659 C   0  0  0  0  0  0  0  0  0  0  0  0
   -5.9150   -0.4328   27.9673 C   0  0  0  0  0  0  0  0  0  0  0  0
   -7.8722    0.5149   27.2581 C   0  0  0  0  0  0  0  0  0  0  0  0
   -7.2225   -0.5381   27.6476 C   0  0  0  0  0  0  0  0  0  0  0  0
   -7.9451    6.7447   27.1692 C   0  0  0  0  0  0  0  0  0  0  0  0
   -8.6064    7.8050   26.8344 O   0  0  0  0  0  0  0  0  0  0  0  0
   -6.9896    6.8936   28.0955 O   0  0  0  0  0  0  0  0  0  0  0  0
   -3.6848    0.8913   28.6196 Cl  0  0  0  0  0  0  0  0  0  0  0  0
  -11.5604    3.8259   25.5538 C   0  0  1  0  0  0  0  0  0  0  0  0
  -11.6340    3.2764   24.3353 C   0  0  0  0  0  0  0  0  0  0  0  0
  -10.4908    2.7896   23.6583 C   0  0  0  0  0  0  0  0  0  0  0  0
  -10.5372    2.2564   22.3477 C   0  0  0  0  0  0  0  0  0  0  0  0
  -11.7037    2.3554   21.6252 C   0  0  0  0  0  0  0  0  0  0  0  0
  -12.8307    2.9344   22.2417 C   0  0  0  0  0  0  0  0  0  0  0  0
  -12.7832    3.4142   23.4873 C   0  0  0  0  0  0  0  0  0  0  0  0
  -12.7193    4.1034   26.3327 C   0  0  0  0  0  0  0  0  0  0  0  0
  -13.1974    3.2767   27.2620 C   0  0  0  0  0  0  0  0  0  0  0  0
  -12.5399    2.1541   27.7829 C   0  0  0  0  0  0  0  0  0  0  0  0
  -13.0394    1.4370   28.9413 C   0  0  0  0  0  0  0  0  0  0  0  0
  -14.1471    1.9940   29.6242 C   0  0  0  0  0  0  0  0  0  0  0  0
  -14.7741    3.1353   29.1879 C   0  0  0  0  0  0  0  0  0  0  0  0
  -14.3443    3.8748   28.0903 C   0  0  0  0  0  0  0  0  0  0  0  0
  -14.9973    4.9972   27.6724 C   0  0  0  0  0  0  0  0  0  0  0  0
  -15.0978    6.0364   28.6359 C   0  0  0  0  0  0  0  0  0  0  0  0
  -16.2893    4.7370   26.9506 C   0  0  0  0  0  0  0  0  0  0  0  0
  2  5  1  0
  3 13  1  0
 13 14  2  0
 13 15  1  0
  9 16  1  0
  7 17  1  0
 17 24  1  1
 30 31  1  0
 31 32  1  0
 31 33  1  0
 17 18  1  0
 24 25  1  0
 18 19  2  0
 19 20  1  0
 20 21  2  0
 21 22  1  0
 22 23  2  0
 23 18  1  0
  1  2  2  0
  2  6  1  0
  6  7  2  0
  7  4  1  0
  4  3  2  0
  3  1  1  0
  5  8  2  0
  8  9  1  0
  9 10  2  0
 10 12  1  0
 12 11  2  0
 11  5  1  0
 25 26  2  0
 26 27  1  0
 27 28  2  0
 28 29  1  0
 29 30  2  0
 30 25  1  0
M  END
$$$$
