No_3935-complexes_sdf/6BKW-FPZ/2024-09-17-14-21-01/
     RDKit          3D

 29 32  0  0  0  0  0  0  0  0999 V2000
   -7.9040    3.9820   27.1177 C   0  0  0  0  0  0  0  0  0  0  0  0
   -7.8663    4.8694   27.9238 C   0  0  0  0  0  0  0  0  0  0  0  0
   -9.0501    3.8017   26.2617 C   0  0  0  0  0  0  0  0  0  0  0  0
  -10.0189    4.7608   26.3707 C   0  0  0  0  0  0  0  0  0  0  0  0
   -8.6770    5.9780   27.9222 C   0  0  0  0  0  0  0  0  0  0  0  0
   -9.8040    5.8752   27.0958 C   0  0  0  0  0  0  0  0  0  0  0  0
   -9.1317    2.6414   25.4147 C   0  0  0  0  0  0  0  0  0  0  0  0
   -8.6458    1.4431   25.8429 C   0  0  0  0  0  0  0  0  0  0  0  0
   -9.8152    2.7444   24.1900 C   0  0  0  0  0  0  0  0  0  0  0  0
   -8.7189    0.3583   25.0028 C   0  0  0  0  0  0  0  0  0  0  0  0
   -9.8603    1.6493   23.3627 C   0  0  0  0  0  0  0  0  0  0  0  0
   -9.2929    0.4527   23.7710 C   0  0  0  0  0  0  0  0  0  0  0  0
   -9.3274   -0.8183   22.9901 C   0  0  0  0  0  0  0  0  0  0  0  0
  -10.3535   -1.2371   22.4020 C   0  0  0  0  0  0  0  0  0  0  0  0
  -10.3491   -2.4183   21.5444 C   0  0  0  0  0  0  0  0  0  0  0  0
   -9.1439   -3.0717   21.3545 C   0  0  0  0  0  0  0  0  0  0  0  0
   -8.0109   -1.5218   22.7283 C   0  0  0  0  0  0  0  0  0  0  0  0
   -7.9645   -2.5833   21.9433 C   0  0  0  0  0  0  0  0  0  0  0  0
   -6.7433   -0.9706   23.3087 C   0  0  0  0  0  0  0  0  0  0  0  0
   -6.0639   -1.9656   24.1664 C   0  0  0  0  0  0  0  0  0  0  0  0
   -5.2370   -1.4862   25.1199 C   0  0  0  0  0  0  0  0  0  0  0  0
   -4.4910   -2.3186   25.9645 C   0  0  0  0  0  0  0  0  0  0  0  0
   -4.5730   -3.6886   25.7514 C   0  0  0  0  0  0  0  0  0  0  0  0
   -5.3729   -4.1754   24.7499 C   0  0  0  0  0  0  0  0  0  0  0  0
   -6.1182   -3.3277   23.9584 C   0  0  0  0  0  0  0  0  0  0  0  0
   -3.6225   -1.7473   27.0328 C   0  0  0  0  0  0  0  0  0  0  0  0
   -2.6209   -2.1862   27.3787 F   0  0  0  0  0  0  0  0  0  0  0  0
   -3.3436   -0.3433   26.6710 F   0  0  0  0  0  0  0  0  0  0  0  0
   -4.4675   -1.5311   28.1249 F   0  0  0  0  0  0  0  0  0  0  0  0
  3  7  1  0
 12 13  1  0
 17 19  1  0
 19 20  1  0
 22 26  1  0
 26 27  1  0
 26 28  1  0
 26 29  1  0
 20 21  2  0
 21 22  1  0
 22 23  2  0
 23 24  1  0
 24 25  2  0
 25 20  1  0
 13 14  2  0
 14 15  1  0
 15 16  2  0
 16 18  1  0
 18 17  2  0
 17 13  1  0
  1  2  2  0
  2  5  1  0
  5  6  2  0
  6  4  1  0
  4  3  2  0
  3  1  1  0
  7  8  2  0
  8 10  1  0
 10 12  2  0
 12 11  1  0
 11  9  2  0
  9  7  1  0
M  END
$$$$
