No_367-complexes_sdf/6BKW-FPZ/2024-09-17-14-21-01/
     RDKit          3D

 27 30  0  0  0  0  0  0  0  0999 V2000
   -7.9040    3.9820   27.1177 C   0  0  0  0  0  0  0  0  0  0  0  0
   -8.2057    2.8231   26.8733 C   0  0  0  0  0  0  0  0  0  0  0  0
   -9.2962    2.4021   26.1155 C   0  0  0  0  0  0  0  0  0  0  0  0
   -6.8682    4.5169   28.0704 C   0  0  0  0  0  0  0  0  0  0  0  0
  -10.0578    3.3688   25.5520 C   0  0  0  0  0  0  0  0  0  0  0  0
   -9.6997    4.7480   25.6981 C   0  0  0  0  0  0  0  0  0  0  0  0
   -8.6783    5.1111   26.5262 C   0  0  0  0  0  0  0  0  0  0  0  0
   -8.4112    6.4758   26.8405 C   0  0  0  0  0  0  0  0  0  0  0  0
   -7.3398    6.8507   27.6200 C   0  0  0  0  0  0  0  0  0  0  0  0
   -6.7173    5.8635   28.2811 C   0  0  0  0  0  0  0  0  0  0  0  0
   -7.1559    1.3659   27.6392 Br  0  0  0  0  0  0  0  0  0  0  0  0
  -11.1384    3.0831   24.5742 C   0  0  0  0  0  0  0  0  0  0  0  0
  -12.2844    2.6791   25.0638 C   0  0  0  0  0  0  0  0  0  0  0  0
  -10.9278    3.2230   23.1887 C   0  0  0  0  0  0  0  0  0  0  0  0
  -11.5987    2.8346   22.1862 C   0  0  0  0  0  0  0  0  0  0  0  0
  -13.2878    2.3030   24.0091 C   0  0  0  0  0  0  0  0  0  0  0  0
  -12.9544    2.4279   22.6445 C   0  0  0  0  0  0  0  0  0  0  0  0
  -12.7205    2.5967   26.4150 C   0  0  0  0  0  0  0  0  0  0  0  0
  -13.7514    2.7089   26.9633 C   0  0  0  0  0  0  0  0  0  0  0  0
  -14.0014    2.6268   28.3931 C   0  0  0  0  0  0  0  0  0  0  0  0
  -15.1247    2.7945   29.0627 C   0  0  0  0  0  0  0  0  0  0  0  0
  -16.2192    3.2244   28.2491 C   0  0  0  0  0  0  0  0  0  0  0  0
  -16.1015    3.3888   26.9191 C   0  0  0  0  0  0  0  0  0  0  0  0
  -14.9313    3.2235   26.2526 C   0  0  0  0  0  0  0  0  0  0  0  0
  -12.7498    2.1652   29.1692 C   0  0  0  0  0  0  0  0  0  0  0  0
  -12.5642    2.3647   30.2554 N   0  0  0  0  0  0  0  0  0  0  0  0
  -11.7594    1.5354   28.5820 O   0  0  0  0  0  0  0  0  0  0  0  0
  2 11  1  0
  5 12  1  0
 13 18  1  0
 20 25  1  0
 25 26  1  0
 25 27  2  0
 18 19  1  0
  1  4  1  0
  4 10  2  0
 10  9  1  0
  9  8  2  0
  8  7  1  0
 19 20  2  0
 20 21  1  0
 21 22  2  0
 22 23  1  0
 23 24  2  0
 24 19  1  0
 12 13  2  0
 13 16  1  0
 16 17  2  0
 17 15  1  0
 15 14  2  0
 14 12  1  0
  1  2  2  0
  2  3  1  0
  3  5  2  0
  5  6  1  0
  6  7  2  0
  7  1  1  0
M  END
$$$$
