No_3337-complexes_sdf/6BKW-FPZ/2024-09-17-14-21-01/
     RDKit          3D

 18 19  0  0  0  0  0  0  0  0999 V2000
   -7.9040    3.9820   27.1177 C   0  0  0  0  0  0  0  0  0  0  0  0
   -9.0711    4.3164   27.0630 C   0  0  0  0  0  0  0  0  0  0  0  0
   -9.9692    3.7224   26.1073 C   0  0  0  0  0  0  0  0  0  0  0  0
   -6.9787    4.6761   28.1003 C   0  0  0  0  0  0  0  0  0  0  0  0
   -9.4538    2.6801   25.3673 C   0  0  0  0  0  0  0  0  0  0  0  0
   -8.1927    2.1957   25.6621 C   0  0  0  0  0  0  0  0  0  0  0  0
   -7.4333    2.8255   26.6299 C   0  0  0  0  0  0  0  0  0  0  0  0
  -10.3181    2.0008   24.3846 C   0  0  0  0  0  0  0  0  0  0  0  0
  -10.7358    2.6411   23.3159 C   0  0  0  0  0  0  0  0  0  0  0  0
  -11.3112    2.0503   22.2045 C   0  0  0  0  0  0  0  0  0  0  0  0
  -11.4511    0.6121   22.2741 C   0  0  0  0  0  0  0  0  0  0  0  0
  -10.9725   -0.0537   23.3561 C   0  0  0  0  0  0  0  0  0  0  0  0
  -10.2974    0.5868   24.3771 C   0  0  0  0  0  0  0  0  0  0  0  0
   -6.9296    5.6439   28.3782 N   0  0  0  0  0  0  0  0  0  0  0  0
   -5.7808    3.9673   28.2625 O   0  0  0  0  0  0  0  0  0  0  0  0
  -10.5946    4.1745   23.1690 C   0  0  0  0  0  0  0  0  0  0  0  0
  -10.8958    4.8221   21.9802 C   0  0  0  0  0  0  0  0  0  0  0  0
  -11.4902    4.1042   20.9440 C   0  0  0  0  0  0  0  0  0  0  0  0
  1  4  1  0
  5  8  1  0
  4 14  1  0
  4 15  2  0
  9 16  1  0
 16 17  2  3
 17 18  1  0
  8  9  2  0
  9 10  1  0
 10 11  2  0
 11 12  1  0
 12 13  2  0
 13  8  1  0
  1  2  2  0
  2  3  1  0
  3  5  2  0
  5  6  1  0
  6  7  2  0
  7  1  1  0
M  END
$$$$
