No_3066-complexes_sdf/6BKW-FPZ/2024-09-17-14-21-01/
     RDKit          3D

 20 22  0  0  0  0  0  0  0  0999 V2000
   -7.9040    3.9820   27.1177 C   0  0  0  0  0  0  0  0  0  0  0  0
   -7.8663    4.8694   27.9238 C   0  0  0  0  0  0  0  0  0  0  0  0
   -7.4698    2.6989   27.4277 C   0  0  0  0  0  0  0  0  0  0  0  0
   -7.9683    1.5964   26.8266 C   0  0  0  0  0  0  0  0  0  0  0  0
   -7.5289    0.3101   27.1202 C   0  0  0  0  0  0  0  0  0  0  0  0
   -6.3497    0.1847   27.8178 C   0  0  0  0  0  0  0  0  0  0  0  0
   -5.8832   -1.1439   28.1920 C   0  0  0  0  0  0  0  0  0  0  0  0
   -8.6382    6.0273   27.8007 C   0  0  0  0  0  0  0  0  0  0  0  0
   -8.7748    4.1144   26.0208 C   0  0  0  0  0  0  0  0  0  0  0  0
   -9.4656    5.3005   25.7510 C   0  0  0  0  0  0  0  0  0  0  0  0
   -9.3018    6.3754   26.6590 C   0  0  0  0  0  0  0  0  0  0  0  0
   -4.6726   -1.2367   28.9421 C   0  0  0  0  0  0  0  0  0  0  0  0
   -3.9372   -0.0434   29.2341 C   0  0  0  0  0  0  0  0  0  0  0  0
   -4.3373    1.1920   28.7395 C   0  0  0  0  0  0  0  0  0  0  0  0
   -5.5327    1.3039   28.0806 C   0  0  0  0  0  0  0  0  0  0  0  0
   -6.1191    2.5765   27.8613 N   0  0  0  0  0  0  0  0  0  0  0  0
   -8.3022   -0.8074   26.6945 C   0  0  0  0  0  0  0  0  0  0  0  0
   -9.3089   -0.9232   25.4777 Cl  0  0  0  0  0  0  0  0  0  0  0  0
   -8.1755   -2.1102   27.4865 C   0  0  0  0  0  0  0  0  0  0  0  0
   -6.7882   -2.2059   28.0529 C   0  0  0  0  0  0  0  0  0  0  0  0
  1  3  1  0
  5 17  1  0
 17 18  1  0
 17 19  1  0
 19 20  2  0
  1  2  2  0
  2  8  1  0
  8 11  2  0
 11 10  1  0
 10  9  2  0
  9  1  1  0
  6  7  1  0
  7 12  2  0
 12 13  1  0
 13 14  2  0
 14 15  1  0
  3  4  2  0
  4  5  1  0
  5  6  2  0
  6 15  1  0
 15 16  2  0
 16  3  1  0
M  END
$$$$
