No_3259-complexes_sdf/6BKW-FPZ/2024-09-17-14-21-01/
     RDKit          3D

 21 23  0  0  0  0  0  0  0  0999 V2000
   -7.7129    4.2099   27.0854 C   0  0  0  0  0  0  0  0  0  0  0  0
   -8.9133    4.4736   27.0998 C   0  0  0  0  0  0  0  0  0  0  0  0
   -9.7135    3.9633   26.0300 C   0  0  0  0  0  0  0  0  0  0  0  0
   -6.8655    4.8824   28.1822 C   0  0  0  0  0  0  0  0  0  0  0  0
   -9.2221    2.8459   25.3619 C   0  0  0  0  0  0  0  0  0  0  0  0
   -8.0164    2.2957   25.7889 C   0  0  0  0  0  0  0  0  0  0  0  0
   -7.3052    2.9474   26.8072 C   0  0  0  0  0  0  0  0  0  0  0  0
  -10.0330    2.1843   24.3790 C   0  0  0  0  0  0  0  0  0  0  0  0
  -11.1215    2.5155   24.2784 C   0  0  0  0  0  0  0  0  0  0  0  0
  -11.7216    3.7815   24.8382 C   0  0  0  0  0  0  0  0  0  0  0  0
  -10.9928    4.3872   25.8014 C   0  0  0  0  0  0  0  0  0  0  0  0
  -11.9541    2.0213   23.2507 F   0  0  0  0  0  0  0  0  0  0  0  0
   -7.2846    6.0081   28.6625 O   0  0  0  0  0  0  0  0  0  0  0  0
   -5.6594    4.4582   28.3494 O   0  0  0  0  0  0  0  0  0  0  0  0
   -9.3232    0.7018   23.4950 Br  0  0  0  0  0  0  0  0  0  0  0  0
  -13.0663    4.2615   24.4730 C   0  0  0  0  0  0  0  0  0  0  0  0
  -14.1098    4.2260   25.4213 C   0  0  0  0  0  0  0  0  0  0  0  0
  -15.3239    4.8255   25.1070 C   0  0  0  0  0  0  0  0  0  0  0  0
  -15.5039    5.3184   23.7718 C   0  0  0  0  0  0  0  0  0  0  0  0
  -13.3486    4.8724   23.1919 C   0  0  0  0  0  0  0  0  0  0  0  0
  -14.5227    5.3877   22.9029 C   0  0  0  0  0  0  0  0  0  0  0  0
  1  4  1  0
  9 12  1  0
  4 13  2  0
  4 14  1  0
  8 15  1  0
 10 16  1  0
 16 17  2  0
 17 18  1  0
 18 19  2  0
 19 21  1  0
 21 20  2  0
 20 16  1  0
  5  8  2  0
  8  9  1  0
  9 10  2  0
 10 11  1  0
 11  3  2  0
  1  2  2  0
  2  3  1  0
  3  5  1  0
  5  6  1  0
  6  7  2  0
  7  1  1  0
M  END
$$$$
