No_3851-complexes_sdf/6BKW-FPZ/2024-09-17-14-21-01/
     RDKit          3D

 21 22  0  0  0  0  0  0  0  0999 V2000
   -7.7129    4.2099   27.0854 C   0  0  0  0  0  0  0  0  0  0  0  0
   -8.2112    3.0637   26.9225 C   0  0  0  0  0  0  0  0  0  0  0  0
   -9.5629    2.7997   27.0678 C   0  0  0  0  0  0  0  0  0  0  0  0
   -8.5911    5.3704   27.2036 C   0  0  0  0  0  0  0  0  0  0  0  0
   -8.1116    6.7330   27.2869 C   0  0  0  0  0  0  0  0  0  0  0  0
  -10.4465    3.8282   27.2087 C   0  0  0  0  0  0  0  0  0  0  0  0
  -10.0139    5.1618   27.3218 C   0  0  0  0  0  0  0  0  0  0  0  0
  -10.0119    1.5229   26.9780 F   0  0  0  0  0  0  0  0  0  0  0  0
   -8.9576    7.6137   27.5567 F   0  0  0  0  0  0  0  0  0  0  0  0
   -7.1662    6.8009   28.3462 F   0  0  0  0  0  0  0  0  0  0  0  0
   -7.2989    7.0039   26.2467 F   0  0  0  0  0  0  0  0  0  0  0  0
   -7.1323    1.7127   26.7841 Cl  0  0  0  0  0  0  0  0  0  0  0  0
  -11.8957    3.6112   27.3938 C   0  0  0  0  0  0  0  0  0  0  0  0
  -12.4230    3.6537   28.5737 C   0  0  0  0  0  0  0  0  0  0  0  0
  -11.6777    3.6482   29.8185 C   0  0  0  0  0  0  0  0  0  0  0  0
  -13.9128    3.6632   28.7446 C   0  0  0  0  0  0  0  0  0  0  0  0
  -14.6596    3.7279   27.9995 C   0  0  0  0  0  0  0  0  0  0  0  0
  -16.1365    3.7203   28.1231 C   0  0  0  0  0  0  0  0  0  0  0  0
  -16.5745    3.6021   29.4244 C   0  0  0  0  0  0  0  0  0  0  0  0
  -15.7075    3.4918   30.4684 C   0  0  0  0  0  0  0  0  0  0  0  0
  -14.3526    3.5196   30.2578 C   0  0  0  0  0  0  0  0  0  0  0  0
  4  5  1  0
  3  8  1  0
  5  9  1  0
  5 10  1  0
  5 11  1  0
  2 12  1  0
  6 13  1  0
 13 14  2  3
 14 15  1  0
 14 16  1  0
  1  2  2  0
  2  3  1  0
  3  6  2  0
  6  7  1  0
  7  4  2  0
  4  1  1  0
 16 17  2  0
 17 18  1  0
 18 19  2  0
 19 20  1  0
 20 21  2  0
 21 16  1  0
M  END
$$$$
