No_3963-complexes_sdf/6BKW-FPZ/2024-09-17-14-21-01/
     RDKit          3D

 21 22  0  0  0  0  0  0  0  0999 V2000
   -7.2496    3.8871   27.4508 C   0  0  0  0  0  0  0  0  0  0  0  0
   -8.5096    4.0291   27.2770 C   0  0  0  0  0  0  0  0  0  0  0  0
   -9.3502    2.8685   26.8763 C   0  0  0  0  0  0  0  0  0  0  0  0
   -6.4573    5.0085   27.9854 C   0  0  0  0  0  0  0  0  0  0  0  0
   -9.1243    5.2674   27.5163 C   0  0  0  0  0  0  0  0  0  0  0  0
   -8.4032    6.3854   27.8703 C   0  0  0  0  0  0  0  0  0  0  0  0
   -7.0896    6.2292   28.0937 C   0  0  0  0  0  0  0  0  0  0  0  0
   -8.7457    1.6476   26.7403 C   0  0  0  0  0  0  0  0  0  0  0  0
   -9.5064    0.4955   26.4066 C   0  0  0  0  0  0  0  0  0  0  0  0
  -10.8746    0.6734   26.2014 C   0  0  0  0  0  0  0  0  0  0  0  0
  -10.6836    2.7303   26.7701 C   0  0  0  0  0  0  0  0  0  0  0  0
  -11.4557    1.7588   26.5152 C   0  0  0  0  0  0  0  0  0  0  0  0
   -8.7623   -0.7836   26.1141 C   0  0  0  0  0  0  0  0  0  0  0  0
   -7.7345   -0.9356   26.2484 N   0  0  0  0  0  0  0  0  0  0  0  0
   -9.4817   -1.6328   25.3654 O   0  0  0  0  0  0  0  0  0  0  0  0
   -6.8458   -1.7374   26.1489 C   0  0  0  0  0  0  0  0  0  0  0  0
   -5.5143   -1.4168   26.4492 C   0  0  0  0  0  0  0  0  0  0  0  0
   -4.3959   -2.0875   26.0694 C   0  0  0  0  0  0  0  0  0  0  0  0
   -3.1066   -1.6011   26.3356 C   0  0  0  0  0  0  0  0  0  0  0  0
   -2.8794   -0.3593   26.9132 C   0  0  0  0  0  0  0  0  0  0  0  0
   -3.9717    0.3989   27.2561 C   0  0  0  0  0  0  0  0  0  0  0  0
  2  3  1  0
  9 13  1  0
 13 14  1  0
 13 15  2  0
 14 16  1  0
 16 17  2  3
 17 18  1  0
 18 19  2  3
 19 20  1  0
 20 21  2  0
  3  8  2  0
  8  9  1  0
  9 10  2  0
 10 12  1  0
 12 11  2  0
 11  3  1  0
  1  2  2  0
  2  5  1  0
  5  6  2  0
  6  7  1  0
  7  4  2  0
  4  1  1  0
M  END
$$$$
