No_3269-complexes_sdf/6BKW-FPZ/2024-09-17-14-21-01/
     RDKit          3D

 16 17  0  0  0  0  0  0  0  0999 V2000
   -7.7129    4.2099   27.0854 C   0  0  0  0  0  0  0  0  0  0  0  0
   -8.9133    4.4736   27.0998 C   0  0  0  0  0  0  0  0  0  0  0  0
   -9.4643    5.5426   27.7628 C   0  0  0  0  0  0  0  0  0  0  0  0
   -6.8373    4.9942   27.9785 C   0  0  0  0  0  0  0  0  0  0  0  0
   -7.3717    6.0428   28.6744 C   0  0  0  0  0  0  0  0  0  0  0  0
   -8.6869    6.3937   28.5345 C   0  0  0  0  0  0  0  0  0  0  0  0
   -9.8029    3.6153   26.2122 C   0  0  0  0  0  0  0  0  0  0  0  0
  -10.1001    2.3701   26.5024 C   0  0  0  0  0  0  0  0  0  0  0  0
  -10.5578    1.4999   25.7188 C   0  0  0  0  0  0  0  0  0  0  0  0
  -10.6476    0.0647   26.0015 C   0  0  0  0  0  0  0  0  0  0  0  0
  -10.2700   -0.3347   27.3224 C   0  0  0  0  0  0  0  0  0  0  0  0
   -9.7830    0.5816   28.2264 C   0  0  0  0  0  0  0  0  0  0  0  0
   -9.6080    1.8992   27.8679 C   0  0  0  0  0  0  0  0  0  0  0  0
  -10.3223    4.2384   25.0096 C   0  0  0  0  0  0  0  0  0  0  0  0
  -10.4542    3.7318   23.8130 C   0  0  0  0  0  0  0  0  0  0  0  0
  -10.8845    4.5133   22.7758 C   0  0  0  0  0  0  0  0  0  0  0  0
  2  7  1  0
  7  8  1  0
  7 14  1  0
 14 15  2  3
 15 16  1  0
  1  2  2  0
  2  3  1  0
  3  6  2  0
  6  5  1  0
  5  4  2  0
  4  1  1  0
  8  9  2  0
  9 10  1  0
 10 11  2  0
 11 12  1  0
 12 13  2  0
 13  8  1  0
M  END
$$$$
