No_3383-complexes_sdf/6BKW-FPZ/2024-09-17-14-21-01/
     RDKit          3D

 17 19  0  0  0  0  0  0  0  0999 V2000
   -7.7129    4.2099   27.0854 C   0  0  0  0  0  0  0  0  0  0  0  0
   -8.9133    4.4736   27.0998 C   0  0  2  0  0  0  0  0  0  0  0  0
   -9.7135    3.9633   26.0300 C   0  0  0  0  0  0  0  0  0  0  0  0
   -6.8420    4.9760   28.0851 C   0  0  0  0  0  0  0  0  0  0  0  0
   -9.9322    2.5915   25.9958 C   0  0  0  0  0  0  0  0  0  0  0  0
  -10.5325    2.0352   24.9002 C   0  0  0  0  0  0  0  0  0  0  0  0
   -7.6898    5.8921   28.6063 N   0  0  0  0  0  0  0  0  0  0  0  0
   -8.9167    5.6721   27.8226 C   0  0  0  0  0  0  0  0  0  0  0  0
  -11.1257    2.8949   23.9053 C   0  0  0  0  0  0  0  0  0  0  0  0
  -10.9782    4.2968   24.0345 C   0  0  0  0  0  0  0  0  0  0  0  0
  -10.2088    4.8683   25.0677 C   0  0  0  0  0  0  0  0  0  0  0  0
  -11.9099    2.3936   22.7865 C   0  0  0  0  0  0  0  0  0  0  0  0
  -11.7854    1.5086   22.1333 C   0  0  0  0  0  0  0  0  0  0  0  0
  -12.5979    1.0342   21.0046 C   0  0  0  0  0  0  0  0  0  0  0  0
  -13.6424    1.8723   20.6906 C   0  0  0  0  0  0  0  0  0  0  0  0
  -13.0709    3.3036   22.3155 C   0  0  0  0  0  0  0  0  0  0  0  0
  -13.8629    2.9912   21.3700 C   0  0  0  0  0  0  0  0  0  0  0  0
  1  2  1  0
  2  3  1  6
  1  4  1  0
  4  7  2  0
  2  8  1  0
  7  8  1  0
  9 12  1  0
 12 13  2  0
 13 14  1  0
 14 15  2  0
 15 17  1  0
 17 16  2  0
 16 12  1  0
  3  5  2  0
  5  6  1  0
  6  9  2  0
  9 10  1  0
 10 11  2  0
 11  3  1  0
M  END
$$$$
