No_3638-complexes_sdf/6BKW-FPZ/2024-09-17-14-21-01/
     RDKit          3D

 27 29  0  0  0  0  0  0  0  0999 V2000
   -7.2496    3.8871   27.4508 C   0  0  0  0  0  0  0  0  0  0  0  0
   -7.6161    2.7143   27.1523 C   0  0  0  0  0  0  0  0  0  0  0  0
   -8.8302    2.4659   26.5056 C   0  0  0  0  0  0  0  0  0  0  0  0
   -8.1584    5.0089   27.3234 C   0  0  0  0  0  0  0  0  0  0  0  0
   -9.3788    4.7965   26.7695 C   0  0  0  0  0  0  0  0  0  0  0  0
   -9.7028    3.5649   26.3276 C   0  0  0  0  0  0  0  0  0  0  0  0
   -6.7182    1.5519   27.3631 C   0  0  0  0  0  0  0  0  0  0  0  0
   -5.5596    1.7410   28.0262 N   0  0  0  0  0  0  0  0  0  0  0  0
   -7.0052    0.2404   26.9845 C   0  0  0  0  0  0  0  0  0  0  0  0
   -4.7541    0.6608   28.2284 C   0  0  0  0  0  0  0  0  0  0  0  0
   -6.2085   -0.8074   27.2232 C   0  0  0  0  0  0  0  0  0  0  0  0
   -5.0039   -0.5658   27.9290 C   0  0  0  0  0  0  0  0  0  0  0  0
   -7.6950    6.3463   27.8060 C   0  0  0  0  0  0  0  0  0  0  0  0
   -3.5279    1.0384   28.9520 N   0  0  0  0  0  0  0  0  0  0  0  0
  -11.0031    3.3650   25.6426 C   0  0  0  0  0  0  0  0  0  0  0  0
  -11.2221    2.3209   25.0768 C   0  0  0  0  0  0  0  0  0  0  0  0
  -10.5646    2.0510   23.9018 C   0  0  0  0  0  0  0  0  0  0  0  0
  -10.3696    0.7402   23.4233 C   0  0  0  0  0  0  0  0  0  0  0  0
   -9.5049    0.5590   22.2811 C   0  0  0  0  0  0  0  0  0  0  0  0
   -9.0750    1.6562   21.5438 C   0  0  0  0  0  0  0  0  0  0  0  0
   -9.3838    2.9443   22.0015 C   0  0  0  0  0  0  0  0  0  0  0  0
  -10.0857    3.1588   23.1446 C   0  0  0  0  0  0  0  0  0  0  0  0
  -12.1002    1.3162   25.5559 C   0  0  0  0  0  0  0  0  0  0  0  0
  -13.3302    1.6216   25.9264 C   0  0  0  0  0  0  0  0  0  0  0  0
  -14.2481    0.6801   26.4585 C   0  0  0  0  0  0  0  0  0  0  0  0
  -13.7728   -0.6311   26.5588 C   0  0  0  0  0  0  0  0  0  0  0  0
  -12.5110   -1.0068   26.2200 C   0  0  0  0  0  0  0  0  0  0  0  0
  2  7  1  0
  4 13  1  0
 10 14  1  0
  6 15  1  0
 15 16  1  0
 16 17  1  0
 16 23  1  0
 23 24  2  3
 24 25  1  0
 25 26  2  3
 26 27  1  0
 17 18  2  0
 18 19  1  0
 19 20  2  0
 20 21  1  0
 21 22  2  0
 22 17  1  0
  1  2  2  0
  2  3  1  0
  3  6  2  0
  6  5  1  0
  5  4  2  0
  4  1  1  0
  7  8  2  0
  8 10  1  0
 10 12  2  0
 12 11  1  0
 11  9  2  0
  9  7  1  0
M  END
$$$$
