No_3008-complexes_sdf/6BKW-FPZ/2024-09-17-14-21-01/
     RDKit          3D

 40 44  0  0  0  0  0  0  0  0999 V2000
   -7.7129    4.2099   27.0854 C   0  0  0  0  0  0  0  0  0  0  0  0
   -8.2112    3.0637   26.9225 C   0  0  0  0  0  0  0  0  0  0  0  0
   -9.4446    2.8304   26.1868 C   0  0  0  0  0  0  0  0  0  0  0  0
   -8.4697    5.3956   26.7238 C   0  0  0  0  0  0  0  0  0  0  0  0
   -8.0091    6.7588   26.9904 C   0  0  0  0  0  0  0  0  0  0  0  0
  -10.1208    3.9213   25.7408 C   0  0  0  0  0  0  0  0  0  0  0  0
   -9.5939    5.2027   25.9665 C   0  0  0  0  0  0  0  0  0  0  0  0
   -8.6060    7.8403   26.5809 N   0  0  0  0  0  0  0  0  0  0  0  0
   -7.2515    6.8334   28.1366 O   0  0  0  0  0  0  0  0  0  0  0  0
   -7.4631    1.8143   27.3657 C   0  0  0  0  0  0  0  0  0  0  0  0
   -7.9907    0.5252   27.2777 C   0  0  0  0  0  0  0  0  0  0  0  0
   -9.2778    0.4890   26.6593 C   0  0  0  0  0  0  0  0  0  0  0  0
   -9.9707    1.5339   26.0786 C   0  0  0  0  0  0  0  0  0  0  0  0
   -7.3211   -0.5686   27.8364 C   0  0  0  0  0  0  0  0  0  0  0  0
   -7.9610   -1.7501   28.2188 C   0  0  0  0  0  0  0  0  0  0  0  0
   -7.2950   -2.7252   28.8307 C   0  0  0  0  0  0  0  0  0  0  0  0
   -5.9293   -2.5869   29.1169 C   0  0  0  0  0  0  0  0  0  0  0  0
   -5.2499   -1.4529   28.7915 C   0  0  0  0  0  0  0  0  0  0  0  0
   -5.9180   -0.4126   28.2104 C   0  0  0  0  0  0  0  0  0  0  0  0
   -3.8101   -1.2537   29.1118 C   0  0  1  0  0  0  0  0  0  0  0  0
   -3.4951   -0.6973   30.3173 C   0  0  0  0  0  0  0  0  0  0  0  0
   -2.9001   -2.3196   28.7003 C   0  0  0  0  0  0  0  0  0  0  0  0
   -4.2073   -0.8640   31.3111 F   0  0  0  0  0  0  0  0  0  0  0  0
   -2.2122   -0.7211   30.7148 F   0  0  0  0  0  0  0  0  0  0  0  0
   -3.5846    0.7963   30.0469 F   0  0  0  0  0  0  0  0  0  0  0  0
  -11.0817    3.9370   24.7518 C   0  0  0  0  0  0  0  0  0  0  0  0
  -11.3439    3.2542   23.7784 C   0  0  0  0  0  0  0  0  0  0  0  0
  -12.4255    3.3316   22.8851 C   0  0  0  0  0  0  0  0  0  0  0  0
  -13.3484    4.3170   23.1882 C   0  0  0  0  0  0  0  0  0  0  0  0
  -13.3135    5.0453   24.3877 C   0  0  0  0  0  0  0  0  0  0  0  0
  -12.2433    4.8905   25.2521 C   0  0  0  0  0  0  0  0  0  0  0  0
   -2.1196   -1.8084   27.5385 C   0  0  0  0  0  0  0  0  0  0  0  0
   -2.5516   -1.6463   26.5375 C   0  0  0  0  0  0  0  0  0  0  0  0
   -3.9165   -1.8004   26.1419 C   0  0  0  0  0  0  0  0  0  0  0  0
   -4.4197   -1.4061   24.8574 C   0  0  0  0  0  0  0  0  0  0  0  0
   -5.6626   -1.8883   24.5251 C   0  0  0  0  0  0  0  0  0  0  0  0
   -6.1982   -3.0334   25.0506 C   0  0  0  0  0  0  0  0  0  0  0  0
   -5.5872   -3.5470   26.2850 C   0  0  0  0  0  0  0  0  0  0  0  0
   -4.4103   -3.0634   26.6825 C   0  0  0  0  0  0  0  0  0  0  0  0
   -6.3283   -1.2346   23.3429 C   0  0  0  0  0  0  0  0  0  0  0  0
  4  5  1  0
  5  8  1  0
  5  9  2  0
 11 14  1  0
 18 20  1  0
 20 21  1  0
 20 22  1  1
 21 23  1  0
 21 24  1  0
 21 25  1  0
  6 26  1  0
 22 32  1  0
 32 33  2  3
 33 34  1  0
 36 40  1  0
  3 13  1  0
 13 12  2  0
 12 11  1  0
 11 10  2  0
 10  2  1  0
  1  2  2  0
  2  3  1  0
  3  6  2  0
  6  7  1  0
  7  4  2  0
  4  1  1  0
 14 15  2  0
 15 16  1  0
 16 17  2  0
 17 18  1  0
 18 19  2  0
 19 14  1  0
 34 35  2  0
 35 36  1  0
 36 37  2  0
 37 38  1  0
 38 39  2  0
 39 34  1  0
 26 27  2  0
 27 28  1  0
 28 29  2  0
 29 30  1  0
 30 31  2  0
 31 26  1  0
M  END
$$$$
