No_3541-complexes_sdf/6BKW-FPZ/2024-09-17-14-21-01/
     RDKit          3D

 24 27  0  0  0  0  0  0  0  0999 V2000
   -7.9040    3.9820   27.1177 C   0  0  0  0  0  0  0  0  0  0  0  0
   -9.0711    4.3164   27.0630 C   0  0  0  0  0  0  0  0  0  0  0  0
   -9.5182    5.5541   27.5777 C   0  0  0  0  0  0  0  0  0  0  0  0
   -6.9424    4.7983   27.8424 C   0  0  0  0  0  0  0  0  0  0  0  0
   -7.3526    5.9739   28.3909 C   0  0  0  0  0  0  0  0  0  0  0  0
   -8.6479    6.3742   28.2170 C   0  0  0  0  0  0  0  0  0  0  0  0
  -10.0793    3.4689   26.3368 C   0  0  0  0  0  0  0  0  0  0  0  0
   -9.6567    2.5965   25.4484 C   0  0  0  0  0  0  0  0  0  0  0  0
  -10.5086    1.8159   24.6228 C   0  0  0  0  0  0  0  0  0  0  0  0
  -11.8698    2.1070   24.6818 C   0  0  0  0  0  0  0  0  0  0  0  0
  -11.4792    3.7192   26.2197 C   0  0  0  0  0  0  0  0  0  0  0  0
  -12.3318    3.0883   25.5324 C   0  0  0  0  0  0  0  0  0  0  0  0
   -9.9717    0.7869   23.7392 C   0  0  0  0  0  0  0  0  0  0  0  0
   -9.0596   -0.0645   24.1392 C   0  0  0  0  0  0  0  0  0  0  0  0
   -8.3832   -0.8907   23.2085 C   0  0  0  0  0  0  0  0  0  0  0  0
   -8.8002   -0.8771   21.8340 C   0  0  0  0  0  0  0  0  0  0  0  0
   -9.7425    0.0512   21.4562 C   0  0  0  0  0  0  0  0  0  0  0  0
  -10.2559    0.9421   22.3666 C   0  0  0  0  0  0  0  0  0  0  0  0
   -8.2090   -1.8026   20.8795 C   0  0  0  0  0  0  0  0  0  0  0  0
   -8.2960   -3.1223   21.2089 C   0  0  0  0  0  0  0  0  0  0  0  0
   -7.5982   -3.9961   20.4151 C   0  0  0  0  0  0  0  0  0  0  0  0
   -6.8976   -3.5546   19.2297 C   0  0  0  0  0  0  0  0  0  0  0  0
   -6.9154   -2.2278   18.9226 C   0  0  0  0  0  0  0  0  0  0  0  0
   -7.4523   -1.3587   19.7546 C   0  0  0  0  0  0  0  0  0  0  0  0
  2  7  1  0
  9 13  1  0
 16 19  1  0
  7  8  2  0
  8  9  1  0
  9 10  2  0
 10 12  1  0
 12 11  2  0
 11  7  1  0
 13 14  2  0
 14 15  1  0
 15 16  2  0
 16 17  1  0
 17 18  2  0
 18 13  1  0
  1  2  2  0
  2  3  1  0
  3  6  2  0
  6  5  1  0
  5  4  2  0
  4  1  1  0
 19 20  2  0
 20 21  1  0
 21 22  2  0
 22 23  1  0
 23 24  2  0
 24 19  1  0
M  END
$$$$
