No_3824-complexes_sdf/6BKW-FPZ/2024-09-17-14-21-01/
     RDKit          3D

 29 32  0  0  0  0  0  0  0  0999 V2000
   -7.9040    3.9820   27.1177 C   0  0  0  0  0  0  0  0  0  0  0  0
   -7.8663    4.8694   27.9238 C   0  0  0  0  0  0  0  0  0  0  0  0
   -7.4547    2.7080   27.4594 C   0  0  0  0  0  0  0  0  0  0  0  0
   -7.9337    1.5946   26.8372 C   0  0  0  0  0  0  0  0  0  0  0  0
   -8.9032    1.7881   25.8510 C   0  0  0  0  0  0  0  0  0  0  0  0
   -9.3787    2.9871   25.5530 C   0  0  0  0  0  0  0  0  0  0  0  0
   -8.9781    4.0300   26.2200 C   0  0  0  0  0  0  0  0  0  0  0  0
   -8.2132    6.2312   27.6173 N   0  0  0  0  0  0  0  0  0  0  0  0
   -9.1014    6.5119   26.6241 C   0  0  0  0  0  0  0  0  0  0  0  0
   -9.5143    5.3947   25.8857 C   0  0  0  0  0  0  0  0  0  0  0  0
   -7.2297    0.0377   27.1680 Cl  0  0  0  0  0  0  0  0  0  0  0  0
  -10.3370    3.0564   24.4219 C   0  0  0  0  0  0  0  0  0  0  0  0
  -11.4134    3.3964   24.4981 N   0  0  0  0  0  0  0  0  0  0  0  0
  -12.2655    3.7148   23.4805 C   0  0  0  0  0  0  0  0  0  0  0  0
   -9.8235    3.0325   23.2671 O   0  0  0  0  0  0  0  0  0  0  0  0
  -13.3809    4.4071   23.6975 C   0  0  2  0  0  0  0  0  0  0  0  0
  -13.8243    4.6528   25.0332 C   0  0  0  0  0  0  0  0  0  0  0  0
  -12.9828    4.2746   26.1060 C   0  0  1  0  0  0  0  0  0  0  0  0
  -11.8483    3.7459   25.9154 C   0  0  0  0  0  0  0  0  0  0  0  0
  -13.7516    4.7638   27.3036 C   0  0  0  0  0  0  0  0  0  0  0  0
  -14.5033    5.5511   27.2392 F   0  0  0  0  0  0  0  0  0  0  0  0
  -14.0693    3.6059   28.0587 F   0  0  0  0  0  0  0  0  0  0  0  0
  -12.6225    5.1827   28.2402 F   0  0  0  0  0  0  0  0  0  0  0  0
  -14.3306    4.7748   22.6441 C   0  0  0  0  0  0  0  0  0  0  0  0
  -15.4016    5.5240   22.8978 C   0  0  0  0  0  0  0  0  0  0  0  0
  -16.2786    5.8585   21.8814 C   0  0  0  0  0  0  0  0  0  0  0  0
  -15.9247    5.4914   20.5712 C   0  0  0  0  0  0  0  0  0  0  0  0
  -14.7930    4.7583   20.3165 C   0  0  0  0  0  0  0  0  0  0  0  0
  -13.9687    4.3998   21.3436 C   0  0  0  0  0  0  0  0  0  0  0  0
  4 11  1  0
  6 12  1  0
 12 13  1  0
 13 14  1  0
 12 15  2  0
 16 17  1  0
 13 19  1  0
 18 19  1  0
 18 20  1  6
 20 21  1  0
 20 22  1  0
 20 23  1  0
 16 24  1  6
 14 16  1  0
 17 18  1  0
  1  2  2  0
  2  8  1  0
  8  9  2  0
  9 10  1  0
 10  7  2  0
 24 25  2  0
 25 26  1  0
 26 27  2  0
 27 28  1  0
 28 29  2  0
 29 24  1  0
  1  3  1  0
  3  4  2  0
  4  5  1  0
  5  6  2  0
  6  7  1  0
  7  1  1  0
M  END
$$$$
