No_3137-complexes_sdf/6BKW-FPZ/2024-09-17-14-21-01/
     RDKit          3D

 21 23  0  0  0  0  0  0  0  0999 V2000
   -7.9040    3.9820   27.1177 C   0  0  0  0  0  0  0  0  0  0  0  0
   -7.8663    4.8694   27.9238 C   0  0  0  0  0  0  0  0  0  0  0  0
   -9.0491    3.8523   26.2542 C   0  0  0  0  0  0  0  0  0  0  0  0
   -8.6019    5.9544   27.7203 C   0  0  0  0  0  0  0  0  0  0  0  0
   -9.7838    4.9247   26.0626 C   0  0  0  0  0  0  0  0  0  0  0  0
   -9.6083    6.0325   26.8808 C   0  0  0  0  0  0  0  0  0  0  0  0
   -7.0940    2.6762   27.3407 C   0  0  0  0  0  0  0  0  0  0  0  0
   -7.4717    1.3974   26.8830 C   0  0  0  0  0  0  0  0  0  0  0  0
   -8.5163    1.3616   26.0206 C   0  0  0  0  0  0  0  0  0  0  0  0
   -9.3497    2.5375   25.6491 C   0  0  0  0  0  0  0  0  0  0  0  0
   -6.6720    0.2962   27.2082 C   0  0  0  0  0  0  0  0  0  0  0  0
   -5.3960    0.4295   27.8132 C   0  0  0  0  0  0  0  0  0  0  0  0
   -4.7380   -0.6248   28.4212 C   0  0  0  0  0  0  0  0  0  0  0  0
   -3.5490   -0.3981   29.1944 C   0  0  0  0  0  0  0  0  0  0  0  0
   -2.9333   -1.4162   29.8772 C   0  0  0  0  0  0  0  0  0  0  0  0
   -3.5086   -2.6493   29.8628 C   0  0  0  0  0  0  0  0  0  0  0  0
   -4.6626   -2.8646   29.1983 C   0  0  0  0  0  0  0  0  0  0  0  0
   -5.3395   -1.8654   28.5275 C   0  0  0  0  0  0  0  0  0  0  0  0
  -10.3556    2.4560   24.6580 C   0  0  0  0  0  0  0  0  0  0  0  0
  -11.4575    2.8417   24.7106 C   0  0  0  0  0  0  0  0  0  0  0  0
  -12.4676    2.7322   23.6765 C   0  0  0  0  0  0  0  0  0  0  0  0
  8 11  1  0
 11 12  1  0
 10 19  1  0
 19 20  2  3
 20 21  1  0
 12 13  1  0
 13 14  2  0
 14 15  1  0
 15 16  2  0
 16 17  1  0
 17 18  2  0
 18 13  1  0
  1  2  2  0
  2  4  1  0
  4  6  2  0
  6  5  1  0
  5  3  2  0
  1  3  1  0
  3 10  1  0
 10  9  2  0
  9  8  1  0
  8  7  2  0
  7  1  1  0
M  END
$$$$
