No_356-complexes_sdf/6BKW-FPZ/2024-09-17-14-21-01/
     RDKit          3D

 23 25  0  0  0  0  0  0  0  0999 V2000
   -7.7129    4.2099   27.0854 C   0  0  0  0  0  0  0  0  0  0  0  0
   -8.9133    4.4736   27.0998 C   0  0  0  0  0  0  0  0  0  0  0  0
   -9.4643    5.5426   27.7628 C   0  0  0  0  0  0  0  0  0  0  0  0
   -6.8373    4.9942   27.9785 C   0  0  0  0  0  0  0  0  0  0  0  0
   -7.3932    6.0303   28.6784 C   0  0  0  0  0  0  0  0  0  0  0  0
   -8.7122    6.3429   28.5485 C   0  0  0  0  0  0  0  0  0  0  0  0
   -9.7990    3.6123   26.2052 C   0  0  0  0  0  0  0  0  0  0  0  0
  -10.0444    4.0879   24.9358 C   0  0  0  0  0  0  0  0  0  0  0  0
  -10.7304    3.4902   24.1339 C   0  0  0  0  0  0  0  0  0  0  0  0
  -11.3256    2.2710   24.3594 C   0  0  0  0  0  0  0  0  0  0  0  0
  -10.3648    2.4499   26.5601 C   0  0  0  0  0  0  0  0  0  0  0  0
  -11.1354    1.7052   25.6596 C   0  0  0  0  0  0  0  0  0  0  0  0
  -10.9606    4.0775   22.7073 C   0  0  0  0  0  0  0  0  0  0  0  0
  -11.0061    5.4577   22.6112 C   0  0  0  0  0  0  0  0  0  0  0  0
  -11.0137    3.1923   21.6441 C   0  0  0  0  0  0  0  0  0  0  0  0
  -10.8307    1.8986   21.6988 C   0  0  0  0  0  0  0  0  0  0  0  0
  -10.9564    0.9456   20.6212 C   0  0  0  0  0  0  0  0  0  0  0  0
  -11.4743    1.5834   19.4692 C   0  0  0  0  0  0  0  0  0  0  0  0
  -11.3505    3.7478   20.3871 C   0  0  0  0  0  0  0  0  0  0  0  0
  -11.5571    2.9651   19.3097 C   0  0  0  0  0  0  0  0  0  0  0  0
  -11.6886    0.4200   25.9707 C   0  0  0  0  0  0  0  0  0  0  0  0
  -12.3054   -0.2427   25.3686 N   0  0  0  0  0  0  0  0  0  0  0  0
  -12.7870   -1.4574   25.7725 C   0  0  0  0  0  0  0  0  0  0  0  0
  2  7  1  0
  9 13  1  0
 13 14  2  0
 13 15  1  0
 12 21  1  0
 21 22  2  3
 22 23  1  0
  7  8  2  0
  8  9  1  0
  9 10  2  0
 10 12  1  0
 12 11  2  0
 11  7  1  0
  1  2  2  0
  2  3  1  0
  3  6  2  0
  6  5  1  0
  5  4  2  0
  4  1  1  0
 15 16  2  0
 16 17  1  0
 17 18  2  0
 18 20  1  0
 20 19  2  0
 19 15  1  0
M  END
$$$$
