No_3625-complexes_sdf/6BKW-FPZ/2024-09-17-14-21-01/
     RDKit          3D

 33 36  0  0  0  0  0  0  0  0999 V2000
   -7.7129    4.2099   27.0854 C   0  0  0  0  0  0  0  0  0  0  0  0
   -7.7814    5.1722   27.8972 C   0  0  0  0  0  0  0  0  0  0  0  0
   -8.8998    3.8713   26.3707 C   0  0  0  0  0  0  0  0  0  0  0  0
   -9.9938    4.6774   26.5446 C   0  0  0  0  0  0  0  0  0  0  0  0
   -8.7789    6.1536   27.9256 C   0  0  0  0  0  0  0  0  0  0  0  0
   -9.9428    5.8398   27.2296 C   0  0  0  0  0  0  0  0  0  0  0  0
   -8.9119    2.6447   25.5685 C   0  0  0  0  0  0  0  0  0  0  0  0
   -9.7255    1.8263   25.8239 N   0  0  0  0  0  0  0  0  0  0  0  0
   -9.7556    0.6434   25.3685 C   0  0  0  0  0  0  0  0  0  0  0  0
   -8.9802    0.2780   24.4807 C   0  0  0  0  0  0  0  0  0  0  0  0
   -9.1324    0.1180   23.3813 C   0  0  0  0  0  0  0  0  0  0  0  0
   -8.1195   -0.1259   22.2545 C   0  0  0  0  0  0  0  0  0  0  0  0
   -6.8368   -0.4343   22.7419 C   0  0  0  0  0  0  0  0  0  0  0  0
   -6.5604   -0.4050   24.0887 C   0  0  0  0  0  0  0  0  0  0  0  0
   -7.5205   -0.0150   24.9383 C   0  0  0  0  0  0  0  0  0  0  0  0
  -10.6602   -0.2366   25.6361 O   0  0  0  0  0  0  0  0  0  0  0  0
   -6.6511    5.5927   28.5832 F   0  0  0  0  0  0  0  0  0  0  0  0
  -11.1161    4.3653   25.8284 N   0  0  0  0  0  0  0  0  0  0  0  0
  -12.2901    4.0602   26.3349 C   0  0  2  0  0  0  0  0  0  0  0  0
  -13.4353    3.9212   25.5588 C   0  0  0  0  0  0  0  0  0  0  0  0
  -11.1488    4.2892   24.4192 C   0  0  0  0  0  0  0  0  0  0  0  0
  -12.1613    4.1593   23.6282 C   0  0  0  0  0  0  0  0  0  0  0  0
  -13.3588    3.9383   24.2359 C   0  0  0  0  0  0  0  0  0  0  0  0
  -14.7399    3.7334   23.2626 Cl  0  0  0  0  0  0  0  0  0  0  0  0
  -12.3970    4.0550   27.7419 N   0  0  0  0  0  0  0  0  0  0  0  0
  -13.5601    3.8928   28.4436 C   0  0  0  0  0  0  0  0  0  0  0  0
  -13.4557    3.3689   29.7282 C   0  0  0  0  0  0  0  0  0  0  0  0
  -14.4839    3.4238   30.6538 C   0  0  0  0  0  0  0  0  0  0  0  0
  -14.3125    3.0657   31.9704 C   0  0  0  0  0  0  0  0  0  0  0  0
  -15.2718    3.1099   32.9316 C   0  0  0  0  0  0  0  0  0  0  0  0
  -16.5490    3.6050   32.5035 C   0  0  0  0  0  0  0  0  0  0  0  0
  -15.7089    4.0568   30.2581 C   0  0  0  0  0  0  0  0  0  0  0  0
  -16.7365    4.0923   31.2554 C   0  0  0  0  0  0  0  0  0  0  0  0
  3  7  1  0
  7  8  1  0
  8  9  1  0
  9 10  1  0
  9 16  2  0
  2 17  1  0
  4 18  1  0
 18 19  1  0
 18 21  1  0
 20 23  1  0
 22 23  1  0
 23 24  1  0
 19 25  1  0
 25 26  2  3
 26 27  1  0
 27 28  1  0
 19 20  1  6
 22 21  1  0
 28 29  2  0
 29 30  1  0
 30 31  2  0
 31 33  1  0
 33 32  2  0
 32 28  1  0
  1  2  2  0
  2  5  1  0
  5  6  2  0
  6  4  1  0
  4  3  2  0
  3  1  1  0
 10 11  2  0
 11 12  1  0
 12 13  2  0
 13 14  1  0
 14 15  2  0
 15 10  1  0
M  END
$$$$
