No_3636-complexes_sdf/6BKW-FPZ/2024-09-17-14-21-01/
     RDKit          3D

 34 39  0  0  0  0  0  0  0  0999 V2000
   -7.7129    4.2099   27.0854 C   0  0  0  0  0  0  0  0  0  0  0  0
   -7.7814    5.1722   27.8972 C   0  0  0  0  0  0  0  0  0  0  0  0
   -8.8255    3.2789   27.1191 C   0  0  0  0  0  0  0  0  0  0  0  0
   -9.9209    3.4734   27.9101 C   0  0  0  0  0  0  0  0  0  0  0  0
   -9.9736    4.7085   28.6831 C   0  0  0  0  0  0  0  0  0  0  0  0
   -8.8840    5.5441   28.6612 C   0  0  0  0  0  0  0  0  0  0  0  0
   -8.7102    2.0171   26.3293 C   0  0  0  0  0  0  0  0  0  0  0  0
   -9.2831    1.9661   25.0865 C   0  0  0  0  0  0  0  0  0  0  0  0
   -9.1881    0.8289   24.2810 C   0  0  0  0  0  0  0  0  0  0  0  0
   -7.9887    0.9460   26.7963 C   0  0  0  0  0  0  0  0  0  0  0  0
   -7.8378   -0.2196   26.0476 C   0  0  0  0  0  0  0  0  0  0  0  0
   -8.4316   -0.2459   24.7792 C   0  0  0  0  0  0  0  0  0  0  0  0
  -11.0740    2.6127   27.9550 C   0  0  0  0  0  0  0  0  0  0  0  0
  -11.0747    1.3858   28.0398 C   0  0  0  0  0  0  0  0  0  0  0  0
  -12.1984    0.4934   28.1839 C   0  0  0  0  0  0  0  0  0  0  0  0
  -13.4213    1.1004   28.1710 C   0  0  0  0  0  0  0  0  0  0  0  0
  -12.4389    3.2441   28.0086 C   0  0  0  0  0  0  0  0  0  0  0  0
  -13.5365    2.4808   28.1457 C   0  0  0  0  0  0  0  0  0  0  0  0
  -10.0372    3.1081   24.4845 C   0  0  0  0  0  0  0  0  0  0  0  0
  -10.0555    4.3069   24.9457 N   0  0  0  0  0  0  0  0  0  0  0  0
  -11.0126    2.7983   23.4780 C   0  0  0  0  0  0  0  0  0  0  0  0
  -11.6265    3.5072   23.1058 C   0  0  0  0  0  0  0  0  0  0  0  0
  -11.6405    4.9265   23.4773 C   0  0  0  0  0  0  0  0  0  0  0  0
  -10.7278    5.2664   24.3609 C   0  0  0  0  0  0  0  0  0  0  0  0
  -12.0598   -0.9699   28.2929 C   0  0  0  0  0  0  0  0  0  0  0  0
  -12.7142   -1.7527   28.0339 N   0  0  0  0  0  0  0  0  0  0  0  0
  -12.3950   -3.1039   28.1403 C   0  0  0  0  0  0  0  0  0  0  0  0
  -10.7033   -1.4274   28.7862 C   0  0  0  0  0  0  0  0  0  0  0  0
  -10.3097   -2.6452   28.9780 C   0  0  0  0  0  0  0  0  0  0  0  0
  -11.2833   -3.5607   28.6095 C   0  0  0  0  0  0  0  0  0  0  0  0
  -13.4089   -4.0751   27.8095 N   0  0  0  0  0  0  0  0  0  0  0  0
  -13.3361   -5.1937   27.6538 C   0  0  0  0  0  0  0  0  0  0  0  0
  -12.0681   -5.7738   28.1155 C   0  0  0  0  0  0  0  0  0  0  0  0
  -11.0338   -4.9684   28.6237 C   0  0  0  0  0  0  0  0  0  0  0  0
  3  7  1  0
  4 13  1  0
  8 19  1  0
 15 25  1  0
 25 26  2  0
 26 27  1  0
 30 29  1  0
 29 28  2  0
 28 25  1  0
  7  8  1  0
  8  9  2  0
  9 12  1  0
 12 11  2  0
 11 10  1  0
 10  7  2  0
 19 20  2  0
 20 24  1  0
 24 23  2  0
 23 22  1  0
 22 21  2  0
 21 19  1  0
  1  2  2  0
  2  6  1  0
  6  5  2  0
  5  4  1  0
  4  3  2  0
  3  1  1  0
 27 30  2  0
 30 34  1  0
 34 33  2  0
 33 32  1  0
 32 31  2  0
 31 27  1  0
 13 14  2  0
 14 15  1  0
 15 16  2  0
 16 18  1  0
 18 17  2  0
 17 13  1  0
M  END
$$$$
