No_3713-complexes_sdf/6BKW-FPZ/2024-09-17-14-21-01/
     RDKit          3D

 35 38  0  0  0  0  0  0  0  0999 V2000
   -7.7129    4.2099   27.0854 C   0  0  0  0  0  0  0  0  0  0  0  0
   -8.9133    4.4736   27.0998 C   0  0  0  0  0  0  0  0  0  0  0  0
   -9.7937    3.7367   26.2091 C   0  0  0  0  0  0  0  0  0  0  0  0
   -7.2496    2.8647   26.8496 C   0  0  0  0  0  0  0  0  0  0  0  0
   -8.1891    1.9790   26.3454 C   0  0  0  0  0  0  0  0  0  0  0  0
   -9.4252    2.4603   26.0121 C   0  0  0  0  0  0  0  0  0  0  0  0
   -9.3121    5.9663   27.2474 C   0  0  0  0  0  0  0  0  0  0  0  0
   -7.7466    0.5946   26.1401 C   0  0  0  0  0  0  0  0  0  0  0  0
   -8.4397   -0.3639   26.5768 O   0  0  0  0  0  0  0  0  0  0  0  0
   -6.6172    0.3799   25.6976 O   0  0  0  0  0  0  0  0  0  0  0  0
   -8.5548    6.9839   27.0902 N   0  0  0  0  0  0  0  0  0  0  0  0
   -9.0354    8.2298   26.7179 C   0  0  0  0  0  0  0  0  0  0  0  0
   -7.4757    7.2222   28.1318 C   0  0  0  0  0  0  0  0  0  0  0  0
  -10.9659    4.1653   25.8847 F   0  0  0  0  0  0  0  0  0  0  0  0
   -5.8469   -0.4576   26.3934 C   0  0  2  0  0  0  0  0  0  0  0  0
   -4.8300    0.0742   27.1505 C   0  0  0  0  0  0  0  0  0  0  0  0
   -5.0108    0.8316   28.1137 C   0  0  0  0  0  0  0  0  0  0  0  0
   -3.9761    1.3734   29.0844 C   0  0  0  0  0  0  0  0  0  0  0  0
   -2.7739    0.6407   28.9215 C   0  0  0  0  0  0  0  0  0  0  0  0
   -2.5099   -0.2408   27.9269 C   0  0  0  0  0  0  0  0  0  0  0  0
   -3.5444   -0.5597   27.0156 C   0  0  0  0  0  0  0  0  0  0  0  0
   -5.6510   -1.5686   25.7718 C   0  0  0  0  0  0  0  0  0  0  0  0
   -6.5952   -2.5934   25.9956 C   0  0  0  0  0  0  0  0  0  0  0  0
   -6.8153   -3.1148   27.0482 C   0  0  0  0  0  0  0  0  0  0  0  0
   -5.9763   -2.8385   28.2546 C   0  0  0  0  0  0  0  0  0  0  0  0
   -6.2013   -3.0334   29.4290 C   0  0  0  0  0  0  0  0  0  0  0  0
   -7.4505   -3.6015   29.9183 C   0  0  0  0  0  0  0  0  0  0  0  0
   -8.3450   -3.9245   28.7862 C   0  0  0  0  0  0  0  0  0  0  0  0
   -8.0702   -3.6022   27.5281 C   0  0  0  0  0  0  0  0  0  0  0  0
   -5.1433   -2.6910   30.4701 C   0  0  0  0  0  0  0  0  0  0  0  0
   -4.7841   -3.5918   31.4002 C   0  0  0  0  0  0  0  0  0  0  0  0
   -3.7660   -3.2433   32.3302 C   0  0  0  0  0  0  0  0  0  0  0  0
   -3.1409   -1.9805   32.2860 C   0  0  0  0  0  0  0  0  0  0  0  0
   -3.5971   -1.0529   31.3414 C   0  0  0  0  0  0  0  0  0  0  0  0
   -4.5576   -1.4037   30.4406 C   0  0  0  0  0  0  0  0  0  0  0  0
  2  7  1  0
  5  8  1  0
  8  9  2  0
  8 10  1  0
  7 11  1  0
 11 12  1  0
 11 13  1  0
  3 14  1  0
 10 15  1  0
 15 16  1  0
 15 22  1  6
 22 23  1  0
 26 30  1  0
 23 24  1  0
 24 25  2  0
 25 26  1  0
 26 27  2  0
 27 28  1  0
 28 29  2  0
 29 24  1  0
  1  2  2  0
  2  3  1  0
  3  6  2  0
  6  5  1  0
  5  4  2  0
  4  1  1  0
 30 31  2  0
 31 32  1  0
 32 33  2  0
 33 34  1  0
 34 35  2  0
 35 30  1  0
 16 17  2  0
 17 18  1  0
 18 19  2  0
 19 20  1  0
 20 21  2  0
 21 16  1  0
M  END
$$$$
