No_3345-complexes_sdf/6BKW-FPZ/2024-09-17-14-21-01/
     RDKit          3D

 29 32  0  0  0  0  0  0  0  0999 V2000
   -7.2496    3.8871   27.4508 C   0  0  0  0  0  0  0  0  0  0  0  0
   -7.9379    4.9063   27.8518 C   0  0  0  0  0  0  0  0  0  0  0  0
   -9.3376    4.8647   27.7795 C   0  0  0  0  0  0  0  0  0  0  0  0
   -7.8544    2.6294   27.0414 C   0  0  0  0  0  0  0  0  0  0  0  0
   -9.2852    2.6570   27.0666 C   0  0  0  0  0  0  0  0  0  0  0  0
  -10.0126    3.7528   27.4890 C   0  0  0  0  0  0  0  0  0  0  0  0
   -9.9274    1.4382   26.7476 N   0  0  0  0  0  0  0  0  0  0  0  0
  -10.2530    0.6511   27.7662 C   0  0  0  0  0  0  0  0  0  0  0  0
  -10.1233    1.0702   25.4879 C   0  0  0  0  0  0  0  0  0  0  0  0
  -10.1594    1.9636   24.4865 C   0  0  0  0  0  0  0  0  0  0  0  0
  -10.0967    3.2933   24.6392 C   0  0  0  0  0  0  0  0  0  0  0  0
  -10.1906    4.2750   23.5512 C   0  0  0  0  0  0  0  0  0  0  0  0
  -10.3159    3.8432   22.2599 C   0  0  0  0  0  0  0  0  0  0  0  0
  -10.3099    1.5269   23.0994 C   0  0  0  0  0  0  0  0  0  0  0  0
  -10.3563    2.4632   22.0163 C   0  0  0  0  0  0  0  0  0  0  0  0
  -10.0893   -0.7157   27.7438 C   0  0  0  0  0  0  0  0  0  0  0  0
  -10.4054   -0.1218   25.1265 O   0  0  0  0  0  0  0  0  0  0  0  0
   -7.2050    6.0156   28.0443 O   0  0  0  0  0  0  0  0  0  0  0  0
  -10.7828   -1.5283   27.7752 C   0  0  0  0  0  0  0  0  0  0  0  0
  -10.5046   -2.9868   27.7780 C   0  0  0  0  0  0  0  0  0  0  0  0
   -9.1672   -3.3133   27.6479 C   0  0  0  0  0  0  0  0  0  0  0  0
   -8.2192   -2.3485   27.5615 C   0  0  0  0  0  0  0  0  0  0  0  0
   -8.5612   -0.9964   27.6609 C   0  0  0  0  0  0  0  0  0  0  0  0
  -11.4757    3.7683   27.5163 C   0  0  0  0  0  0  0  0  0  0  0  0
  -12.2374    3.8798   26.5652 C   0  0  0  0  0  0  0  0  0  0  0  0
  -13.6592    3.9318   26.6115 C   0  0  0  0  0  0  0  0  0  0  0  0
  -14.2343    3.9156   27.8421 C   0  0  0  0  0  0  0  0  0  0  0  0
  -13.4703    3.7995   29.0066 C   0  0  0  0  0  0  0  0  0  0  0  0
  -12.0302    3.7874   28.9260 C   0  0  0  0  0  0  0  0  0  0  0  0
  5  7  1  0
  7  8  1  0
  7  9  1  0
  9 10  1  0
  8 16  1  0
  9 17  2  0
  2 18  1  0
  6 24  1  0
 16 19  2  0
 19 20  1  0
 20 21  2  0
 21 22  1  0
 22 23  2  0
 23 16  1  0
 24 25  2  0
 25 26  1  0
 26 27  2  0
 27 28  1  0
 28 29  2  0
 29 24  1  0
  1  2  2  0
  2  3  1  0
  3  6  2  0
  6  5  1  0
  5  4  2  0
  4  1  1  0
 10 11  2  0
 11 12  1  0
 12 13  2  0
 13 15  1  0
 15 14  2  0
 14 10  1  0
M  END
$$$$
