No_3570-complexes_sdf/6BKW-FPZ/2024-09-17-14-21-01/
     RDKit          3D

 12 13  0  0  0  0  0  0  0  0999 V2000
   -7.2496    3.8871   27.4508 C   0  0  0  0  0  0  0  0  0  0  0  0
   -8.5096    4.0291   27.2770 C   0  0  0  0  0  0  0  0  0  0  0  0
   -9.3451    2.8786   26.9046 C   0  0  0  0  0  0  0  0  0  0  0  0
   -6.4420    5.0113   27.9803 C   0  0  0  0  0  0  0  0  0  0  0  0
   -8.6212    1.6592   26.7920 C   0  0  0  0  0  0  0  0  0  0  0  0
   -7.2951    1.5429   27.1113 C   0  0  0  0  0  0  0  0  0  0  0  0
   -6.5610    2.6427   27.5365 C   0  0  0  0  0  0  0  0  0  0  0  0
   -9.2250    5.2842   27.3683 C   0  0  0  0  0  0  0  0  0  0  0  0
  -10.3719    5.5204   27.5557 C   0  0  0  0  0  0  0  0  0  0  0  0
   -8.4030    6.5182   27.3115 C   0  0  0  0  0  0  0  0  0  0  0  0
   -6.9949    6.3369   27.7771 C   0  0  0  0  0  0  0  0  0  0  0  0
  -11.3083    4.3037   27.3156 C   0  0  0  0  0  0  0  0  0  0  0  0
  9 12  1  0
  9  8  1  0
  2  8  1  0
  8 10  2  0
 10 11  1  0
 11  4  2  0
  4  1  1  0
  1  2  1  0
  2  3  2  0
  3  5  1  0
  5  6  2  0
  6  7  1  0
  7  1  2  0
M  END
$$$$
