No_3572-complexes_sdf/6BKW-FPZ/2024-09-17-14-21-01/
     RDKit          3D

 14 15  0  0  0  0  0  0  0  0999 V2000
   -7.9040    3.9820   27.1177 C   0  0  0  0  0  0  0  0  0  0  0  0
   -9.0711    4.3164   27.0630 C   0  0  0  0  0  0  0  0  0  0  0  0
  -10.0395    3.8218   27.1938 C   0  0  0  0  0  0  0  0  0  0  0  0
   -7.6424    2.5858   27.3610 C   0  0  0  0  0  0  0  0  0  0  0  0
   -8.7741    1.7889   27.4566 C   0  0  0  0  0  0  0  0  0  0  0  0
  -10.0155    2.3581   27.4300 C   0  0  0  0  0  0  0  0  0  0  0  0
   -9.1576    5.7966   26.9056 F   0  0  0  0  0  0  0  0  0  0  0  0
   -6.0772    1.8985   27.4108 Cl  0  0  0  0  0  0  0  0  0  0  0  0
  -11.2377    1.5195   27.7029 C   0  0  0  0  0  0  0  0  0  0  0  0
  -11.0905    0.2431   27.7737 C   0  0  0  0  0  0  0  0  0  0  0  0
  -12.2378   -0.5434   27.9437 C   0  0  0  0  0  0  0  0  0  0  0  0
  -13.1304   -0.1270   28.1199 C   0  0  0  0  0  0  0  0  0  0  0  0
  -12.5727    1.8794   27.9845 C   0  0  0  0  0  0  0  0  0  0  0  0
  -13.5612    1.1891   28.2260 C   0  0  0  0  0  0  0  0  0  0  0  0
  2  7  1  0
  4  8  1  0
  6  9  1  0
  1  2  2  0
  2  3  1  0
  3  6  2  0
  6  5  1  0
  5  4  2  0
  4  1  1  0
  9 10  2  0
 10 11  1  0
 11 12  2  0
 12 14  1  0
 14 13  2  0
 13  9  1  0
M  END
$$$$
