No_3604-complexes_sdf/6BKW-FPZ/2024-09-17-14-21-01/
     RDKit          3D

 35 39  0  0  0  0  0  0  0  0999 V2000
   -7.2496    3.8871   27.4508 C   0  0  0  0  0  0  0  0  0  0  0  0
   -7.9379    4.9063   27.8518 C   0  0  0  0  0  0  0  0  0  0  0  0
   -7.5112    6.1898   27.6280 C   0  0  0  0  0  0  0  0  0  0  0  0
   -7.4783    2.5435   27.5904 C   0  0  1  0  0  0  0  0  0  0  0  0
   -8.4841    2.0581   27.2694 C   0  0  0  0  0  0  0  0  0  0  0  0
   -9.6937    2.9246   27.5084 C   0  0  2  0  0  0  0  0  0  0  0  0
   -9.4301    4.3573   27.7515 C   0  0  0  0  0  0  0  0  0  0  0  0
  -11.0632    2.5052   27.6569 C   0  0  0  0  0  0  0  0  0  0  0  0
  -11.9999    3.2897   28.1224 C   0  0  0  0  0  0  0  0  0  0  0  0
  -11.3168    1.1272   27.4700 C   0  0  0  0  0  0  0  0  0  0  0  0
  -13.2303    2.8836   28.6538 C   0  0  0  0  0  0  0  0  0  0  0  0
  -12.6034    0.6297   27.9399 C   0  0  0  0  0  0  0  0  0  0  0  0
  -13.5221    1.5114   28.4608 C   0  0  0  0  0  0  0  0  0  0  0  0
   -6.2488    1.5920   27.3343 C   0  0  0  0  0  0  0  0  0  0  0  0
   -6.0604    0.7320   28.4793 C   0  0  0  0  0  0  0  0  0  0  0  0
   -4.6490    0.2743   28.6615 C   0  0  2  0  0  0  0  0  0  0  0  0
   -4.3728   -0.3079   29.9136 C   0  0  0  0  0  0  0  0  0  0  0  0
   -3.7947   -1.5755   29.9993 C   0  0  0  0  0  0  0  0  0  0  0  0
   -4.0091   -2.2904   31.0300 C   0  0  0  0  0  0  0  0  0  0  0  0
   -4.0880   -3.3903   31.2595 N   0  0  0  0  0  0  0  0  0  0  0  0
   -4.3033   -1.3169   32.3455 C   0  0  0  0  0  0  0  0  0  0  0  0
   -4.7090   -0.0322   32.2301 C   0  0  0  0  0  0  0  0  0  0  0  0
   -4.7748    0.4197   31.0372 C   0  0  0  0  0  0  0  0  0  0  0  0
   -3.6995    1.4862   28.3230 C   0  0  0  0  0  0  0  0  0  0  0  0
   -4.3842   -0.7001   27.5693 C   0  0  0  0  0  0  0  0  0  0  0  0
   -3.4210   -1.5237   27.5309 C   0  0  1  0  0  0  0  0  0  0  0  0
   -2.4835   -1.5637   29.3429 C   0  0  0  0  0  0  0  0  0  0  0  0
   -3.2570   -2.0618   26.0251 C   0  0  0  0  0  0  0  0  0  0  0  0
   -2.4622   -2.0236   28.0500 C   0  0  0  0  0  0  0  0  0  0  0  0
   -4.7607   -4.1771   30.3538 C   0  0  0  0  0  0  0  0  0  0  0  0
   -5.9873   -3.9953   30.0692 C   0  0  0  0  0  0  0  0  0  0  0  0
   -6.7391   -4.9040   29.9089 C   0  0  0  0  0  0  0  0  0  0  0  0
   -6.3218   -6.0390   29.2881 C   0  0  0  0  0  0  0  0  0  0  0  0
   -4.9342   -6.3858   29.4698 C   0  0  0  0  0  0  0  0  0  0  0  0
   -4.1140   -5.4830   30.0626 C   0  0  0  0  0  0  0  0  0  0  0  0
  1  2  1  0
  2  3  2  0
  1  4  1  0
  4  5  1  0
  5  6  1  0
  2  7  1  0
  6  7  1  0
  6  8  1  1
  4 14  1  6
 14 15  1  0
 15 16  1  0
 16 17  1  0
 16 24  1  6
 16 25  1  0
 25 26  1  0
 18 27  1  0
 26 28  1  6
 26 29  1  0
 27 29  1  0
 20 30  1  0
 20 19  1  0
  8  9  2  0
  9 11  1  0
 11 13  2  0
 13 12  1  0
 12 10  2  0
 10  8  1  0
 17 18  2  0
 18 19  1  0
 19 21  2  0
 21 22  1  0
 22 23  2  0
 23 17  1  0
 30 31  2  0
 31 32  1  0
 32 33  2  0
 33 34  1  0
 34 35  2  0
 35 30  1  0
M  END
$$$$
