No_3463-complexes_sdf/6BKW-FPZ/2024-09-17-14-21-01/
     RDKit          3D

  8  7  0  0  0  0  0  0  0  0999 V2000
   -7.7129    4.2099   27.0854 C   0  0  0  0  0  0  0  0  0  0  0  0
   -8.2112    3.0637   26.9225 C   0  0  0  0  0  0  0  0  0  0  0  0
   -9.4446    2.8304   26.1868 C   0  0  0  0  0  0  0  0  0  0  0  0
   -6.6388    4.5347   28.1123 C   0  0  0  0  0  0  0  0  0  0  0  0
   -9.9448    3.9173   25.5585 C   0  0  0  0  0  0  0  0  0  0  0  0
   -9.3660    5.1901   25.7094 C   0  0  0  0  0  0  0  0  0  0  0  0
   -8.3659    5.4005   26.5436 C   0  0  0  0  0  0  0  0  0  0  0  0
   -7.8951    6.6866   26.9312 C   0  0  0  0  0  0  0  0  0  0  0  0
  1  2  2  3
  2  3  1  0
  1  4  1  0
  3  5  2  3
  5  6  1  0
  6  7  2  3
  7  8  1  0
M  END
$$$$
