No_3470-complexes_sdf/6BKW-FPZ/2024-09-17-14-21-01/
     RDKit          3D

 18 19  0  0  0  0  0  0  0  0999 V2000
   -7.7129    4.2099   27.0854 C   0  0  0  0  0  0  0  0  0  0  0  0
   -8.2112    3.0637   26.9225 C   0  0  0  0  0  0  0  0  0  0  0  0
   -9.4446    2.8304   26.1868 C   0  0  0  0  0  0  0  0  0  0  0  0
   -6.6388    4.5347   28.1122 C   0  0  0  0  0  0  0  0  0  0  0  0
   -9.9448    3.9173   25.5585 C   0  0  0  0  0  0  0  0  0  0  0  0
   -9.3660    5.1901   25.7094 C   0  0  0  0  0  0  0  0  0  0  0  0
   -8.3659    5.4005   26.5436 C   0  0  0  0  0  0  0  0  0  0  0  0
  -11.1201    3.7822   24.6455 C   0  0  0  0  0  0  0  0  0  0  0  0
  -11.0081    4.0530   23.3053 C   0  0  0  0  0  0  0  0  0  0  0  0
  -12.0557    4.0815   22.4515 C   0  0  0  0  0  0  0  0  0  0  0  0
  -13.3308    3.7690   22.9680 C   0  0  0  0  0  0  0  0  0  0  0  0
  -12.4309    3.5855   25.1502 C   0  0  0  0  0  0  0  0  0  0  0  0
  -13.5027    3.6322   24.3380 C   0  0  0  0  0  0  0  0  0  0  0  0
   -5.6745    3.6011   28.1167 N   0  0  0  0  0  0  0  0  0  0  0  0
   -6.6322    5.5583   28.7676 O   0  0  0  0  0  0  0  0  0  0  0  0
  -14.3830    3.8031   22.1088 O   0  0  0  0  0  0  0  0  0  0  0  0
  -14.9252    2.6320   21.8710 C   0  0  0  0  0  0  0  0  0  0  0  0
  -15.8430    2.5101   21.4826 C   0  0  0  0  0  0  0  0  0  0  0  0
  1  4  1  0
  5  8  1  0
  4 14  1  0
  4 15  2  0
 11 16  1  0
 16 17  1  0
 17 18  2  0
  8  9  2  0
  9 10  1  0
 10 11  2  0
 11 13  1  0
 13 12  2  0
 12  8  1  0
  1  2  2  0
  2  3  1  0
  3  5  2  0
  5  6  1  0
  6  7  2  0
  7  1  1  0
M  END
$$$$
