No_3044-complexes_sdf/6BKW-FPZ/2024-09-17-14-21-01/
     RDKit          3D

 40 45  0  0  0  0  0  0  0  0999 V2000
   -7.2496    3.8871   27.4508 C   0  0  0  0  0  0  0  0  0  0  0  0
   -8.5096    4.0291   27.2770 C   0  0  0  0  0  0  0  0  0  0  0  0
   -9.3451    2.8786   26.9046 C   0  0  0  0  0  0  0  0  0  0  0  0
   -6.6065    2.5680   27.5073 C   0  0  0  0  0  0  0  0  0  0  0  0
   -7.3970    1.4834   27.2271 C   0  0  0  0  0  0  0  0  0  0  0  0
   -8.7029    1.6398   26.9934 C   0  0  0  0  0  0  0  0  0  0  0  0
   -9.1106    5.3702   27.2076 C   0  0  0  0  0  0  0  0  0  0  0  0
  -10.3556    5.4502   27.5687 F   0  0  0  0  0  0  0  0  0  0  0  0
   -8.4310    6.2623   28.0573 F   0  0  0  0  0  0  0  0  0  0  0  0
   -8.9707    5.8692   25.9539 F   0  0  0  0  0  0  0  0  0  0  0  0
   -6.7334    0.2107   27.2381 C   0  0  0  0  0  0  0  0  0  0  0  0
   -5.4751    0.0761   27.8399 C   0  0  0  0  0  0  0  0  0  0  0  0
   -4.9580    1.2162   28.5870 C   0  0  0  0  0  0  0  0  0  0  0  0
   -5.3726    2.4739   28.2037 N   0  0  0  0  0  0  0  0  0  0  0  0
   -4.8691   -1.2106   28.0257 C   0  0  0  0  0  0  0  0  0  0  0  0
   -4.2319   -1.6015   28.8755 C   0  0  0  0  0  0  0  0  0  0  0  0
   -3.5163   -0.4716   29.7236 C   0  0  0  0  0  0  0  0  0  0  0  0
   -3.8031    0.8886   29.4175 C   0  0  0  0  0  0  0  0  0  0  0  0
   -9.5991    0.4931   26.6400 C   0  0  1  0  0  0  0  0  0  0  0  0
   -9.7887    0.0143   25.4560 C   0  0  2  0  0  0  0  0  0  0  0  0
   -9.8437    0.7180   24.4237 C   0  0  0  0  0  0  0  0  0  0  0  0
   -9.9534    0.2814   23.0360 C   0  0  0  0  0  0  0  0  0  0  0  0
  -10.0519    1.1306   21.8815 C   0  0  0  0  0  0  0  0  0  0  0  0
  -10.1505    0.6656   20.6070 C   0  0  0  0  0  0  0  0  0  0  0  0
  -10.0342    2.5182   22.1749 C   0  0  0  0  0  0  0  0  0  0  0  0
   -9.9796    3.0412   23.4898 C   0  0  0  0  0  0  0  0  0  0  0  0
   -9.9012    2.2394   24.4816 C   0  0  0  0  0  0  0  0  0  0  0  0
  -10.5677   -1.2087   25.2684 C   0  0  0  0  0  0  0  0  0  0  0  0
  -11.1605   -0.2159   20.4697 N   0  0  0  0  0  0  0  0  0  0  0  0
  -11.2517   -1.0291   19.4190 C   0  0  0  0  0  0  0  0  0  0  0  0
  -10.4856   -1.2538   18.5917 C   0  0  0  0  0  0  0  0  0  0  0  0
  -12.6201   -1.3661   19.0638 C   0  0  0  0  0  0  0  0  0  0  0  0
  -10.6132   -2.0602   17.4258 C   0  0  0  0  0  0  0  0  0  0  0  0
  -13.7188   -1.1042   19.9580 C   0  0  0  0  0  0  0  0  0  0  0  0
  -11.9172   -2.4143   17.1870 C   0  0  0  0  0  0  0  0  0  0  0  0
  -12.8619   -2.1180   17.9720 C   0  0  0  0  0  0  0  0  0  0  0  0
  -13.5834   -0.3157   20.9341 C   0  0  0  0  0  0  0  0  0  0  0  0
  -12.3261    0.6227   21.0588 C   0  0  0  0  0  0  0  0  0  0  0  0
  -10.0048   -0.2224   27.9115 C   0  0  0  0  0  0  0  0  0  0  0  0
  -10.9883   -1.8818   26.4305 C   0  0  0  0  0  0  0  0  0  0  0  0
  2  7  1  0
  7  8  1  0
  7  9  1  0
  7 10  1  0
  6 19  1  0
 19 20  1  0
 23 24  1  0
 20 28  1  1
 24 29  1  0
 29 30  1  0
 32 34  1  0
 29 38  1  0
 37 38  1  0
 19 39  1  1
 28 40  2  0
 20 21  1  0
 34 37  1  0
  1  2  2  0
  2  3  1  0
  3  6  2  0
  6  5  1  0
  4  1  1  0
 30 31  2  0
 31 33  1  0
 33 35  2  0
 35 36  1  0
 36 32  2  0
 32 30  1  0
 21 22  2  0
 22 23  1  0
 23 25  2  0
 25 26  1  0
 26 27  2  0
 27 21  1  0
 13 18  1  0
 18 17  2  0
 17 16  1  0
 16 15  2  0
 15 12  1  0
  4  5  2  0
  5 11  1  0
 11 12  2  0
 12 13  1  0
 13 14  2  0
 14  4  1  0
M  END
$$$$
