No_3466-complexes_sdf/6BKW-FPZ/2024-09-17-14-21-01/
     RDKit          3D

 40 44  0  0  0  0  0  0  0  0999 V2000
   -7.9040    3.9820   27.1177 C   0  0  0  0  0  0  0  0  0  0  0  0
   -8.2057    2.8231   26.8733 C   0  0  0  0  0  0  0  0  0  0  0  0
   -8.7695    5.0740   26.7916 C   0  0  0  0  0  0  0  0  0  0  0  0
   -8.4337    6.4678   27.0913 C   0  0  0  0  0  0  0  0  0  0  0  0
   -9.3742    2.4311   26.2346 C   0  0  0  0  0  0  0  0  0  0  0  0
  -10.2395    3.4267   25.8887 C   0  0  0  0  0  0  0  0  0  0  0  0
   -9.9567    4.7548   26.1374 C   0  0  0  0  0  0  0  0  0  0  0  0
   -8.7531    7.4243   26.4062 N   0  0  0  0  0  0  0  0  0  0  0  0
   -7.4471    6.5794   28.0439 N   0  0  0  0  0  0  0  0  0  0  0  0
   -7.2680    1.6682   27.2875 C   0  0  0  0  0  0  0  0  0  0  0  0
   -6.0083    2.0090   27.8339 C   0  0  0  0  0  0  0  0  0  0  0  0
   -5.1198    0.9400   28.2031 C   0  0  0  0  0  0  0  0  0  0  0  0
   -5.5025   -0.3450   28.0836 C   0  0  0  0  0  0  0  0  0  0  0  0
   -7.5667    0.3206   27.2083 C   0  0  0  0  0  0  0  0  0  0  0  0
   -6.7899   -0.6302   27.6438 C   0  0  0  0  0  0  0  0  0  0  0  0
   -4.5921   -1.3814   28.6197 C   0  0  0  0  0  0  0  0  0  0  0  0
   -4.7348   -2.0964   29.4921 C   0  0  0  0  0  0  0  0  0  0  0  0
   -3.7790   -3.0019   30.0054 C   0  0  0  0  0  0  0  0  0  0  0  0
   -3.1612   -1.0691   28.3122 C   0  0  0  0  0  0  0  0  0  0  0  0
   -2.1456   -1.9075   28.6614 C   0  0  0  0  0  0  0  0  0  0  0  0
   -2.4654   -2.8465   29.6266 C   0  0  0  0  0  0  0  0  0  0  0  0
   -6.1683   -2.3681   30.0769 C   0  0  0  0  0  0  0  0  0  0  0  0
   -7.0822   -3.0465   29.7520 C   0  0  0  0  0  0  0  0  0  0  0  0
   -8.3351   -3.1092   30.3763 C   0  0  0  0  0  0  0  0  0  0  0  0
   -8.4275   -2.7794   31.7268 C   0  0  0  0  0  0  0  0  0  0  0  0
   -7.3158   -2.1190   32.3220 C   0  0  0  0  0  0  0  0  0  0  0  0
   -6.1138   -1.9184   31.6462 C   0  0  0  0  0  0  0  0  0  0  0  0
   -9.6860   -2.9054   32.4576 C   0  0  0  0  0  0  0  0  0  0  0  0
   -9.6613   -2.7759   33.6317 O   0  0  0  0  0  0  0  0  0  0  0  0
  -10.7997   -2.8222   31.7384 O   0  0  0  0  0  0  0  0  0  0  0  0
  -12.0367   -2.7182   32.3465 C   0  0  0  0  0  0  0  0  0  0  0  0
  -12.9909   -2.2137   31.4061 C   0  0  0  0  0  0  0  0  0  0  0  0
  -12.6780   -1.9682   30.3149 O   0  0  0  0  0  0  0  0  0  0  0  0
  -13.5058   -1.6746   29.3011 C   0  0  0  0  0  0  0  0  0  0  0  0
  -12.8607   -1.3824   28.1047 C   0  0  0  0  0  0  0  0  0  0  0  0
  -12.5208   -0.0743   27.8857 C   0  0  0  0  0  0  0  0  0  0  0  0
  -12.2604    0.3776   26.5644 C   0  0  0  0  0  0  0  0  0  0  0  0
  -12.0060   -0.5311   25.5935 C   0  0  0  0  0  0  0  0  0  0  0  0
  -12.3444   -1.8703   25.8193 C   0  0  0  0  0  0  0  0  0  0  0  0
  -12.7853   -2.2814   27.0659 C   0  0  0  0  0  0  0  0  0  0  0  0
  3  4  1  0
  4  8  2  0
  4  9  1  0
  2 10  1  0
 13 16  1  0
 17 22  1  0
 25 28  1  0
 28 29  2  0
 28 30  1  0
 30 31  1  0
 31 32  1  0
 32 33  1  0
 33 34  1  0
 34 35  1  0
  1  2  2  0
  2  5  1  0
  5  6  2  0
  6  7  1  0
  7  3  2  0
  3  1  1  0
 22 23  2  0
 23 24  1  0
 24 25  2  0
 25 26  1  0
 26 27  2  0
 27 22  1  0
 35 36  2  0
 36 37  1  0
 37 38  2  0
 38 39  1  0
 39 40  2  0
 40 35  1  0
 10 11  2  0
 11 12  1  0
 12 13  2  0
 13 15  1  0
 15 14  2  0
 14 10  1  0
 16 17  1  0
 17 18  2  0
 18 21  1  0
 21 20  2  0
 20 19  1  0
 19 16  2  0
M  END
$$$$
