No_3934-complexes_sdf/6BKW-FPZ/2024-09-17-14-21-01/
     RDKit          3D

 12 13  0  0  0  0  0  0  0  0999 V2000
   -7.7129    4.2099   27.0854 C   0  0  0  0  0  0  0  0  0  0  0  0
   -8.9133    4.4736   27.0998 C   0  0  2  0  0  0  0  0  0  0  0  0
   -9.7135    3.9633   26.0300 C   0  0  0  0  0  0  0  0  0  0  0  0
   -6.8420    4.9760   28.0851 C   0  0  0  0  0  0  0  0  0  0  0  0
   -9.9322    2.5915   25.9958 C   0  0  0  0  0  0  0  0  0  0  0  0
  -10.5325    2.0352   24.9002 C   0  0  0  0  0  0  0  0  0  0  0  0
   -7.6898    5.8921   28.6063 N   0  0  0  0  0  0  0  0  0  0  0  0
   -8.9167    5.6721   27.8226 C   0  0  0  0  0  0  0  0  0  0  0  0
  -10.5590    0.6342   24.7201 C   0  0  0  0  0  0  0  0  0  0  0  0
   -9.8987   -0.1502   25.6378 C   0  0  0  0  0  0  0  0  0  0  0  0
   -9.1902    0.3915   26.6900 C   0  0  0  0  0  0  0  0  0  0  0  0
   -9.1168    1.7541   26.8532 C   0  0  0  0  0  0  0  0  0  0  0  0
  1  2  1  0
  2  3  1  6
  1  4  1  0
  4  7  2  0
  2  8  1  0
  7  8  1  0
  3  5  1  0
  5  6  2  0
  6  9  1  0
  9 10  2  0
 10 11  1  0
 11 12  2  0
 12  5  1  0
M  END
$$$$
