No_3897-complexes_sdf/6BKW-FPZ/2024-09-17-14-21-01/
     RDKit          3D

 40 43  0  0  0  0  0  0  0  0999 V2000
   -7.7129    4.2099   27.0854 C   0  0  0  0  0  0  0  0  0  0  0  0
   -7.7814    5.1722   27.8972 C   0  0  0  0  0  0  0  0  0  0  0  0
   -8.8255    3.2789   27.1191 C   0  0  0  0  0  0  0  0  0  0  0  0
   -9.9209    3.4734   27.9101 C   0  0  0  0  0  0  0  0  0  0  0  0
  -10.0316    4.7089   28.6463 C   0  0  0  0  0  0  0  0  0  0  0  0
   -8.9258    5.5669   28.6427 C   0  0  0  0  0  0  0  0  0  0  0  0
   -8.6994    1.9948   26.3493 C   0  0  1  0  0  0  0  0  0  0  0  0
   -9.1697    1.9656   25.0734 C   0  0  0  0  0  0  0  0  0  0  0  0
   -9.8414    3.1330   24.5646 C   0  0  0  0  0  0  0  0  0  0  0  0
  -10.3216    3.2082   23.2530 C   0  0  0  0  0  0  0  0  0  0  0  0
  -10.0893    2.0859   22.4342 C   0  0  0  0  0  0  0  0  0  0  0  0
   -9.4269    0.9383   22.9138 C   0  0  0  0  0  0  0  0  0  0  0  0
   -8.9825    0.8850   24.0756 C   0  0  0  0  0  0  0  0  0  0  0  0
   -8.0461    0.8796   26.9532 C   0  0  0  0  0  0  0  0  0  0  0  0
   -7.5138    0.1437   27.5644 C   0  0  0  0  0  0  0  0  0  0  0  0
  -11.0512    2.5722   27.9514 C   0  0  0  0  0  0  0  0  0  0  0  0
  -12.3075    2.8671   27.4934 C   0  0  0  0  0  0  0  0  0  0  0  0
  -13.2492    2.6839   28.1995 C   0  0  0  0  0  0  0  0  0  0  0  0
  -13.2799    1.5737   29.2207 C   0  0  0  0  0  0  0  0  0  0  0  0
  -12.0316    0.9249   29.3594 C   0  0  0  0  0  0  0  0  0  0  0  0
  -10.9343    1.4562   28.8702 C   0  0  0  0  0  0  0  0  0  0  0  0
   -6.7103   -0.8474   28.1495 C   0  0  0  0  0  0  0  0  0  0  0  0
   -5.4177   -0.6094   28.5678 C   0  0  0  0  0  0  0  0  0  0  0  0
   -4.6921   -1.5791   29.3803 C   0  0  0  0  0  0  0  0  0  0  0  0
   -5.3608   -2.7202   29.6714 C   0  0  0  0  0  0  0  0  0  0  0  0
   -6.6202   -2.9301   29.2615 C   0  0  0  0  0  0  0  0  0  0  0  0
   -7.3127   -2.0475   28.5800 C   0  0  0  0  0  0  0  0  0  0  0  0
   -4.6707    0.6798   28.2518 C   0  0  0  0  0  0  0  0  0  0  0  0
   -5.1465    1.6419   27.8659 O   0  0  0  0  0  0  0  0  0  0  0  0
   -3.3839    0.6789   28.6533 O   0  0  0  0  0  0  0  0  0  0  0  0
  -11.0014    4.3472   22.6955 C   0  0  0  0  0  0  0  0  0  0  0  0
  -11.1090    5.3307   23.5594 N   0  0  0  0  0  0  0  0  0  0  0  0
  -11.6143    4.3110   21.6556 O   0  0  0  0  0  0  0  0  0  0  0  0
  -14.4149    1.0821   29.7136 O   0  0  0  0  0  0  0  0  0  0  0  0
  -15.4652    1.7010   29.9102 C   0  0  0  0  0  0  0  0  0  0  0  0
  -15.3922    2.6740   30.7676 C   0  0  0  0  0  0  0  0  0  0  0  0
  -14.8023    2.5029   31.9706 C   0  0  0  0  0  0  0  0  0  0  0  0
  -14.5363    3.5986   32.9246 C   0  0  0  0  0  0  0  0  0  0  0  0
  -15.0667    4.8601   32.5705 C   0  0  0  0  0  0  0  0  0  0  0  0
  -15.6695    5.0617   31.3528 C   0  0  0  0  0  0  0  0  0  0  0  0
  3  7  1  0
  7 14  1  6
 14 15  3  0
  4 16  1  0
 15 22  1  0
 23 28  1  0
 28 29  2  0
 28 30  1  0
 10 31  1  0
 31 32  1  0
 31 33  2  0
 19 34  1  0
 34 35  1  0
 35 36  1  0
 36 37  2  3
 37 38  1  0
 38 39  2  3
 39 40  1  0
  7  8  1  0
  1  2  2  0
  2  6  1  0
  6  5  2  0
  5  4  1  0
  4  3  2  0
  3  1  1  0
 22 23  2  0
 23 24  1  0
 24 25  2  0
 25 26  1  0
 26 27  2  0
 27 22  1  0
  8  9  2  0
  9 10  1  0
 10 11  2  0
 11 12  1  0
 12 13  2  0
 13  8  1  0
 16 17  2  0
 17 18  1  0
 18 19  2  0
 19 20  1  0
 20 21  2  0
 21 16  1  0
M  END
$$$$
