No_3030-complexes_sdf/6BKW-FPZ/2024-09-17-14-21-01/
     RDKit          3D

 23 26  0  0  0  0  0  0  0  0999 V2000
   -7.2496    3.8871   27.4508 C   0  0  1  0  0  0  0  0  0  0  0  0
   -8.5096    4.0291   27.2770 C   0  0  0  0  0  0  0  0  0  0  0  0
   -9.2677    5.1714   27.5773 C   0  0  0  0  0  0  0  0  0  0  0  0
   -6.5711    2.6400   27.2842 C   0  0  0  0  0  0  0  0  0  0  0  0
   -7.2939    1.5094   27.0532 C   0  0  1  0  0  0  0  0  0  0  0  0
   -8.6122    1.6580   26.7575 C   0  0  0  0  0  0  0  0  0  0  0  0
   -9.2984    2.8495   26.9904 C   0  0  0  0  0  0  0  0  0  0  0  0
   -8.5439    6.4004   27.5644 C   0  0  0  0  0  0  0  0  0  0  0  0
  -10.6456    5.1416   27.8945 C   0  0  0  0  0  0  0  0  0  0  0  0
   -6.5903    0.2717   26.8533 C   0  0  0  0  0  0  0  0  0  0  0  0
   -5.5737    0.1143   27.4551 O   0  0  0  0  0  0  0  0  0  0  0  0
   -7.2269   -0.7588   26.4249 O   0  0  0  0  0  0  0  0  0  0  0  0
   -7.2200    6.4436   27.2485 C   0  0  0  0  0  0  0  0  0  0  0  0
   -6.5167    5.1766   27.4139 C   0  0  0  0  0  0  0  0  0  0  0  0
  -11.5008    3.9665   27.7948 C   0  0  0  0  0  0  0  0  0  0  0  0
  -12.7796    3.8703   28.0643 C   0  0  0  0  0  0  0  0  0  0  0  0
  -10.7340    2.7760   27.4069 C   0  0  0  0  0  0  0  0  0  0  0  0
  -13.2563    3.0954   29.0262 C   0  0  0  0  0  0  0  0  0  0  0  0
  -12.8362    2.1528   29.5123 C   0  0  0  0  0  0  0  0  0  0  0  0
  -13.4339    1.2413   30.5002 C   0  0  0  0  0  0  0  0  0  0  0  0
  -14.6070    1.6823   31.0359 C   0  0  0  0  0  0  0  0  0  0  0  0
  -15.1896    2.8504   30.5967 C   0  0  0  0  0  0  0  0  0  0  0  0
  -14.5991    3.6059   29.6328 C   0  0  0  0  0  0  0  0  0  0  0  0
  1  2  1  0
  2  3  2  0
  1  4  1  6
  4  5  1  0
  5  6  1  0
  2  7  1  0
  6  7  2  0
  3  8  1  0
  3  9  1  0
  5 10  1  6
 10 11  2  0
 10 12  1  0
  8 13  2  0
  1 14  1  0
 13 14  1  0
  9 15  2  0
 15 16  1  0
  7 17  1  0
 15 17  1  0
 16 18  1  0
 18 19  2  0
 19 20  1  0
 20 21  2  0
 21 22  1  0
 18 23  1  0
 22 23  1  0
M  END
$$$$
