No_3666-complexes_sdf/6BKW-FPZ/2024-09-17-14-21-01/
     RDKit          3D

 36 40  0  0  0  0  0  0  0  0999 V2000
   -7.7129    4.2099   27.0854 C   0  0  0  0  0  0  0  0  0  0  0  0
   -7.7814    5.1722   27.8972 C   0  0  0  0  0  0  0  0  0  0  0  0
   -8.8776    3.8408   26.3416 C   0  0  0  0  0  0  0  0  0  0  0  0
   -8.9136    2.6330   25.5655 C   0  0  0  0  0  0  0  0  0  0  0  0
   -8.8361    6.1389   27.9032 C   0  0  0  0  0  0  0  0  0  0  0  0
   -9.9718    4.7048   26.3433 C   0  0  0  0  0  0  0  0  0  0  0  0
   -9.9205    5.8499   27.1013 C   0  0  0  0  0  0  0  0  0  0  0  0
   -8.2873    1.5529   26.1251 N   0  0  0  0  0  0  0  0  0  0  0  0
   -8.1103    0.3671   25.5322 C   0  0  0  0  0  0  0  0  0  0  0  0
   -8.7310    0.1181   24.4960 C   0  0  0  0  0  0  0  0  0  0  0  0
   -9.5344    2.4821   24.3858 C   0  0  0  0  0  0  0  0  0  0  0  0
   -9.3864    1.2064   23.7476 C   0  0  0  0  0  0  0  0  0  0  0  0
   -7.4760   -0.6044   26.2688 N   0  0  0  0  0  0  0  0  0  0  0  0
   -6.7942   -1.4895   25.9226 C   0  0  0  0  0  0  0  0  0  0  0  0
   -7.5950   -0.4662   27.7740 C   0  0  0  0  0  0  0  0  0  0  0  0
   -7.0268   -1.5647   28.4976 C   0  0  0  0  0  0  0  0  0  0  0  0
   -6.1860   -2.5900   26.5978 C   0  0  0  0  0  0  0  0  0  0  0  0
   -6.2370   -2.4963   27.9951 C   0  0  0  0  0  0  0  0  0  0  0  0
   -5.7143   -3.5337   28.8603 C   0  0  0  0  0  0  0  0  0  0  0  0
   -5.2114   -3.3685   29.9493 C   0  0  0  0  0  0  0  0  0  0  0  0
   -4.4736   -2.1772   30.1774 C   0  0  0  0  0  0  0  0  0  0  0  0
   -3.9700   -1.3256   29.2343 C   0  0  0  0  0  0  0  0  0  0  0  0
   -3.2667   -1.5416   28.1996 C   0  0  0  0  0  0  0  0  0  0  0  0
   -2.8377   -0.4592   27.3253 C   0  0  0  0  0  0  0  0  0  0  0  0
   -3.3127    0.8493   27.5903 C   0  0  0  0  0  0  0  0  0  0  0  0
   -4.0901    1.1108   28.7457 C   0  0  0  0  0  0  0  0  0  0  0  0
   -4.3926    0.1873   29.5887 C   0  0  0  0  0  0  0  0  0  0  0  0
   -4.0643   -1.8839   31.6398 C   0  0  0  0  0  0  0  0  0  0  0  0
   -4.7163   -2.0977   32.5531 C   0  0  0  0  0  0  0  0  0  0  0  0
   -4.8376   -1.9245   33.5662 C   0  0  0  0  0  0  0  0  0  0  0  0
   -3.6530   -1.2119   34.2286 C   0  0  0  0  0  0  0  0  0  0  0  0
   -2.6535   -0.8087   33.2924 C   0  0  0  0  0  0  0  0  0  0  0  0
   -2.8720   -1.1024   31.9096 C   0  0  0  0  0  0  0  0  0  0  0  0
   -5.7945   -4.8879   28.2926 C   0  0  0  0  0  0  0  0  0  0  0  0
   -4.9340   -5.4192   27.6581 C   0  0  0  0  0  0  0  0  0  0  0  0
   -5.0205   -6.7608   27.1634 C   0  0  0  0  0  0  0  0  0  0  0  0
  3  4  1  0
  9 13  1  0
 13 14  1  0
 13 15  1  0
 16 18  1  0
 17 18  1  0
 18 19  1  0
 19 20  1  0
 20 21  2  3
 21 22  1  0
 21 28  1  0
 19 34  1  0
 34 35  2  3
 35 36  1  0
 14 17  1  0
 16 15  1  0
 22 23  2  0
 23 24  1  0
 24 25  2  0
 25 26  1  0
 26 27  2  0
 27 22  1  0
  4  8  2  0
  8  9  1  0
  9 10  2  0
 10 12  1  0
 12 11  2  0
 11  4  1  0
 28 29  2  0
 29 30  1  0
 30 31  2  0
 31 32  1  0
 32 33  2  0
 33 28  1  0
  1  2  2  0
  2  5  1  0
  5  7  2  0
  7  6  1  0
  6  3  2  0
  3  1  1  0
M  END
$$$$
