No_3511-complexes_sdf/6BKW-FPZ/2024-09-17-14-21-01/
     RDKit          3D

 15 15  0  0  0  0  0  0  0  0999 V2000
   -7.9040    3.9820   27.1177 C   0  0  0  0  0  0  0  0  0  0  0  0
   -9.0711    4.3164   27.0630 C   0  0  0  0  0  0  0  0  0  0  0  0
   -9.5294    5.4517   27.7215 C   0  0  0  0  0  0  0  0  0  0  0  0
   -7.4336    2.7132   26.5681 C   0  0  0  0  0  0  0  0  0  0  0  0
   -8.3353    1.8569   26.0442 C   0  0  1  0  0  0  0  0  0  0  0  0
   -9.6477    2.2853   25.9146 C   0  0  0  0  0  0  0  0  0  0  0  0
  -10.0346    3.4497   26.4483 C   0  0  0  0  0  0  0  0  0  0  0  0
   -7.8402    0.5622   25.5916 C   0  0  0  0  0  0  0  0  0  0  0  0
   -7.0763   -0.1440   26.3748 N   0  0  0  0  0  0  0  0  0  0  0  0
   -6.1235   -0.8675   26.0411 C   0  0  0  0  0  0  0  0  0  0  0  0
   -5.1661   -1.4115   27.0170 C   0  0  0  0  0  0  0  0  0  0  0  0
   -4.1212   -1.4977   27.0696 C   0  0  0  0  0  0  0  0  0  0  0  0
   -3.2510   -0.7579   27.1827 C   0  0  0  0  0  0  0  0  0  0  0  0
   -3.0267    0.1285   27.6116 C   0  0  0  0  0  0  0  0  0  0  0  0
   -7.2669   -0.1989   27.8082 C   0  0  0  0  0  0  0  0  0  0  0  0
  1  2  1  0
  2  3  2  0
  1  4  1  0
  4  5  1  0
  5  6  1  0
  2  7  1  0
  6  7  3  0
  5  8  1  6
  8  9  1  0
  9 10  1  0
 10 11  2  3
 11 12  1  0
 12 13  2  3
 13 14  1  0
  9 15  1  0
M  END
$$$$
