No_3077-complexes_sdf/6BKW-FPZ/2024-09-17-14-21-01/
     RDKit          3D

 14 15  0  0  0  0  0  0  0  0999 V2000
   -7.2496    3.8871   27.4508 C   0  0  0  0  0  0  0  0  0  0  0  0
   -8.5096    4.0291   27.2770 C   0  0  0  0  0  0  0  0  0  0  0  0
   -9.2677    5.1714   27.5773 C   0  0  0  0  0  0  0  0  0  0  0  0
   -6.5711    2.6400   27.2842 C   0  0  0  0  0  0  0  0  0  0  0  0
   -7.2939    1.5094   27.0532 C   0  0  0  0  0  0  0  0  0  0  0  0
   -8.6122    1.6580   26.7575 C   0  0  0  0  0  0  0  0  0  0  0  0
   -9.2984    2.8495   26.9904 C   0  0  0  0  0  0  0  0  0  0  0  0
   -8.5439    6.4004   27.5644 C   0  0  0  0  0  0  0  0  0  0  0  0
  -10.6456    5.1416   27.8945 C   0  0  0  0  0  0  0  0  0  0  0  0
   -6.5903    0.2717   26.8533 C   0  0  0  0  0  0  0  0  0  0  0  0
   -5.5737    0.1143   27.4551 O   0  0  0  0  0  0  0  0  0  0  0  0
   -7.0918   -0.6608   26.1428 O   0  0  0  0  0  0  0  0  0  0  0  0
   -7.2201    6.4444   27.2480 C   0  0  0  0  0  0  0  0  0  0  0  0
   -6.5169    5.1770   27.4140 C   0  0  0  0  0  0  0  0  0  0  0  0
  3  9  1  0
  5 10  1  0
 10 11  2  0
 10 12  1  0
  2  3  2  0
  3  8  1  0
  8 13  2  0
 13 14  1  0
 14  1  2  0
  1  2  1  0
  2  7  1  0
  7  6  2  0
  6  5  1  0
  5  4  2  0
  4  1  1  0
M  END
$$$$
