No_3581-complexes_sdf/6BKW-FPZ/2024-09-17-14-21-01/
     RDKit          3D

 23 25  0  0  0  0  0  0  0  0999 V2000
   -7.9040    3.9820   27.1177 C   0  0  0  0  0  0  0  0  0  0  0  0
   -8.2057    2.8231   26.8733 C   0  0  0  0  0  0  0  0  0  0  0  0
   -9.2962    2.4021   26.1155 C   0  0  0  0  0  0  0  0  0  0  0  0
   -8.7358    5.0662   26.5917 C   0  0  0  0  0  0  0  0  0  0  0  0
   -9.7618    4.7023   25.7546 C   0  0  0  0  0  0  0  0  0  0  0  0
  -10.0066    3.4105   25.4922 C   0  0  0  0  0  0  0  0  0  0  0  0
   -8.3936    6.4769   26.8843 C   0  0  0  0  0  0  0  0  0  0  0  0
   -8.0307    6.8601   28.0802 N   0  0  0  0  0  0  0  0  0  0  0  0
   -8.3814    7.3366   25.9565 O   0  0  0  0  0  0  0  0  0  0  0  0
   -7.3535    1.6687   27.5023 C   0  0  0  0  0  0  0  0  0  0  0  0
   -6.0938    1.9255   27.8447 N   0  0  0  0  0  0  0  0  0  0  0  0
   -5.3156    0.8761   28.3048 C   0  0  0  0  0  0  0  0  0  0  0  0
   -5.8112   -0.3559   28.4314 C   0  0  0  0  0  0  0  0  0  0  0  0
   -7.7600    0.3559   27.5338 C   0  0  0  0  0  0  0  0  0  0  0  0
   -7.0586   -0.6202   28.0685 C   0  0  0  0  0  0  0  0  0  0  0  0
   -3.9882    1.2685   28.6771 N   0  0  0  0  0  0  0  0  0  0  0  0
  -11.0924    3.0824   24.5613 C   0  0  0  0  0  0  0  0  0  0  0  0
  -11.1733    3.7513   23.3680 C   0  0  0  0  0  0  0  0  0  0  0  0
  -10.1347    4.7172   23.0187 C   0  0  0  0  0  0  0  0  0  0  0  0
  -12.2285    3.4267   22.4258 C   0  0  0  0  0  0  0  0  0  0  0  0
  -12.1989    3.7746   21.2365 C   0  0  0  0  0  0  0  0  0  0  0  0
  -10.3490    5.2604   21.6436 C   0  0  0  0  0  0  0  0  0  0  0  0
  -11.2600    4.8079   20.7961 C   0  0  0  0  0  0  0  0  0  0  0  0
  4  7  1  0
  7  8  1  0
  7  9  2  0
  2 10  1  0
 12 16  1  0
  6 17  1  0
 17 18  1  0
 18 19  2  0
 19 22  1  0
 22 23  2  0
 23 21  1  0
 21 20  2  0
 20 18  1  0
  1  2  2  0
  2  3  1  0
  3  6  2  0
  6  5  1  0
  5  4  2  0
  4  1  1  0
 10 11  2  0
 11 12  1  0
 12 13  2  0
 13 15  1  0
 15 14  2  0
 14 10  1  0
M  END
$$$$
