No_3592-complexes_sdf/6BKW-FPZ/2024-09-17-14-21-01/
     RDKit          3D

 20 23  0  0  0  0  0  0  0  0999 V2000
   -7.7129    4.2099   27.0854 C   0  0  0  0  0  0  0  0  0  0  0  0
   -7.7814    5.1722   27.8972 C   0  0  0  0  0  0  0  0  0  0  0  0
   -8.8776    3.8408   26.3416 C   0  0  0  0  0  0  0  0  0  0  0  0
   -8.9136    2.6330   25.5655 C   0  0  2  0  0  0  0  0  0  0  0  0
   -8.8361    6.1389   27.9032 C   0  0  0  0  0  0  0  0  0  0  0  0
  -10.0140    4.6007   26.4589 C   0  0  0  0  0  0  0  0  0  0  0  0
  -11.0945    4.2687   25.7155 C   0  0  0  0  0  0  0  0  0  0  0  0
   -9.9716    5.7939   27.1971 C   0  0  0  0  0  0  0  0  0  0  0  0
   -8.2160    1.5246   26.0308 C   0  0  0  0  0  0  0  0  0  0  0  0
   -9.5082    2.6201   24.3103 C   0  0  1  0  0  0  0  0  0  0  0  0
   -9.5062    1.6413   23.4594 C   0  0  0  0  0  0  0  0  0  0  0  0
  -10.6984    3.5949   24.2059 C   0  0  0  0  0  0  0  0  0  0  0  0
   -8.0216    0.4476   25.1794 N   0  0  0  0  0  0  0  0  0  0  0  0
   -8.6653    0.4848   23.9476 C   0  0  0  0  0  0  0  0  0  0  0  0
   -7.2473   -0.6929   25.5352 C   0  0  0  0  0  0  0  0  0  0  0  0
   -6.4615   -1.1895   24.7464 C   0  0  0  0  0  0  0  0  0  0  0  0
   -5.3992   -2.0310   25.1278 C   0  0  0  0  0  0  0  0  0  0  0  0
   -5.2898   -2.3510   26.4698 C   0  0  0  0  0  0  0  0  0  0  0  0
   -6.1593   -1.7198   27.3855 C   0  0  0  0  0  0  0  0  0  0  0  0
   -7.0616   -0.7585   26.9734 C   0  0  0  0  0  0  0  0  0  0  0  0
  3  4  1  0
  6  7  1  0
  4  9  1  6
  4 10  1  0
 10 11  1  1
  7 12  1  0
 10 12  1  0
  9 13  1  0
 13 14  1  0
 13 15  1  0
 11 14  1  0
 15 16  2  0
 16 17  1  0
 17 18  2  0
 18 19  1  0
 19 20  2  0
 20 15  1  0
  1  2  2  0
  2  5  1  0
  5  8  2  0
  8  6  1  0
  6  3  2  0
  3  1  1  0
M  END
$$$$
