No_3153-complexes_sdf/6BKW-FPZ/2024-09-17-14-21-01/
     RDKit          3D

 32 35  0  0  0  0  0  0  0  0999 V2000
   -7.7129    4.2099   27.0854 C   0  0  0  0  0  0  0  0  0  0  0  0
   -8.2112    3.0637   26.9225 C   0  0  2  0  0  0  0  0  0  0  0  0
   -7.0021    4.5281   28.2396 C   0  0  0  0  0  0  0  0  0  0  0  0
   -9.4237    2.7810   26.2714 C   0  0  0  0  0  0  0  0  0  0  0  0
   -9.8781    3.7859   25.4663 C   0  0  2  0  0  0  0  0  0  0  0  0
   -9.3689    5.0975   25.5965 C   0  0  0  0  0  0  0  0  0  0  0  0
   -8.4784    5.3402   26.5448 C   0  0  0  0  0  0  0  0  0  0  0  0
  -10.9798    3.5389   24.5162 C   0  0  0  0  0  0  0  0  0  0  0  0
  -12.1748    3.3346   24.9229 C   0  0  0  0  0  0  0  0  0  0  0  0
  -10.5708    3.0842   23.2086 C   0  0  0  0  0  0  0  0  0  0  0  0
  -11.4145    2.9409   22.1667 C   0  0  0  0  0  0  0  0  0  0  0  0
  -13.2081    3.1874   23.8994 C   0  0  0  0  0  0  0  0  0  0  0  0
  -12.8187    2.8866   22.5699 C   0  0  0  0  0  0  0  0  0  0  0  0
   -7.5883    1.8297   27.5930 C   0  0  0  0  0  0  0  0  0  0  0  0
   -6.2090    1.5853   27.2572 C   0  0  0  0  0  0  0  0  0  0  0  0
   -5.7198    0.4097   27.7400 C   0  0  0  0  0  0  0  0  0  0  0  0
   -4.2898    0.3356   28.0158 C   0  0  0  0  0  0  0  0  0  0  0  0
   -3.7526   -0.8091   28.5839 C   0  0  0  0  0  0  0  0  0  0  0  0
   -4.5554   -1.8690   28.8352 C   0  0  0  0  0  0  0  0  0  0  0  0
   -6.3788   -0.7509   28.1418 C   0  0  0  0  0  0  0  0  0  0  0  0
   -5.8965   -1.8168   28.6655 C   0  0  0  0  0  0  0  0  0  0  0  0
   -3.4717    1.3660   27.7701 O   0  0  0  0  0  0  0  0  0  0  0  0
   -6.8574   -2.9256   28.9907 C   0  0  0  0  0  0  0  0  0  0  0  0
   -7.0515   -3.3066   30.0940 N   0  0  0  0  0  0  0  0  0  0  0  0
   -7.8458   -2.8184   30.9833 C   0  0  0  0  0  0  0  0  0  0  0  0
   -8.0232   -2.9765   32.1564 C   0  0  0  0  0  0  0  0  0  0  0  0
   -6.9870   -3.4238   32.9635 C   0  0  0  0  0  0  0  0  0  0  0  0
   -7.0183   -3.5690   34.3652 C   0  0  0  0  0  0  0  0  0  0  0  0
   -8.2933   -3.4319   34.9394 C   0  0  0  0  0  0  0  0  0  0  0  0
   -9.4082   -3.0727   34.2358 C   0  0  0  0  0  0  0  0  0  0  0  0
   -9.2782   -2.7993   32.8656 C   0  0  0  0  0  0  0  0  0  0  0  0
   -7.5080   -3.4401   28.0445 O   0  0  0  0  0  0  0  0  0  0  0  0
  1  2  1  0
  1  3  2  0
  2  4  1  0
  4  5  1  0
  5  6  1  0
  1  7  1  0
  6  7  1  0
  5  8  1  1
  2 14  1  1
 14 15  1  0
 17 22  1  0
 21 23  1  0
 23 24  1  0
 24 25  1  0
 23 32  2  0
 25 26  1  0
 15 16  1  0
 26 27  2  0
 27 28  1  0
 28 29  2  0
 29 30  1  0
 30 31  2  0
 31 26  1  0
  8  9  2  0
  9 12  1  0
 12 13  2  0
 13 11  1  0
 11 10  2  0
 10  8  1  0
 16 17  2  0
 17 18  1  0
 18 19  2  0
 19 21  1  0
 21 20  2  0
 20 16  1  0
M  END
$$$$
