No_3501-complexes_sdf/6BKW-FPZ/2024-09-17-14-21-01/
     RDKit          3D

 11 11  0  0  0  0  0  0  0  0999 V2000
   -7.9040    3.9820   27.1177 C   0  0  0  0  0  0  0  0  0  0  0  0
   -7.8663    4.8694   27.9238 C   0  0  0  0  0  0  0  0  0  0  0  0
   -9.0806    3.1428   27.1220 C   0  0  0  0  0  0  0  0  0  0  0  0
   -8.9544    1.8782   26.5467 C   0  0  0  0  0  0  0  0  0  0  0  0
   -8.9992    5.6252   28.3272 C   0  0  0  0  0  0  0  0  0  0  0  0
  -10.2387    4.9629   28.1481 C   0  0  0  0  0  0  0  0  0  0  0  0
  -10.2265    3.7422   27.5150 C   0  0  0  0  0  0  0  0  0  0  0  0
   -8.2740    0.8077   27.1031 C   0  0  0  0  0  0  0  0  0  0  0  0
   -7.5022    1.0519   28.2889 C   0  0  0  0  0  0  0  0  0  0  0  0
   -6.6064    0.0004   28.7172 C   0  0  0  0  0  0  0  0  0  0  0  0
   -6.6390   -1.2415   28.1059 C   0  0  0  0  0  0  0  0  0  0  0  0
  4  8  1  0
  8  9  2  3
  9 10  1  0
 10 11  2  0
  4  3  1  0
  1  2  2  0
  2  5  1  0
  5  6  2  0
  6  7  1  0
  7  3  2  0
  3  1  1  0
M  END
$$$$
