No_3055-complexes_sdf/6BKW-FPZ/2024-09-17-14-21-01/
     RDKit          3D

 30 33  0  0  0  0  0  0  0  0999 V2000
   -7.7129    4.2099   27.0854 C   0  0  0  0  0  0  0  0  0  0  0  0
   -7.7814    5.1722   27.8972 C   0  0  0  0  0  0  0  0  0  0  0  0
   -8.8998    3.8713   26.3707 C   0  0  0  0  0  0  0  0  0  0  0  0
   -9.9938    4.6774   26.5446 C   0  0  0  0  0  0  0  0  0  0  0  0
   -8.7789    6.1536   27.9256 C   0  0  0  0  0  0  0  0  0  0  0  0
   -9.9428    5.8398   27.2296 C   0  0  0  0  0  0  0  0  0  0  0  0
   -9.1381    2.6848   25.5884 C   0  0  0  0  0  0  0  0  0  0  0  0
   -8.4962    1.5965   25.8985 N   0  0  0  0  0  0  0  0  0  0  0  0
   -9.8361    2.6753   24.3976 C   0  0  0  0  0  0  0  0  0  0  0  0
   -8.5771    0.5174   25.1365 C   0  0  0  0  0  0  0  0  0  0  0  0
   -9.9036    1.6205   23.5827 C   0  0  0  0  0  0  0  0  0  0  0  0
   -7.8965   -0.6788   25.6217 C   0  0  0  0  0  0  0  0  0  0  0  0
   -9.2240    0.4724   23.9808 C   0  0  0  0  0  0  0  0  0  0  0  0
   -7.2379   -1.3203   25.0884 O   0  0  0  0  0  0  0  0  0  0  0  0
   -8.4429   -1.0691   26.9057 O   0  0  0  0  0  0  0  0  0  0  0  0
   -7.7184   -1.8833   27.6804 C   0  0  0  0  0  0  0  0  0  0  0  0
   -6.7005   -1.3557   28.3540 C   0  0  0  0  0  0  0  0  0  0  0  0
   -6.1216   -1.9928   29.4822 C   0  0  0  0  0  0  0  0  0  0  0  0
   -5.0507   -1.4494   30.2002 C   0  0  0  0  0  0  0  0  0  0  0  0
   -4.4488   -0.1940   29.7554 C   0  0  0  0  0  0  0  0  0  0  0  0
   -4.9809    0.4102   28.6023 C   0  0  0  0  0  0  0  0  0  0  0  0
   -6.0469   -0.1184   27.9598 C   0  0  0  0  0  0  0  0  0  0  0  0
   -4.2880    1.9305   28.1322 Cl  0  0  0  0  0  0  0  0  0  0  0  0
   -4.4998   -2.0674   31.3926 C   0  0  0  0  0  0  0  0  0  0  0  0
   -4.2971   -1.6592   32.4718 C   0  0  0  0  0  0  0  0  0  0  0  0
   -4.6869   -0.2096   32.8524 C   0  0  0  0  0  0  0  0  0  0  0  0
   -3.6416   -2.3681   33.6096 C   0  0  0  0  0  0  0  0  0  0  0  0
   -3.7784   -2.0415   34.7011 C   0  0  0  0  0  0  0  0  0  0  0  0
   -4.6854    0.0806   34.2634 C   0  0  0  0  0  0  0  0  0  0  0  0
   -4.1442   -0.7520   35.2175 C   0  0  0  0  0  0  0  0  0  0  0  0
  3  7  1  0
 10 12  1  0
 12 14  2  0
 12 15  1  0
 15 16  1  0
 16 17  1  0
 21 23  1  0
 19 24  1  0
 24 25  1  0
 17 18  2  0
 18 19  1  0
 19 20  2  0
 20 21  1  0
 21 22  2  0
 22 17  1  0
  7  8  2  0
  8 10  1  0
 10 13  2  0
 13 11  1  0
 11  9  2  0
  9  7  1  0
  1  2  2  0
  2  5  1  0
  5  6  2  0
  6  4  1  0
  4  3  2  0
  3  1  1  0
 25 26  2  0
 26 29  1  0
 29 30  2  0
 30 28  1  0
 28 27  2  0
 27 25  1  0
M  END
$$$$
