No_3571-complexes_sdf/6BKW-FPZ/2024-09-17-14-21-01/
     RDKit          3D

 13 12  0  0  0  0  0  0  0  0999 V2000
   -7.7129    4.2099   27.0854 C   0  0  0  0  0  0  0  0  0  0  0  0
   -8.9133    4.4736   27.0998 C   0  0  0  0  0  0  0  0  0  0  0  0
  -10.0678    4.6201   26.8779 C   0  0  0  0  0  0  0  0  0  0  0  0
   -6.4347    3.9247   27.6291 C   0  0  0  0  0  0  0  0  0  0  0  0
  -10.9505    3.4345   26.8702 C   0  0  0  0  0  0  0  0  0  0  0  0
  -12.2360    3.6450   27.2100 C   0  0  0  0  0  0  0  0  0  0  0  0
  -12.4842    4.4604   28.3241 C   0  0  0  0  0  0  0  0  0  0  0  0
  -13.0482    4.3016   26.0246 C   0  0  0  0  0  0  0  0  0  0  0  0
  -13.1205    2.3447   27.4793 C   0  0  0  0  0  0  0  0  0  0  0  0
  -12.9145    1.7422   28.3307 C   0  0  0  0  0  0  0  0  0  0  0  0
  -13.5242    0.4272   28.5255 C   0  0  0  0  0  0  0  0  0  0  0  0
  -13.4419   -0.4337   27.9977 C   0  0  0  0  0  0  0  0  0  0  0  0
  -14.1191   -1.6409   28.2280 C   0  0  0  0  0  0  0  0  0  0  0  0
  1  2  3  0
  2  3  1  0
  1  4  1  0
  3  5  1  0
  5  6  1  0
  6  7  1  0
  6  8  1  0
  6  9  1  0
  9 10  2  3
 10 11  1  0
 11 12  2  3
 12 13  1  0
M  END
$$$$
