No_3392-complexes_sdf/6BKW-FPZ/2024-09-17-14-21-01/
     RDKit          3D

 14 15  0  0  0  0  0  0  0  0999 V2000
   -7.7129    4.2099   27.0854 C   0  0  0  0  0  0  0  0  0  0  0  0
   -8.2112    3.0637   26.9225 C   0  0  0  0  0  0  0  0  0  0  0  0
   -8.5108    5.3904   26.9436 C   0  0  0  0  0  0  0  0  0  0  0  0
   -9.7256    5.1955   26.3518 C   0  0  0  0  0  0  0  0  0  0  0  0
   -9.4995    2.8258   26.4878 C   0  0  0  0  0  0  0  0  0  0  0  0
  -10.2542    3.9691   26.2055 C   0  0  0  0  0  0  0  0  0  0  0  0
   -7.9456    6.5695   27.1656 F   0  0  0  0  0  0  0  0  0  0  0  0
   -7.3632    1.8215   27.2517 C   0  0  0  0  0  0  0  0  0  0  0  0
   -6.1438    2.0032   27.7045 N   0  0  0  0  0  0  0  0  0  0  0  0
   -7.7627    0.5384   26.9934 C   0  0  0  0  0  0  0  0  0  0  0  0
   -5.3475    0.9181   28.0468 C   0  0  0  0  0  0  0  0  0  0  0  0
   -7.0065   -0.5381   27.3531 C   0  0  0  0  0  0  0  0  0  0  0  0
   -5.7481   -0.3187   27.9344 C   0  0  0  0  0  0  0  0  0  0  0  0
   -4.0981    1.2606   28.6239 N   0  0  0  0  0  0  0  0  0  0  0  0
  3  7  1  0
  2  8  1  0
 11 14  1  0
  8  9  2  0
  9 11  1  0
 11 13  2  0
 13 12  1  0
 12 10  2  0
 10  8  1  0
  1  2  2  0
  2  5  1  0
  5  6  2  0
  6  4  1  0
  4  3  2  0
  3  1  1  0
M  END
$$$$
