No_3138-complexes_sdf/6BKW-FPZ/2024-09-17-14-21-01/
     RDKit          3D

 22 23  0  0  0  0  0  0  0  0999 V2000
   -7.9040    3.9820   27.1177 C   0  0  0  0  0  0  0  0  0  0  0  0
   -8.2057    2.8231   26.8733 C   0  0  0  0  0  0  0  0  0  0  0  0
   -8.7463    4.9537   27.6708 C   0  0  0  0  0  0  0  0  0  0  0  0
   -8.3921    6.3606   27.8466 C   0  0  0  0  0  0  0  0  0  0  0  0
   -9.5482    2.3521   27.1946 C   0  0  0  0  0  0  0  0  0  0  0  0
  -10.4264    3.2507   27.7616 C   0  0  0  0  0  0  0  0  0  0  0  0
  -10.0702    4.5620   28.0189 C   0  0  0  0  0  0  0  0  0  0  0  0
   -9.0942    7.2301   26.8217 C   0  0  0  0  0  0  0  0  0  0  0  0
   -9.8552    1.0536   27.0875 F   0  0  0  0  0  0  0  0  0  0  0  0
   -7.3553    6.5782   27.7909 C   0  0  0  0  0  0  0  0  0  0  0  0
  -11.7726    2.7334   28.1844 C   0  0  0  0  0  0  0  0  0  0  0  0
  -12.7676    2.7054   27.3198 C   0  0  0  0  0  0  0  0  0  0  0  0
  -14.0562    2.2667   27.7527 C   0  0  0  0  0  0  0  0  0  0  0  0
  -14.2375    1.8777   29.1141 C   0  0  0  0  0  0  0  0  0  0  0  0
  -13.1725    1.9141   29.9876 C   0  0  0  0  0  0  0  0  0  0  0  0
  -11.9484    2.3746   29.5943 C   0  0  0  0  0  0  0  0  0  0  0  0
  -15.8152    1.3681   29.6206 Cl  0  0  0  0  0  0  0  0  0  0  0  0
   -7.3734    1.8591   26.4152 O   0  0  0  0  0  0  0  0  0  0  0  0
   -6.5921    1.1456   27.2956 C   0  0  0  0  0  0  0  0  0  0  0  0
   -6.5577   -0.2943   27.2155 C   0  0  0  0  0  0  0  0  0  0  0  0
   -7.3562   -0.8697   26.6503 C   0  0  0  0  0  0  0  0  0  0  0  0
   -7.3613   -2.3497   26.5247 C   0  0  0  0  0  0  0  0  0  0  0  0
  3  4  1  0
  4  8  1  0
  5  9  1  0
  4 10  1  0
  6 11  1  0
 14 17  1  0
  2 18  1  0
 18 19  1  0
 19 20  1  0
 20 21  2  3
 21 22  1  0
 11 12  2  0
 12 13  1  0
 13 14  2  0
 14 15  1  0
 15 16  2  0
 16 11  1  0
  1  2  2  0
  2  5  1  0
  5  6  2  0
  6  7  1  0
  7  3  2  0
  3  1  1  0
M  END
$$$$
