No_3296-complexes_sdf/6BKW-FPZ/2024-09-17-14-21-01/
     RDKit          3D

 38 42  0  0  0  0  0  0  0  0999 V2000
   -7.7129    4.2099   27.0854 C   0  0  0  0  0  0  0  0  0  0  0  0
   -7.7814    5.1722   27.8972 C   0  0  0  0  0  0  0  0  0  0  0  0
   -8.8998    3.8713   26.3707 C   0  0  0  0  0  0  0  0  0  0  0  0
   -8.9563    2.6796   25.5490 C   0  0  0  0  0  0  0  0  0  0  0  0
   -8.8131    6.1334   27.9344 C   0  0  0  0  0  0  0  0  0  0  0  0
   -9.9804    5.8121   27.1929 C   0  0  0  0  0  0  0  0  0  0  0  0
   -9.9861    4.6836   26.4532 C   0  0  0  0  0  0  0  0  0  0  0  0
   -8.2588    1.6746   25.9379 O   0  0  0  0  0  0  0  0  0  0  0  0
   -9.7235    2.5880   24.3833 C   0  0  0  0  0  0  0  0  0  0  0  0
   -9.6900    1.4225   23.6442 C   0  0  0  0  0  0  0  0  0  0  0  0
   -8.7264    0.8337   26.6644 C   0  0  0  0  0  0  0  0  0  0  0  0
   -7.9202   -0.0979   27.1284 C   0  0  0  0  0  0  0  0  0  0  0  0
   -8.3926   -1.1750   27.9509 C   0  0  0  0  0  0  0  0  0  0  0  0
  -10.0449    0.7543   27.1349 C   0  0  0  0  0  0  0  0  0  0  0  0
  -10.5725   -0.1694   28.0109 C   0  0  0  0  0  0  0  0  0  0  0  0
   -9.6803   -1.1350   28.4123 C   0  0  0  0  0  0  0  0  0  0  0  0
  -10.1785    1.3799   22.4039 C   0  0  0  0  0  0  0  0  0  0  0  0
  -10.0595    0.1528   21.6002 C   0  0  0  0  0  0  0  0  0  0  0  0
   -9.3917   -0.9496   22.1947 C   0  0  0  0  0  0  0  0  0  0  0  0
   -8.8885   -0.8894   23.4602 C   0  0  0  0  0  0  0  0  0  0  0  0
   -9.0045    0.2681   24.1796 C   0  0  0  0  0  0  0  0  0  0  0  0
  -10.2161   -2.2019   29.3433 C   0  0  0  0  0  0  0  0  0  0  0  0
   -9.4199   -2.8757   30.0458 N   0  0  0  0  0  0  0  0  0  0  0  0
  -11.4770   -2.5827   29.1921 N   0  0  0  0  0  0  0  0  0  0  0  0
   -9.9642   -3.7531   30.9426 C   0  0  0  0  0  0  0  0  0  0  0  0
  -12.0819   -3.4308   30.0270 C   0  0  0  0  0  0  0  0  0  0  0  0
  -11.2775   -4.0947   30.9282 C   0  0  0  0  0  0  0  0  0  0  0  0
   -6.4949   -0.2471   26.7464 C   0  0  0  0  0  0  0  0  0  0  0  0
   -5.4916    0.2141   27.7929 C   0  0  0  0  0  0  0  0  0  0  0  0
   -4.1830    0.2872   27.4978 C   0  0  0  0  0  0  0  0  0  0  0  0
   -3.4296   -0.5270   27.6393 C   0  0  2  0  0  0  0  0  0  0  0  0
   -3.5600   -1.5975   28.3786 C   0  0  0  0  0  0  0  0  0  0  0  0
   -3.1417   -1.6890   29.4519 C   0  0  0  0  0  0  0  0  0  0  0  0
   -3.4397   -2.7524   30.3817 C   0  0  0  0  0  0  0  0  0  0  0  0
   -4.1283   -3.8075   29.8498 C   0  0  0  0  0  0  0  0  0  0  0  0
   -4.5990   -3.7460   28.5772 C   0  0  0  0  0  0  0  0  0  0  0  0
   -4.3758   -2.6199   27.8155 C   0  0  0  0  0  0  0  0  0  0  0  0
   -2.0109   -0.4044   26.9756 C   0  0  0  0  0  0  0  0  0  0  0  0
  3  4  1  0
  4  8  1  0
  4  9  1  0
  9 10  1  0
  8 11  1  0
 16 22  1  0
 12 28  1  0
 28 29  1  0
 29 30  2  3
 30 31  1  0
 31 32  1  0
 31 38  1  1
 32 33  2  0
 33 34  1  0
 34 35  2  0
 35 36  1  0
 36 37  2  0
 37 32  1  0
 10 17  2  0
 17 18  1  0
 18 19  2  0
 19 20  1  0
 20 21  2  0
 21 10  1  0
  1  2  2  0
  2  5  1  0
  5  6  2  0
  6  7  1  0
  7  3  2  0
  3  1  1  0
 22 23  2  0
 23 25  1  0
 25 27  2  0
 27 26  1  0
 26 24  2  0
 24 22  1  0
 11 12  1  0
 12 13  2  0
 13 16  1  0
 16 15  2  0
 15 14  1  0
 14 11  2  0
M  END
$$$$
