No_3519-complexes_sdf/6BKW-FPZ/2024-09-17-14-21-01/
     RDKit          3D

 40 45  0  0  0  0  0  0  0  0999 V2000
   -7.7129    4.2099   27.0854 C   0  0  0  0  0  0  0  0  0  0  0  0
   -7.7814    5.1722   27.8972 C   0  0  0  0  0  0  0  0  0  0  0  0
   -8.8998    3.8713   26.3707 C   0  0  0  0  0  0  0  0  0  0  0  0
   -9.1401    2.5906   25.9433 C   0  0  0  0  0  0  0  0  0  0  0  0
   -8.7502    6.2483   27.7275 C   0  0  0  0  0  0  0  0  0  0  0  0
  -10.0339    2.3357   24.9097 C   0  0  0  0  0  0  0  0  0  0  0  0
  -10.7478    3.4936   24.4302 C   0  0  0  0  0  0  0  0  0  0  0  0
  -10.4101    4.7846   24.8361 C   0  0  0  0  0  0  0  0  0  0  0  0
   -9.4051    4.9704   25.7769 C   0  0  0  0  0  0  0  0  0  0  0  0
   -9.5992    6.1568   26.6221 C   0  0  0  0  0  0  0  0  0  0  0  0
   -6.9150    3.0032   27.6415 C   0  0  0  0  0  0  0  0  0  0  0  0
   -5.6157    3.2738   28.0906 C   0  0  0  0  0  0  0  0  0  0  0  0
   -7.2833    1.6838   27.3503 C   0  0  0  0  0  0  0  0  0  0  0  0
   -8.3433    1.4552   26.3149 C   0  0  0  0  0  0  0  0  0  0  0  0
   -4.8005    2.1762   28.3777 N   0  0  0  0  0  0  0  0  0  0  0  0
   -4.8291    1.0550   27.7610 C   0  0  0  0  0  0  0  0  0  0  0  0
   -6.2232    0.5975   27.4648 C   0  0  0  0  0  0  0  0  0  0  0  0
   -8.3523    0.3672   25.7036 O   0  0  0  0  0  0  0  0  0  0  0  0
   -4.1112    0.0558   28.6206 C   0  0  0  0  0  0  0  0  0  0  0  0
   -4.4645   -0.3213   29.8624 C   0  0  0  0  0  0  0  0  0  0  0  0
   -3.7607   -1.1407   30.7044 C   0  0  0  0  0  0  0  0  0  0  0  0
   -2.5698   -1.6644   30.2746 C   0  0  0  0  0  0  0  0  0  0  0  0
   -2.7993   -0.4408   28.2019 C   0  0  0  0  0  0  0  0  0  0  0  0
   -2.0331   -1.2353   29.0268 C   0  0  0  0  0  0  0  0  0  0  0  0
   -4.2931   -1.2544   32.0625 C   0  0  0  0  0  0  0  0  0  0  0  0
   -3.6983   -0.8637   33.1497 C   0  0  0  0  0  0  0  0  0  0  0  0
   -5.5849   -1.8237   32.1786 C   0  0  0  0  0  0  0  0  0  0  0  0
   -3.3783   -1.4699   34.0477 N   0  0  0  0  0  0  0  0  0  0  0  0
   -4.4399   -1.8872   34.9393 C   0  0  0  0  0  0  0  0  0  0  0  0
   -5.5591   -2.5571   34.4027 C   0  0  0  0  0  0  0  0  0  0  0  0
   -6.2605   -2.1047   33.3725 C   0  0  2  0  0  0  0  0  0  0  0  0
   -2.0843   -1.8591   34.5372 C   0  0  0  0  0  0  0  0  0  0  0  0
   -1.2779   -0.7361   34.5153 C   0  0  0  0  0  0  0  0  0  0  0  0
    0.2946   -1.1250   34.5543 C   0  0  0  0  0  0  0  0  0  0  0  0
    0.5754   -1.8086   35.4735 O   0  0  0  0  0  0  0  0  0  0  0  0
    1.0126   -0.6249   33.6619 O   0  0  0  0  0  0  0  0  0  0  0  0
   -7.9833   -2.0396   33.3330 Cl  0  0  0  0  0  0  0  0  0  0  0  0
   -2.2860    0.0306   26.8843 C   0  0  0  0  0  0  0  0  0  0  0  0
   -0.7867   -1.8811   28.6963 C   0  0  0  0  0  0  0  0  0  0  0  0
    0.2044   -1.3204   29.0458 O   0  0  0  0  0  0  0  0  0  0  0  0
  1 11  1  0
  4 14  1  0
 13 14  1  0
 14 18  2  0
 16 19  1  0
 21 25  1  0
 25 26  1  0
 25 27  1  0
 26 28  1  0
 28 29  1  0
 29 30  1  0
 27 31  1  0
 30 31  1  0
 28 32  1  0
 32 33  1  0
 33 34  1  0
 34 35  2  0
 34 36  1  0
 31 37  1  6
 23 38  1  0
 24 39  1  0
 39 40  2  0
 11 12  2  0
 12 15  1  0
 15 16  2  0
 16 17  1  0
 17 13  2  0
 13 11  1  0
  3  4  2  0
  4  6  1  0
  6  7  2  0
  7  8  1  0
  8  9  2  0
 19 20  2  0
 20 21  1  0
 21 22  2  0
 22 24  1  0
 24 23  2  0
 23 19  1  0
  1  2  2  0
  2  5  1  0
  5 10  2  0
 10  9  1  0
  9  3  1  0
  3  1  1  0
M  END
$$$$
