No_3494-complexes_sdf/6BKW-FPZ/2024-09-17-14-21-01/
     RDKit          3D

 40 44  0  0  0  0  0  0  0  0999 V2000
   -7.2496    3.8871   27.4508 C   0  0  0  0  0  0  0  0  0  0  0  0
   -7.6161    2.7143   27.1523 C   0  0  0  0  0  0  0  0  0  0  0  0
   -8.8302    2.4659   26.5056 C   0  0  0  0  0  0  0  0  0  0  0  0
   -8.1584    5.0090   27.3234 C   0  0  0  0  0  0  0  0  0  0  0  0
   -9.3788    4.7965   26.7695 C   0  0  0  0  0  0  0  0  0  0  0  0
   -9.7028    3.5649   26.3276 C   0  0  0  0  0  0  0  0  0  0  0  0
   -6.7190    1.5585   27.3667 C   0  0  0  0  0  0  0  0  0  0  0  0
   -7.0504    0.2135   27.2455 C   0  0  0  0  0  0  0  0  0  0  0  0
   -6.2345   -0.7674   27.5419 C   0  0  0  0  0  0  0  0  0  0  0  0
   -6.6180   -2.1082   27.4941 C   0  0  0  0  0  0  0  0  0  0  0  0
   -4.8840   -0.3847   28.0532 C   0  0  0  0  0  0  0  0  0  0  0  0
   -4.5135    0.9449   28.1585 C   0  0  0  0  0  0  0  0  0  0  0  0
   -5.3680    1.8910   27.8969 C   0  0  0  0  0  0  0  0  0  0  0  0
   -7.6195    6.5785   27.8600 Cl  0  0  0  0  0  0  0  0  0  0  0  0
  -10.9972    3.1919   25.7254 C   0  0  0  0  0  0  0  0  0  0  0  0
  -12.0402    2.8043   26.4252 C   0  0  0  0  0  0  0  0  0  0  0  0
  -11.8027    2.6441   27.8997 C   0  0  0  0  0  0  0  0  0  0  0  0
  -10.9868    3.1007   28.6029 C   0  0  0  0  0  0  0  0  0  0  0  0
  -11.3000    3.1534   30.1981 C   0  0  0  0  0  0  0  0  0  0  0  0
  -12.6718    2.7744   30.4663 C   0  0  0  0  0  0  0  0  0  0  0  0
  -13.1602    2.3879   28.7127 C   0  0  0  0  0  0  0  0  0  0  0  0
  -11.0422    3.3098   24.2846 C   0  0  0  0  0  0  0  0  0  0  0  0
  -10.3747    4.1735   23.6682 C   0  0  0  0  0  0  0  0  0  0  0  0
  -10.4380    4.3257   22.2181 C   0  0  0  0  0  0  0  0  0  0  0  0
  -10.8114    3.4383   21.6513 C   0  0  0  0  0  0  0  0  0  0  0  0
  -11.5331    2.3361   23.4413 C   0  0  0  0  0  0  0  0  0  0  0  0
  -12.1914    1.1742   24.1716 C   0  0  0  0  0  0  0  0  0  0  0  0
  -11.5076    2.3108   22.1085 C   0  0  0  0  0  0  0  0  0  0  0  0
  -11.3697    0.1504   24.4775 C   0  0  0  0  0  0  0  0  0  0  0  0
  -11.8480   -0.9267   25.2638 C   0  0  0  0  0  0  0  0  0  0  0  0
  -13.2076   -0.9782   25.5511 C   0  0  0  0  0  0  0  0  0  0  0  0
  -13.5329    1.1885   24.4517 C   0  0  0  0  0  0  0  0  0  0  0  0
  -14.0592    0.0905   25.1839 C   0  0  0  0  0  0  0  0  0  0  0  0
   -7.0110   -2.7359   28.2429 C   0  0  0  0  0  0  0  0  0  0  0  0
   -7.6201   -3.5381   28.7461 C   0  0  0  0  0  0  0  0  0  0  0  0
   -8.3862   -3.3429   29.9809 C   0  0  0  0  0  0  0  0  0  0  0  0
   -9.3526   -4.1234   30.5132 C   0  0  0  0  0  0  0  0  0  0  0  0
   -9.5259   -5.3649   29.8819 C   0  0  0  0  0  0  0  0  0  0  0  0
  -10.5224   -6.1672   30.4327 C   0  0  0  0  0  0  0  0  0  0  0  0
   -8.7295   -5.8140   28.8744 C   0  0  0  0  0  0  0  0  0  0  0  0
  2  7  1  0
  4 14  1  0
  6 15  1  0
 15 16  2  3
 16 17  1  0
 17 18  2  0
 18 19  1  0
 19 20  2  0
 17 21  1  0
 20 21  1  0
 15 22  1  0
 26 27  1  0
 10 34  1  0
 34 35  2  3
 35 36  1  0
 36 37  2  3
 37 38  1  0
 38 39  2  0
 38 40  1  0
 10  9  1  0
  7  8  2  0
  8  9  1  0
  9 11  2  0
 11 12  1  0
 12 13  2  0
 13  7  1  0
  1  2  2  0
  2  3  1  0
  3  6  2  0
  6  5  1  0
  5  4  2  0
  4  1  1  0
 27 29  2  0
 29 30  1  0
 30 31  2  0
 31 33  1  0
 33 32  2  0
 32 27  1  0
 22 23  2  0
 23 24  1  0
 24 25  2  0
 25 28  1  0
 28 26  2  0
 26 22  1  0
M  END
$$$$
