No_3953-complexes_sdf/6BKW-FPZ/2024-09-17-14-21-01/
     RDKit          3D

 11 11  0  0  0  0  0  0  0  0999 V2000
   -7.7129    4.2099   27.0854 C   0  0  0  0  0  0  0  0  0  0  0  0
   -7.7814    5.1722   27.8972 C   0  0  0  0  0  0  0  0  0  0  0  0
   -8.7889    3.2468   27.2220 C   0  0  0  0  0  0  0  0  0  0  0  0
   -8.5940    1.9755   26.6525 C   0  0  0  0  0  0  0  0  0  0  0  0
   -8.9964    5.6056   28.3460 N   0  0  0  0  0  0  0  0  0  0  0  0
  -10.0875    4.8507   28.2492 C   0  0  0  0  0  0  0  0  0  0  0  0
   -9.9794    3.6444   27.6795 C   0  0  0  0  0  0  0  0  0  0  0  0
   -9.3939    1.0869   26.4130 C   0  0  0  0  0  0  0  0  0  0  0  0
   -9.0938   -0.2180   25.9059 C   0  0  0  0  0  0  0  0  0  0  0  0
   -7.7683   -0.4180   25.5626 C   0  0  0  0  0  0  0  0  0  0  0  0
   -6.7888    0.4387   25.9101 C   0  0  0  0  0  0  0  0  0  0  0  0
  1  2  1  0
  1  3  1  0
  3  4  2  3
  2  5  1  0
  5  6  1  0
  3  7  1  0
  6  7  1  0
  4  8  1  0
  8  9  2  3
  9 10  1  0
 10 11  2  0
M  END
$$$$
