No_3430-complexes_sdf/6BKW-FPZ/2024-09-17-14-21-01/
     RDKit          3D

 14 14  0  0  0  0  0  0  0  0999 V2000
   -7.7129    4.2099   27.0854 C   0  0  0  0  0  0  0  0  0  0  0  0
   -8.2112    3.0637   26.9225 C   0  0  0  0  0  0  0  0  0  0  0  0
   -9.4446    2.8304   26.1868 C   0  0  0  0  0  0  0  0  0  0  0  0
   -8.4697    5.3956   26.7238 C   0  0  0  0  0  0  0  0  0  0  0  0
   -9.6172    5.2111   25.9513 C   0  0  0  0  0  0  0  0  0  0  0  0
  -10.0424    3.9782   25.6873 C   0  0  0  0  0  0  0  0  0  0  0  0
   -7.9172    6.7181   27.0124 C   0  0  0  0  0  0  0  0  0  0  0  0
   -8.4157    7.7972   26.4523 N   0  0  0  0  0  0  0  0  0  0  0  0
   -7.0176    6.7381   27.9413 O   0  0  0  0  0  0  0  0  0  0  0  0
   -7.5047    1.8012   27.3770 C   0  0  0  0  0  0  0  0  0  0  0  0
   -6.2468    1.8937   27.7842 N   0  0  0  0  0  0  0  0  0  0  0  0
   -5.5845    0.7425   28.1864 C   0  0  0  0  0  0  0  0  0  0  0  0
   -4.2144    0.8447   28.7084 C   0  0  0  0  0  0  0  0  0  0  0  0
   -6.1878   -0.5082   28.0847 C   0  0  0  0  0  0  0  0  0  0  0  0
  4  7  1  0
  7  8  1  0
  7  9  2  0
  2 10  1  0
 10 11  2  3
 11 12  1  0
 12 13  1  0
 12 14  1  0
  1  2  2  0
  2  3  1  0
  3  6  2  0
  6  5  1  0
  5  4  2  0
  4  1  1  0
M  END
$$$$
