No_3559-complexes_sdf/6BKW-FPZ/2024-09-17-14-21-01/
     RDKit          3D

 16 18  0  0  0  0  0  0  0  0999 V2000
   -7.9040    3.9820   27.1177 C   0  0  0  0  0  0  0  0  0  0  0  0
   -9.0711    4.3164   27.0630 C   0  0  0  0  0  0  0  0  0  0  0  0
  -10.0395    3.8218   27.1938 C   0  0  0  0  0  0  0  0  0  0  0  0
   -7.6424    2.5858   27.3610 C   0  0  0  0  0  0  0  0  0  0  0  0
   -8.7741    1.7889   27.4566 C   0  0  0  0  0  0  0  0  0  0  0  0
  -10.0155    2.3581   27.4300 C   0  0  0  0  0  0  0  0  0  0  0  0
   -9.1463    5.9504   26.8742 C   0  0  0  0  0  0  0  0  0  0  0  0
   -8.6170    6.9508   27.1013 N   0  0  0  0  0  0  0  0  0  0  0  0
   -6.4001    2.0503   27.3588 N   0  0  0  0  0  0  0  0  0  0  0  0
   -6.0927    0.7492   27.3857 C   0  0  0  0  0  0  0  0  0  0  0  0
   -5.2540    0.3824   28.3714 C   0  0  0  0  0  0  0  0  0  0  0  0
   -5.2539   -0.9207   28.9521 C   0  0  0  0  0  0  0  0  0  0  0  0
   -6.1237   -1.8185   28.3279 C   0  0  0  0  0  0  0  0  0  0  0  0
   -6.9348   -1.4386   27.3124 C   0  0  0  0  0  0  0  0  0  0  0  0
   -7.0014   -0.0935   26.9443 C   0  0  0  0  0  0  0  0  0  0  0  0
   -8.3686    0.4176   26.6209 C   0  0  0  0  0  0  0  0  0  0  0  0
  2  7  1  0
  7  8  3  0
  4  9  1  0
  9 10  1  0
  5 16  1  0
 15 16  1  0
  1  2  2  0
  2  3  1  0
  3  6  2  0
  6  5  1  0
  5  4  2  0
  4  1  1  0
 10 11  2  0
 11 12  1  0
 12 13  2  0
 13 14  1  0
 14 15  2  0
 15 10  1  0
M  END
$$$$
