No_306-complexes_sdf/6BKW-FPZ/2024-09-17-14-21-01/
     RDKit          3D

 23 27  0  0  0  0  0  0  0  0999 V2000
   -7.9040    3.9820   27.1177 C   0  0  0  0  0  0  0  0  0  0  0  0
   -7.8663    4.8694   27.9238 C   0  0  0  0  0  0  0  0  0  0  0  0
   -9.0501    3.8017   26.2617 C   0  0  0  0  0  0  0  0  0  0  0  0
  -10.0189    4.7608   26.3707 C   0  0  0  0  0  0  0  0  0  0  0  0
   -8.6973    5.9722   27.8968 C   0  0  0  0  0  0  0  0  0  0  0  0
   -9.8216    5.8946   27.1241 C   0  0  0  0  0  0  0  0  0  0  0  0
   -9.1445    2.6271   25.4265 C   0  0  1  0  0  0  0  0  0  0  0  0
   -8.6278    1.4932   25.7983 N   0  0  0  0  0  0  0  0  0  0  0  0
   -8.0143    1.3811   26.9280 C   0  0  0  0  0  0  0  0  0  0  0  0
   -7.3147    2.5663   27.4788 C   0  0  0  0  0  0  0  0  0  0  0  0
   -8.8806    0.2985   25.0232 C   0  0  0  0  0  0  0  0  0  0  0  0
   -9.2195    0.4404   23.8376 C   0  0  0  0  0  0  0  0  0  0  0  0
   -9.9024    2.7311   24.2414 C   0  0  0  0  0  0  0  0  0  0  0  0
   -9.9982    1.6456   23.3861 C   0  0  0  0  0  0  0  0  0  0  0  0
   -7.7519    0.3088   27.6124 O   0  0  0  0  0  0  0  0  0  0  0  0
  -10.5808    1.7617   22.0901 C   0  0  0  0  0  0  0  0  0  0  0  0
  -10.7458    0.6488   21.3335 C   0  0  0  0  0  0  0  0  0  0  0  0
  -10.1988   -0.5368   21.7892 C   0  0  0  0  0  0  0  0  0  0  0  0
   -9.4601   -0.6791   22.9252 C   0  0  0  0  0  0  0  0  0  0  0  0
  -10.2389   -1.6934   20.7647 C   0  0  0  0  0  0  0  0  0  0  0  0
  -10.8693   -1.6061   19.7184 C   0  0  0  0  0  0  0  0  0  0  0  0
  -11.4980   -0.3306   19.3281 C   0  0  0  0  0  0  0  0  0  0  0  0
  -11.3750    0.7506   20.0771 C   0  0  0  0  0  0  0  0  0  0  0  0
  3  7  1  0
  7  8  1  0
  8  9  1  0
  1 10  1  0
  9 10  1  0
  8 11  1  0
  7 13  1  1
  9 15  2  0
 13 14  1  0
 12 11  1  0
 12 14  2  0
 14 16  1  0
 16 17  2  0
 18 19  2  0
 19 12  1  0
 17 18  1  0
 18 20  1  0
 20 21  2  0
 21 22  1  0
 22 23  2  0
 23 17  1  0
  1  2  2  0
  2  5  1  0
  5  6  2  0
  6  4  1  0
  4  3  2  0
  3  1  1  0
M  END
$$$$
