No_3-complexes_sdf/6BKW-FPZ/2024-09-17-14-21-01/
     RDKit          3D

 13 14  0  0  0  0  0  0  0  0999 V2000
   -7.7129    4.2099   27.0854 C   0  0  0  0  0  0  0  0  0  0  0  0
   -8.9133    4.4736   27.0998 C   0  0  0  0  0  0  0  0  0  0  0  0
   -9.7937    3.7367   26.2091 C   0  0  0  0  0  0  0  0  0  0  0  0
   -7.2495    2.8647   26.8496 C   0  0  0  0  0  0  0  0  0  0  0  0
   -8.1891    1.9790   26.3454 C   0  0  0  0  0  0  0  0  0  0  0  0
   -9.4252    2.4603   26.0121 C   0  0  0  0  0  0  0  0  0  0  0  0
   -9.3199    5.9662   27.2512 C   0  0  0  0  0  0  0  0  0  0  0  0
   -7.9765    0.5431   26.1613 C   0  0  0  0  0  0  0  0  0  0  0  0
   -8.4436   -0.0904   25.2378 C   0  0  0  0  0  0  0  0  0  0  0  0
   -9.6017    0.4889   24.5366 C   0  0  0  0  0  0  0  0  0  0  0  0
  -10.1080    1.6797   25.0050 C   0  0  0  0  0  0  0  0  0  0  0  0
   -8.5035    6.9835   27.2169 N   0  0  0  0  0  0  0  0  0  0  0  0
   -7.1578    6.7654   27.3040 C   0  0  0  0  0  0  0  0  0  0  0  0
  2  7  1  0
  7 12  1  0
 12 13  1  0
  6 11  1  0
 11 10  2  0
 10  9  1  0
  9  8  2  0
  8  5  1  0
  1  2  2  0
  2  3  1  0
  3  6  2  0
  6  5  1  0
  5  4  2  0
  4  1  1  0
M  END
$$$$
