No_3551-complexes_sdf/6BKW-FPZ/2024-09-17-14-21-01/
     RDKit          3D

 13 13  0  0  0  0  0  0  0  0999 V2000
   -7.9040    3.9820   27.1177 C   0  0  0  0  0  0  0  0  0  0  0  0
   -8.2057    2.8231   26.8733 C   0  0  0  0  0  0  0  0  0  0  0  0
   -7.4766    1.7477   27.4593 C   0  0  0  0  0  0  0  0  0  0  0  0
   -8.7468    5.1251   26.6967 C   0  0  0  0  0  0  0  0  0  0  0  0
   -8.4775    6.4967   27.1056 C   0  0  0  0  0  0  0  0  0  0  0  0
   -6.1172    2.0790   27.8378 C   0  0  0  0  0  0  0  0  0  0  0  0
   -5.2973    0.9841   28.3836 C   0  0  0  0  0  0  0  0  0  0  0  0
   -3.9385    1.2941   28.7026 C   0  0  0  0  0  0  0  0  0  0  0  0
   -9.2730    7.5248   26.6852 C   0  0  0  0  0  0  0  0  0  0  0  0
   -5.8176   -0.3057   28.3860 C   0  0  0  0  0  0  0  0  0  0  0  0
   -5.0164   -1.3156   28.9718 C   0  0  0  0  0  0  0  0  0  0  0  0
   -3.1663    0.2921   29.3092 C   0  0  0  0  0  0  0  0  0  0  0  0
   -3.7296   -1.0150   29.4159 C   0  0  0  0  0  0  0  0  0  0  0  0
  1  2  2  3
  2  3  1  0
  1  4  1  0
  4  5  2  3
  3  6  1  0
  6  7  1  0
  5  9  1  0
  7  8  2  0
  8 12  1  0
 12 13  2  0
 13 11  1  0
 11 10  2  0
 10  7  1  0
M  END
$$$$
