No_3645-complexes_sdf/6BKW-FPZ/2024-09-17-14-21-01/
     RDKit          3D

 15 16  0  0  0  0  0  0  0  0999 V2000
   -7.9040    3.9820   27.1177 C   0  0  0  0  0  0  0  0  0  0  0  0
   -9.0711    4.3164   27.0630 C   0  0  0  0  0  0  0  0  0  0  0  0
   -9.8698    3.9665   25.9495 C   0  0  0  0  0  0  0  0  0  0  0  0
   -7.4046    2.7946   26.4568 C   0  0  0  0  0  0  0  0  0  0  0  0
   -8.3659    2.1310   25.6816 C   0  0  0  0  0  0  0  0  0  0  0  0
  -11.1286    4.5770   25.7029 C   0  0  0  0  0  0  0  0  0  0  0  0
   -9.5689    2.7557   25.3149 C   0  0  0  0  0  0  0  0  0  0  0  0
   -7.1332    4.6827   28.0991 N   0  0  0  0  0  0  0  0  0  0  0  0
   -7.0232    5.7413   28.4105 N   0  0  0  0  0  0  0  0  0  0  0  0
  -10.3984    2.1795   24.3484 C   0  0  0  0  0  0  0  0  0  0  0  0
  -11.3989    2.9946   23.7656 C   0  0  0  0  0  0  0  0  0  0  0  0
  -11.8749    4.1349   24.5961 C   0  0  0  0  0  0  0  0  0  0  0  0
  -12.2733    2.5721   22.7124 C   0  0  0  0  0  0  0  0  0  0  0  0
  -13.0153    1.6844   22.6466 C   0  0  0  0  0  0  0  0  0  0  0  0
  -13.7690    1.3048   21.4641 C   0  0  0  0  0  0  0  0  0  0  0  0
  1  8  1  0
  8  9  1  0
 11 13  1  0
 13 14  2  3
 14 15  1  0
  1  2  2  0
  2  3  1  0
  7  5  1  0
  5  4  2  0
  4  1  1  0
  3  6  2  0
  6 12  1  0
 12 11  2  0
 11 10  1  0
 10  7  2  0
  7  3  1  0
M  END
$$$$
