No_3648-complexes_sdf/6BKW-FPZ/2024-09-17-14-21-01/
     RDKit          3D

 12 13  0  0  0  0  0  0  0  0999 V2000
   -7.9040    3.9820   27.1177 C   0  0  0  0  0  0  0  0  0  0  0  0
   -7.8663    4.8694   27.9238 C   0  0  0  0  0  0  0  0  0  0  0  0
   -7.4547    2.7080   27.4594 C   0  0  0  0  0  0  0  0  0  0  0  0
   -8.7044    6.0412   27.8492 C   0  0  0  0  0  0  0  0  0  0  0  0
   -7.9501    1.5743   26.8848 C   0  0  0  0  0  0  0  0  0  0  0  0
   -8.8711    1.7575   25.8527 C   0  0  0  0  0  0  0  0  0  0  0  0
   -9.3498    0.5804   25.1951 C   0  0  0  0  0  0  0  0  0  0  0  0
   -9.0292    3.8650   26.1821 C   0  0  0  0  0  0  0  0  0  0  0  0
   -9.4003    2.8718   25.4711 C   0  0  0  0  0  0  0  0  0  0  0  0
   -9.5268    5.2770   26.0375 C   0  0  0  0  0  0  0  0  0  0  0  0
   -9.4045    6.3268   26.7995 C   0  0  0  0  0  0  0  0  0  0  0  0
   -9.4550   -0.5649   25.8029 C   0  0  0  0  0  0  0  0  0  0  0  0
  6  7  1  0
  7 12  2  0
  1  2  2  0
  2  4  1  0
  4 11  2  0
 11 10  1  0
 10  8  2  0
  1  3  1  0
  3  5  2  0
  5  6  1  0
  6  9  2  0
  9  8  1  0
  8  1  1  0
M  END
$$$$
