No_3566-complexes_sdf/6BKW-FPZ/2024-09-17-14-21-01/
     RDKit          3D

 14 15  0  0  0  0  0  0  0  0999 V2000
   -7.2496    3.8871   27.4508 C   0  0  0  0  0  0  0  0  0  0  0  0
   -8.5096    4.0291   27.2770 C   0  0  0  0  0  0  0  0  0  0  0  0
   -9.3451    2.8786   26.9046 C   0  0  0  0  0  0  0  0  0  0  0  0
   -6.6065    2.5680   27.5073 C   0  0  0  0  0  0  0  0  0  0  0  0
   -7.3970    1.4834   27.2271 C   0  0  0  0  0  0  0  0  0  0  0  0
   -8.7029    1.6398   26.9934 C   0  0  0  0  0  0  0  0  0  0  0  0
   -8.9278    5.4720   27.2132 C   0  0  0  0  0  0  0  0  0  0  0  0
   -8.1425    6.5414   27.4175 C   0  0  0  0  0  0  0  0  0  0  0  0
   -8.6771    7.8326   27.3104 C   0  0  0  0  0  0  0  0  0  0  0  0
   -6.7679    0.1794   27.2865 C   0  0  0  0  0  0  0  0  0  0  0  0
   -5.5219    0.0456   27.8253 C   0  0  0  0  0  0  0  0  0  0  0  0
   -4.7808    1.2736   28.1778 C   0  0  0  0  0  0  0  0  0  0  0  0
   -5.3046    2.4401   28.0404 N   0  0  0  0  0  0  0  0  0  0  0  0
   -3.5123    1.1528   28.6621 N   0  0  0  0  0  0  0  0  0  0  0  0
  2  7  1  0
  7  8  2  3
  8  9  1  0
 12 14  1  0
  5 10  2  0
 10 11  1  0
 11 12  2  0
 12 13  1  0
 13  4  2  0
  1  2  2  0
  2  3  1  0
  3  6  2  0
  6  5  1  0
  5  4  1  0
  4  1  1  0
M  END
$$$$
