No_364-complexes_sdf/6BKW-FPZ/2024-09-17-14-21-01/
     RDKit          3D

 33 35  0  0  0  0  0  0  0  0999 V2000
   -7.9040    3.9820   27.1177 C   0  0  0  0  0  0  0  0  0  0  0  0
   -7.8663    4.8694   27.9238 C   0  0  0  0  0  0  0  0  0  0  0  0
   -9.0501    3.8017   26.2617 C   0  0  0  0  0  0  0  0  0  0  0  0
   -9.1826    2.7026   25.3575 C   0  0  0  0  0  0  0  0  0  0  0  0
   -8.6940    6.0131   27.8614 C   0  0  0  0  0  0  0  0  0  0  0  0
   -9.9755    4.8547   26.2361 C   0  0  0  0  0  0  0  0  0  0  0  0
   -9.7463    5.9398   27.0364 C   0  0  0  0  0  0  0  0  0  0  0  0
  -10.1421    1.8836   25.6653 C   0  0  2  0  0  0  0  0  0  0  0  0
  -10.1365    0.7474   25.0041 C   0  0  0  0  0  0  0  0  0  0  0  0
   -9.9220    0.7115   23.8894 C   0  0  0  0  0  0  0  0  0  0  0  0
   -9.4726   -0.5192   23.2172 C   0  0  0  0  0  0  0  0  0  0  0  0
   -9.5927   -1.6768   23.8559 C   0  0  0  0  0  0  0  0  0  0  0  0
  -10.1186   -0.6037   25.6747 C   0  0  0  0  0  0  0  0  0  0  0  0
   -9.8690   -1.7527   25.1435 C   0  0  0  0  0  0  0  0  0  0  0  0
  -11.5781    2.5216   25.4752 C   0  0  0  0  0  0  0  0  0  0  0  0
  -12.3780    2.6080   26.6076 C   0  0  0  0  0  0  0  0  0  0  0  0
  -12.0031    2.1105   27.8972 C   0  0  0  0  0  0  0  0  0  0  0  0
  -12.7822    2.3392   29.0461 C   0  0  0  0  0  0  0  0  0  0  0  0
  -13.1532    1.7455   29.8088 C   0  0  0  0  0  0  0  0  0  0  0  0
  -12.8597    3.9050   29.1870 C   0  0  0  0  0  0  0  0  0  0  0  0
  -14.3601    1.6153   30.0077 C   0  0  0  0  0  0  0  0  0  0  0  0
  -14.9327    0.6347   30.8406 C   0  0  0  0  0  0  0  0  0  0  0  0
  -10.4415   -0.5539   27.2346 C   0  0  0  0  0  0  0  0  0  0  0  0
   -9.5690   -1.3917   28.1170 C   0  0  0  0  0  0  0  0  0  0  0  0
  -10.2345   -2.2486   28.9947 C   0  0  0  0  0  0  0  0  0  0  0  0
   -8.2264   -1.2832   28.0096 C   0  0  0  0  0  0  0  0  0  0  0  0
   -7.4378   -0.3351   27.2964 C   0  0  0  0  0  0  0  0  0  0  0  0
   -6.0394   -0.3496   27.4295 C   0  0  0  0  0  0  0  0  0  0  0  0
   -5.4291   -1.1663   28.3323 C   0  0  0  0  0  0  0  0  0  0  0  0
   -7.4658   -2.0661   29.0013 C   0  0  0  0  0  0  0  0  0  0  0  0
   -6.1118   -1.9803   29.1530 C   0  0  0  0  0  0  0  0  0  0  0  0
   -9.5404   -3.0349   29.9003 C   0  0  0  0  0  0  0  0  0  0  0  0
   -8.2031   -2.8933   29.9562 C   0  0  0  0  0  0  0  0  0  0  0  0
  3  4  1  0
  8  4  1  6
  8  9  1  0
  8 15  1  0
 15 16  2  3
 16 17  1  0
 17 18  1  0
 18 19  2  3
 18 20  1  0
 19 21  1  0
 21 22  1  0
 13 23  1  0
 23 24  1  0
 24 25  2  3
 24 26  1  0
 25 32  1  0
 32 33  2  0
 26 27  2  0
 27 28  1  0
 28 29  2  0
 29 31  1  0
 31 30  2  0
 30 26  1  0
  9 10  2  0
 10 11  1  0
 11 12  2  0
 12 14  1  0
 14 13  2  0
 13  9  1  0
  1  2  2  0
  2  5  1  0
  5  7  2  0
  7  6  1  0
  6  3  2  0
  3  1  1  0
M  END
$$$$
