No_386-complexes_sdf/6BKW-FPZ/2024-09-17-14-21-01/
     RDKit          3D

 17 19  0  0  0  0  0  0  0  0999 V2000
   -7.2496    3.8871   27.4508 C   0  0  0  0  0  0  0  0  0  0  0  0
   -8.5096    4.0291   27.2770 C   0  0  0  0  0  0  0  0  0  0  0  0
   -9.2669    5.1645   27.5845 C   0  0  0  0  0  0  0  0  0  0  0  0
  -10.6621    5.2321   27.4284 C   0  0  0  0  0  0  0  0  0  0  0  0
   -9.2831    2.8719   26.7564 C   0  0  0  0  0  0  0  0  0  0  0  0
   -8.5831    1.7059   26.4529 C   0  0  0  0  0  0  0  0  0  0  0  0
   -6.5620    4.9390   28.0359 N   0  0  0  0  0  0  0  0  0  0  0  0
  -11.3698    4.1325   26.9381 C   0  0  0  0  0  0  0  0  0  0  0  0
  -10.6937    2.9741   26.6062 C   0  0  0  0  0  0  0  0  0  0  0  0
   -6.5161    2.6861   27.3151 C   0  0  0  0  0  0  0  0  0  0  0  0
   -9.2155    0.5149   25.9598 C   0  0  0  0  0  0  0  0  0  0  0  0
   -7.1881    1.5914   26.7997 C   0  0  0  0  0  0  0  0  0  0  0  0
  -10.1870   -0.0191   26.2989 C   0  0  0  0  0  0  0  0  0  0  0  0
  -10.8055   -1.1197   25.8175 C   0  0  0  0  0  0  0  0  0  0  0  0
   -8.6459    0.0484   24.7031 C   0  0  0  0  0  0  0  0  0  0  0  0
   -9.1616   -0.9833   24.0410 C   0  0  0  0  0  0  0  0  0  0  0  0
  -10.2680   -1.6063   24.6351 C   0  0  0  0  0  0  0  0  0  0  0  0
  1  7  1  0
  6 11  1  0
  2  3  1  0
  3  4  2  0
  4  8  1  0
  8  9  2  0
  9  5  1  0
 11 13  2  0
 13 14  1  0
 14 17  2  0
 17 16  1  0
 16 15  2  0
 15 11  1  0
  1  2  2  0
  2  5  1  0
  5  6  2  0
  6 12  1  0
 12 10  2  0
 10  1  1  0
M  END
$$$$
