No_3125-complexes_sdf/6BKW-FPZ/2024-09-17-14-21-01/
     RDKit          3D

 17 18  0  0  0  0  0  0  0  0999 V2000
   -7.2496    3.8871   27.4508 C   0  0  0  0  0  0  0  0  0  0  0  0
   -8.5096    4.0291   27.2770 C   0  0  0  0  0  0  0  0  0  0  0  0
   -9.2669    5.1645   27.5845 C   0  0  0  0  0  0  0  0  0  0  0  0
   -8.4566    6.3212   27.8001 C   0  0  0  0  0  0  0  0  0  0  0  0
   -6.4921    5.0197   27.7961 C   0  0  0  0  0  0  0  0  0  0  0  0
   -7.1702    6.2351   27.9936 C   0  0  0  0  0  0  0  0  0  0  0  0
   -9.3421    2.7548   27.0159 C   0  0  0  0  0  0  0  0  0  0  0  0
  -10.5578    2.6351   27.3780 C   0  0  0  0  0  0  0  0  0  0  0  0
  -11.1440    3.7147   28.1792 C   0  0  0  0  0  0  0  0  0  0  0  0
  -10.6239    5.0304   27.9651 N   0  0  0  0  0  0  0  0  0  0  0  0
   -8.6809    1.6670   26.3171 C   0  0  0  0  0  0  0  0  0  0  0  0
   -7.8198    0.9602   26.9396 F   0  0  0  0  0  0  0  0  0  0  0  0
   -9.6335    0.7372   25.9348 F   0  0  0  0  0  0  0  0  0  0  0  0
   -8.1355    2.1827   25.1675 F   0  0  0  0  0  0  0  0  0  0  0  0
  -12.4932    3.6614   28.7628 C   0  0  0  0  0  0  0  0  0  0  0  0
  -13.4680    4.4267   28.5577 C   0  0  0  0  0  0  0  0  0  0  0  0
  -14.6998    4.4438   29.2080 C   0  0  0  0  0  0  0  0  0  0  0  0
  7 11  1  0
 11 12  1  0
 11 13  1  0
 11 14  1  0
  9 15  1  0
 15 16  2  3
 16 17  1  0
  1  2  2  0
  3  4  2  0
  4  6  1  0
  6  5  2  0
  5  1  1  0
  2  3  1  0
  3 10  1  0
 10  9  2  0
  9  8  1  0
  8  7  2  0
  7  2  1  0
M  END
$$$$
