No_3739-complexes_sdf/6BKW-FPZ/2024-09-17-14-21-01/
     RDKit          3D

 28 31  0  0  0  0  0  0  0  0999 V2000
   -7.7129    4.2099   27.0854 C   0  0  0  0  0  0  0  0  0  0  0  0
   -8.9133    4.4736   27.0998 C   0  0  0  0  0  0  0  0  0  0  0  0
   -9.4616    5.6470   27.6290 C   0  0  0  0  0  0  0  0  0  0  0  0
   -6.8722    5.1130   27.9248 C   0  0  0  0  0  0  0  0  0  0  0  0
   -7.3801    6.2535   28.4126 C   0  0  0  0  0  0  0  0  0  0  0  0
   -8.6734    6.5530   28.2150 C   0  0  0  0  0  0  0  0  0  0  0  0
   -9.8157    3.4887   26.3527 C   0  0  1  0  0  0  0  0  0  0  0  0
   -9.9163    3.5906   24.9383 C   0  0  0  0  0  0  0  0  0  0  0  0
  -10.4747    2.6520   24.1583 C   0  0  0  0  0  0  0  0  0  0  0  0
  -10.4498    2.8168   22.7185 C   0  0  0  0  0  0  0  0  0  0  0  0
  -10.3429    4.1177   22.1953 C   0  0  0  0  0  0  0  0  0  0  0  0
  -10.1255    5.2170   23.1142 C   0  0  0  0  0  0  0  0  0  0  0  0
   -9.9464    5.0235   24.4835 C   0  0  0  0  0  0  0  0  0  0  0  0
   -9.3890    2.0211   26.7142 C   0  0  0  0  0  0  0  0  0  0  0  0
   -9.4721    1.1460   26.1585 C   0  0  0  0  0  0  0  0  0  0  0  0
   -9.9822    1.2105   24.5963 C   0  0  0  0  0  0  0  0  0  0  0  0
  -11.2975    3.6212   26.9456 C   0  0  0  0  0  0  0  0  0  0  0  0
  -12.2352    4.0094   26.5537 C   0  0  0  0  0  0  0  0  0  0  0  0
  -13.4859    4.1807   27.2639 C   0  0  0  0  0  0  0  0  0  0  0  0
  -13.2775    3.8238   28.5972 C   0  0  0  0  0  0  0  0  0  0  0  0
  -11.5184    3.3923   28.4911 C   0  0  0  0  0  0  0  0  0  0  0  0
  -13.8622    3.7208   29.8165 C   0  0  0  0  0  0  0  0  0  0  0  0
  -14.8063    4.5827   30.0684 N   0  0  0  0  0  0  0  0  0  0  0  0
  -13.3132    3.0912   30.8453 N   0  0  0  0  0  0  0  0  0  0  0  0
  -15.4778    5.4001   29.2807 C   0  0  0  0  0  0  0  0  0  0  0  0
  -16.7180    5.2312   29.0659 C   0  0  0  0  0  0  0  0  0  0  0  0
  -17.4331    4.3575   29.3563 C   0  0  0  0  0  0  0  0  0  0  0  0
  -17.2755    3.5576   30.2110 C   0  0  0  0  0  0  0  0  0  0  0  0
  7  2  1  1
  7  8  1  0
  7 14  1  0
  9 16  1  0
 15 16  1  0
  7 17  1  0
 17 18  2  0
 18 19  1  0
 19 20  2  0
 17 21  1  0
 20 21  1  0
 20 22  1  0
 22 23  2  3
 22 24  1  0
 23 25  1  0
 25 26  1  0
 26 27  1  0
 27 28  2  0
 15 14  1  0
  1  2  2  0
  2  3  1  0
  3  6  2  0
  6  5  1  0
  5  4  2  0
  4  1  1  0
  8 13  1  0
 13 12  2  0
 12 11  1  0
 11 10  2  0
 10  9  1  0
  9  8  2  0
M  END
$$$$
