No_3794-complexes_sdf/6BKW-FPZ/2024-09-17-14-21-01/
     RDKit          3D

 40 43  0  0  0  0  0  0  0  0999 V2000
   -7.7129    4.2099   27.0854 C   0  0  0  0  0  0  0  0  0  0  0  0
   -8.2112    3.0637   26.9225 C   0  0  0  0  0  0  0  0  0  0  0  0
   -9.4446    2.8304   26.1868 C   0  0  0  0  0  0  0  0  0  0  0  0
   -8.4697    5.3956   26.7238 C   0  0  0  0  0  0  0  0  0  0  0  0
   -8.0091    6.7588   26.9904 C   0  0  0  0  0  0  0  0  0  0  0  0
  -10.1208    3.9213   25.7408 C   0  0  0  0  0  0  0  0  0  0  0  0
   -9.5939    5.2027   25.9665 C   0  0  0  0  0  0  0  0  0  0  0  0
   -8.5074    7.7344   26.5937 F   0  0  0  0  0  0  0  0  0  0  0  0
   -6.6310    6.8152   26.8460 F   0  0  0  0  0  0  0  0  0  0  0  0
   -7.3376    1.6211   27.4767 Cl  0  0  0  0  0  0  0  0  0  0  0  0
  -11.3209    3.8204   24.9482 C   0  0  0  0  0  0  0  0  0  0  0  0
  -11.3143    3.6410   23.6709 N   0  0  0  0  0  0  0  0  0  0  0  0
  -10.3522    3.6472   22.9405 C   0  0  0  0  0  0  0  0  0  0  0  0
  -10.4921    3.3415   21.6523 C   0  0  0  0  0  0  0  0  0  0  0  0
  -12.3581    3.0707   22.9286 C   0  0  0  0  0  0  0  0  0  0  0  0
   -9.5877    3.3145   20.5407 C   0  0  0  0  0  0  0  0  0  0  0  0
  -11.8585    3.0285   21.5607 C   0  0  0  0  0  0  0  0  0  0  0  0
  -12.4188    4.0236   25.6253 O   0  0  0  0  0  0  0  0  0  0  0  0
   -7.9704    6.7427   28.4649 F   0  0  0  0  0  0  0  0  0  0  0  0
  -10.0360    3.4152   19.3871 F   0  0  0  0  0  0  0  0  0  0  0  0
   -8.7245    4.4796   20.6331 F   0  0  0  0  0  0  0  0  0  0  0  0
   -8.7918    2.2499   20.6719 F   0  0  0  0  0  0  0  0  0  0  0  0
   -9.8875    1.4814   25.8931 C   0  0  2  0  0  0  0  0  0  0  0  0
  -10.6792    0.7714   26.7153 C   0  0  0  0  0  0  0  0  0  0  0  0
  -11.0563   -0.5453   26.5046 C   0  0  0  0  0  0  0  0  0  0  0  0
  -11.8105   -1.1787   27.5341 C   0  0  0  0  0  0  0  0  0  0  0  0
  -12.2839   -0.4892   28.3759 C   0  0  0  0  0  0  0  0  0  0  0  0
  -12.0672    0.8771   28.7177 C   0  0  0  0  0  0  0  0  0  0  0  0
  -11.2225    1.5443   27.8522 C   0  0  0  0  0  0  0  0  0  0  0  0
   -9.3854    0.8807   24.6872 C   0  0  0  0  0  0  0  0  0  0  0  0
  -13.2350   -1.1706   29.5173 C   0  0  0  0  0  0  0  0  0  0  0  0
  -12.7749   -1.7450   30.3511 O   0  0  0  0  0  0  0  0  0  0  0  0
  -14.4868   -0.9710   29.3090 O   0  0  0  0  0  0  0  0  0  0  0  0
  -10.0707    0.5197   23.6379 C   0  0  0  0  0  0  0  0  0  0  0  0
   -9.5159   -0.2733   22.6133 C   0  0  0  0  0  0  0  0  0  0  0  0
   -8.1138   -0.5131   22.6302 C   0  0  0  0  0  0  0  0  0  0  0  0
   -7.3234   -0.1267   23.7318 C   0  0  0  0  0  0  0  0  0  0  0  0
   -7.9131    0.4886   24.7733 C   0  0  0  0  0  0  0  0  0  0  0  0
   -5.9219   -0.5025   23.7039 C   0  0  0  0  0  0  0  0  0  0  0  0
   -5.5975   -1.6620   23.1296 N   0  0  0  0  0  0  0  0  0  0  0  0
  4  5  1  0
  5  8  1  0
  5  9  1  0
  2 10  1  0
  6 11  1  0
 11 12  1  0
 12 13  1  0
 13 14  2  0
 12 15  1  0
 14 16  1  0
 14 17  1  0
 15 17  2  0
 11 18  2  0
  5 19  1  0
 16 20  1  0
 16 21  1  0
 16 22  1  0
 23  3  1  1
 23 30  1  0
 27 31  1  0
 31 32  2  0
 31 33  1  0
 37 39  1  0
 39 40  1  0
 23 24  1  0
  1  2  2  0
  2  3  1  0
  3  6  2  0
  6  7  1  0
  7  4  2  0
  4  1  1  0
 24 25  2  0
 25 26  1  0
 26 27  2  0
 27 28  1  0
 28 29  2  0
 29 24  1  0
 30 34  2  0
 34 35  1  0
 35 36  2  0
 36 37  1  0
 37 38  2  0
 38 30  1  0
M  END
$$$$
