No_3369-complexes_sdf/6BKW-FPZ/2024-09-17-14-21-01/
     RDKit          3D

 14 15  0  0  0  0  0  0  0  0999 V2000
   -7.7129    4.2099   27.0854 C   0  0  0  0  0  0  0  0  0  0  0  0
   -7.7814    5.1722   27.8972 C   0  0  0  0  0  0  0  0  0  0  0  0
   -8.8998    3.8713   26.3707 C   0  0  0  0  0  0  0  0  0  0  0  0
   -8.9563    2.6796   25.5490 C   0  0  0  0  0  0  0  0  0  0  0  0
   -8.8501    6.0071   27.8467 N   0  0  0  0  0  0  0  0  0  0  0  0
   -9.9490    5.7837   27.2002 C   0  0  0  0  0  0  0  0  0  0  0  0
   -9.9821    4.6597   26.4501 C   0  0  0  0  0  0  0  0  0  0  0  0
   -9.6408    1.7833   26.0445 C   0  0  0  0  0  0  0  0  0  0  0  0
   -9.6571    0.4767   25.3927 C   0  0  0  0  0  0  0  0  0  0  0  0
  -10.1885   -0.5526   26.0840 C   0  0  0  0  0  0  0  0  0  0  0  0
  -10.8333   -0.4006   27.3545 C   0  0  0  0  0  0  0  0  0  0  0  0
  -10.8135    0.8446   27.9568 C   0  0  0  0  0  0  0  0  0  0  0  0
  -10.1783    1.8945   27.4323 C   0  0  0  0  0  0  0  0  0  0  0  0
   -6.7280    5.6529   28.6500 N   0  0  0  0  0  0  0  0  0  0  0  0
  3  4  1  0
  4  8  1  0
  2 14  1  0
  8  9  2  0
  9 10  1  0
 10 11  2  0
 11 12  1  0
 12 13  2  0
 13  8  1  0
  1  2  2  0
  2  5  1  0
  5  6  2  0
  6  7  1  0
  7  3  2  0
  3  1  1  0
M  END
$$$$
