No_3599-complexes_sdf/6BKW-FPZ/2024-09-17-14-21-01/
     RDKit          3D

 22 24  0  0  0  0  0  0  0  0999 V2000
   -7.9040    3.9820   27.1177 C   0  0  0  0  0  0  0  0  0  0  0  0
   -7.8663    4.8694   27.9238 C   0  0  0  0  0  0  0  0  0  0  0  0
   -9.0501    3.8017   26.2617 C   0  0  0  0  0  0  0  0  0  0  0  0
  -10.0189    4.7608   26.3707 C   0  0  0  0  0  0  0  0  0  0  0  0
   -8.6770    5.9780   27.9222 C   0  0  0  0  0  0  0  0  0  0  0  0
   -9.8040    5.8752   27.0958 C   0  0  0  0  0  0  0  0  0  0  0  0
   -9.1317    2.6414   25.4147 C   0  0  0  0  0  0  0  0  0  0  0  0
  -10.0093    2.7245   24.3328 C   0  0  0  0  0  0  0  0  0  0  0  0
  -10.7008    3.9135   24.1684 C   0  0  0  0  0  0  0  0  0  0  0  0
  -10.8520    4.8547   25.2352 N   0  0  0  0  0  0  0  0  0  0  0  0
  -11.6629    3.9719   23.2163 N   0  0  0  0  0  0  0  0  0  0  0  0
  -11.4730    3.4078   22.0256 C   0  0  0  0  0  0  0  0  0  0  0  0
  -10.6798    2.2314   22.0973 C   0  0  0  0  0  0  0  0  0  0  0  0
   -9.8675    1.8896   23.2187 C   0  0  0  0  0  0  0  0  0  0  0  0
   -6.9751    2.9200   27.2125 O   0  0  0  0  0  0  0  0  0  0  0  0
   -6.5851    2.2513   28.2232 C   0  0  0  0  0  0  0  0  0  0  0  0
   -5.4650    1.2702   27.6876 C   0  0  0  0  0  0  0  0  0  0  0  0
   -4.8892    0.5349   28.7251 C   0  0  0  0  0  0  0  0  0  0  0  0
   -4.1079    0.0536   29.1338 C   0  0  0  0  0  0  0  0  0  0  0  0
   -3.3684   -0.7745   30.1660 C   0  0  0  0  0  0  0  0  0  0  0  0
   -2.3032   -1.1886   29.8093 N   0  0  0  0  0  0  0  0  0  0  0  0
   -1.9406   -0.7562   28.5636 C   0  0  0  0  0  0  0  0  0  0  0  0
  1 15  1  0
 15 16  1  0
 16 17  1  0
 17 18  1  0
 18 19  3  0
 19 20  1  0
 20 21  1  0
 21 22  2  0
  4 10  2  0
 10  9  1  0
  8  7  1  0
  7  3  2  0
  8  9  2  0
  9 11  1  0
 11 12  2  0
 12 13  1  0
 13 14  2  0
 14  8  1  0
  1  2  2  0
  2  5  1  0
  5  6  2  0
  6  4  1  0
  4  3  1  0
  3  1  1  0
M  END
$$$$
