No_3977-complexes_sdf/6BKW-FPZ/2024-09-17-14-21-01/
     RDKit          3D

 24 26  0  0  0  0  0  0  0  0999 V2000
   -7.9040    3.9820   27.1177 C   0  0  0  0  0  0  0  0  0  0  0  0
   -8.2057    2.8231   26.8733 C   0  0  0  0  0  0  0  0  0  0  0  0
   -7.4766    1.7477   27.4593 C   0  0  0  0  0  0  0  0  0  0  0  0
   -8.7468    5.1251   26.6967 C   0  0  0  0  0  0  0  0  0  0  0  0
   -9.7234    4.8589   25.8202 C   0  0  0  0  0  0  0  0  0  0  0  0
   -9.9711    3.5858   25.4266 C   0  0  0  0  0  0  0  0  0  0  0  0
   -9.2266    2.4957   25.9600 C   0  0  0  0  0  0  0  0  0  0  0  0
   -7.8826    0.4491   27.3570 N   0  0  0  0  0  0  0  0  0  0  0  0
   -9.0871    0.1761   27.3809 C   0  0  0  0  0  0  0  0  0  0  0  0
   -6.1930    2.0003   27.7510 O   0  0  0  0  0  0  0  0  0  0  0  0
   -8.3891    6.5214   27.0887 C   0  0  0  0  0  0  0  0  0  0  0  0
   -7.3317    6.7943   27.0046 F   0  0  0  0  0  0  0  0  0  0  0  0
   -9.2395    7.3976   26.3606 F   0  0  0  0  0  0  0  0  0  0  0  0
   -8.9739    6.6018   28.3737 F   0  0  0  0  0  0  0  0  0  0  0  0
   -9.5915   -0.9120   26.9174 C   0  0  0  0  0  0  0  0  0  0  0  0
   -8.6999   -1.8445   26.5548 C   0  0  0  0  0  0  0  0  0  0  0  0
   -7.1566   -0.6188   26.8628 C   0  0  0  0  0  0  0  0  0  0  0  0
   -7.4903   -1.7538   26.4535 C   0  0  0  0  0  0  0  0  0  0  0  0
  -11.0932    3.2076   24.5606 C   0  0  0  0  0  0  0  0  0  0  0  0
  -11.2000    3.8491   23.3701 C   0  0  0  0  0  0  0  0  0  0  0  0
  -12.2098    3.5809   22.4196 C   0  0  0  0  0  0  0  0  0  0  0  0
  -13.1003    2.5703   22.7262 C   0  0  0  0  0  0  0  0  0  0  0  0
  -12.1389    2.3333   24.8698 C   0  0  0  0  0  0  0  0  0  0  0  0
  -13.0639    1.9985   23.9802 C   0  0  0  0  0  0  0  0  0  0  0  0
  2  3  1  0
  3  8  1  0
  8  9  1  0
  3 10  2  0
  4 11  1  0
 11 12  1  0
 11 13  1  0
 11 14  1  0
 15 16  1  0
  8 17  1  0
  6 19  1  0
  9 15  1  0
 16 18  1  0
 18 17  1  0
 19 20  2  0
 20 21  1  0
 21 22  2  0
 22 24  1  0
 24 23  2  0
 23 19  1  0
  1  2  2  0
  2  7  1  0
  7  6  2  0
  6  5  1  0
  5  4  2  0
  4  1  1  0
M  END
$$$$
