No_3171-complexes_sdf/6BKW-FPZ/2024-09-17-14-21-01/
     RDKit          3D

 14 15  0  0  0  0  0  0  0  0999 V2000
   -7.2496    3.8871   27.4508 C   0  0  0  0  0  0  0  0  0  0  0  0
   -7.9379    4.9063   27.8518 C   0  0  0  0  0  0  0  0  0  0  0  0
   -9.3460    4.8223   27.8695 C   0  0  0  0  0  0  0  0  0  0  0  0
   -7.8628    2.6163   27.1065 C   0  0  0  0  0  0  0  0  0  0  0  0
   -9.2787    2.5744   27.1970 C   0  0  0  0  0  0  0  0  0  0  0  0
  -10.0108    3.6770   27.6340 C   0  0  0  0  0  0  0  0  0  0  0  0
  -11.4834    3.5674   27.7432 C   0  0  0  0  0  0  0  0  0  0  0  0
  -11.9462    2.7662   28.4672 N   0  0  0  0  0  0  0  0  0  0  0  0
  -11.4690    1.6898   28.8764 C   0  0  0  0  0  0  0  0  0  0  0  0
  -13.2632    3.0830   29.1319 C   0  0  0  0  0  0  0  0  0  0  0  0
  -13.7759    2.3626   29.9902 C   0  0  0  0  0  0  0  0  0  0  0  0
  -12.2460    0.5454   29.3876 C   0  0  0  0  0  0  0  0  0  0  0  0
  -13.3506    0.9603   30.0433 C   0  0  0  0  0  0  0  0  0  0  0  0
  -12.0788    4.4818   27.0623 O   0  0  0  0  0  0  0  0  0  0  0  0
  6  7  1  0
  7  8  1  0
  8  9  1  0
  8 10  1  0
  9 12  1  0
 11 13  1  0
  7 14  2  0
 12 13  1  0
 11 10  1  0
  1  2  2  0
  2  3  1  0
  3  6  2  0
  6  5  1  0
  5  4  2  0
  4  1  1  0
M  END
$$$$
