No_3333-complexes_sdf/6BKW-FPZ/2024-09-17-14-21-01/
     RDKit          3D

 40 43  0  0  0  0  0  0  0  0999 V2000
   -7.9040    3.9820   27.1177 C   0  0  0  0  0  0  0  0  0  0  0  0
   -9.0711    4.3164   27.0630 C   0  0  0  0  0  0  0  0  0  0  0  0
   -9.5294    5.4517   27.7215 C   0  0  0  0  0  0  0  0  0  0  0  0
   -6.9328    4.7309   27.8881 C   0  0  0  0  0  0  0  0  0  0  0  0
   -7.3666    5.8455   28.5488 C   0  0  0  0  0  0  0  0  0  0  0  0
   -8.6669    6.2428   28.4199 C   0  0  0  0  0  0  0  0  0  0  0  0
   -9.8911    3.3806   26.1705 C   0  0  0  0  0  0  0  0  0  0  0  0
   -9.5674    2.2237   25.8663 C   0  0  0  0  0  0  0  0  0  0  0  0
   -8.9650    1.5090   26.7522 C   0  0  0  0  0  0  0  0  0  0  0  0
   -8.8090    0.0735   26.5716 C   0  0  0  0  0  0  0  0  0  0  0  0
   -8.1870   -0.6604   27.6514 C   0  0  0  0  0  0  0  0  0  0  0  0
   -8.5476   -1.9295   27.8414 C   0  0  0  0  0  0  0  0  0  0  0  0
   -8.1123   -2.6050   29.0187 C   0  0  0  0  0  0  0  0  0  0  0  0
   -7.0108   -2.0657   29.7032 C   0  0  0  0  0  0  0  0  0  0  0  0
   -6.4552   -0.8589   29.2879 C   0  0  0  0  0  0  0  0  0  0  0  0
   -7.0070   -0.1397   28.3042 C   0  0  0  0  0  0  0  0  0  0  0  0
  -10.9706    4.1764   25.4368 C   0  0  0  0  0  0  0  0  0  0  0  0
   -9.8742    1.6899   24.5928 C   0  0  0  0  0  0  0  0  0  0  0  0
  -10.6010    2.3218   23.7343 C   0  0  0  0  0  0  0  0  0  0  0  0
  -11.2094    3.6176   24.1408 C   0  0  0  0  0  0  0  0  0  0  0  0
   -8.3839   -0.4011   25.4005 C   0  0  0  0  0  0  0  0  0  0  0  0
   -9.3333    0.2557   24.2678 C   0  0  0  0  0  0  0  0  0  0  0  0
  -10.9989    1.8474   22.3821 C   0  0  0  0  0  0  0  0  0  0  0  0
  -10.7203    2.5008   21.3938 N   0  0  0  0  0  0  0  0  0  0  0  0
  -11.2297    2.3856   20.1567 C   0  0  0  0  0  0  0  0  0  0  0  0
  -11.3930    0.6662   22.2421 O   0  0  0  0  0  0  0  0  0  0  0  0
   -6.3208   -2.9244   31.0508 Cl  0  0  0  0  0  0  0  0  0  0  0  0
   -9.3530    3.1262   21.1989 C   0  0  0  0  0  0  0  0  0  0  0  0
   -5.2041   -0.3419   30.0361 C   0  0  0  0  0  0  0  0  0  0  0  0
   -5.1143   -0.4989   31.2500 F   0  0  0  0  0  0  0  0  0  0  0  0
   -4.9923    1.0377   29.6931 F   0  0  0  0  0  0  0  0  0  0  0  0
   -4.1107   -0.9955   29.4421 F   0  0  0  0  0  0  0  0  0  0  0  0
  -12.1984    4.3468   23.3154 C   0  0  0  0  0  0  0  0  0  0  0  0
   -8.7735   -4.1054   29.4548 Cl  0  0  0  0  0  0  0  0  0  0  0  0
   -5.6915    4.2979   28.0427 F   0  0  0  0  0  0  0  0  0  0  0  0
  -12.4686    3.1146   19.9710 C   0  0  0  0  0  0  0  0  0  0  0  0
  -13.5330    2.4203   20.4322 C   0  0  0  0  0  0  0  0  0  0  0  0
  -14.6789    3.1607   20.5984 C   0  0  0  0  0  0  0  0  0  0  0  0
  -14.8133    4.4331   19.9509 C   0  0  0  0  0  0  0  0  0  0  0  0
  -13.7260    4.9676   19.2972 C   0  0  0  0  0  0  0  0  0  0  0  0
  2  7  1  0
 19 23  1  0
 23 24  1  0
 24 25  1  0
 23 26  2  0
 14 27  1  0
 24 28  1  0
 15 29  1  0
 29 30  1  0
 29 31  1  0
 29 32  1  0
 20 33  1  0
 13 34  1  0
  4 35  1  0
 25 36  1  0
 36 37  1  0
 37 38  2  3
 38 39  1  0
 39 40  2  0
 10 11  1  0
 11 12  2  0
 12 13  1  0
 13 14  2  0
 14 15  1  0
 15 16  2  0
 16 11  1  0
  7  8  1  0
 18 19  1  0
 19 20  2  0
 20 17  1  0
 17  7  2  0
  1  2  2  0
  2  3  1  0
  3  6  2  0
  6  5  1  0
  5  4  2  0
  4  1  1  0
  8  9  2  0
  9 10  1  0
 10 21  2  0
 21 22  1  0
 22 18  2  0
 18  8  1  0
M  END
$$$$
