No_3205-complexes_sdf/6BKW-FPZ/2024-09-17-14-21-01/
     RDKit          3D

 28 30  0  0  0  0  0  0  0  0999 V2000
   -7.9040    3.9820   27.1177 C   0  0  0  0  0  0  0  0  0  0  0  0
   -8.2057    2.8231   26.8733 C   0  0  0  0  0  0  0  0  0  0  0  0
   -8.7695    5.0740   26.7916 C   0  0  0  0  0  0  0  0  0  0  0  0
   -8.4337    6.4678   27.0913 C   0  0  0  0  0  0  0  0  0  0  0  0
   -9.3742    2.4311   26.2346 C   0  0  0  0  0  0  0  0  0  0  0  0
  -10.2395    3.4267   25.8887 C   0  0  0  0  0  0  0  0  0  0  0  0
   -9.9567    4.7548   26.1374 C   0  0  0  0  0  0  0  0  0  0  0  0
   -7.8881    6.8714   28.1602 N   0  0  0  0  0  0  0  0  0  0  0  0
   -8.8350    7.3552   26.2295 O   0  0  0  0  0  0  0  0  0  0  0  0
   -7.2545    1.6772   27.2877 C   0  0  0  0  0  0  0  0  0  0  0  0
   -7.5694    0.4606   27.2697 O   0  0  0  0  0  0  0  0  0  0  0  0
   -6.0735    2.0341   27.9072 N   0  0  0  0  0  0  0  0  0  0  0  0
   -5.0735    1.0673   28.2919 C   0  0  0  0  0  0  0  0  0  0  0  0
   -4.5661    0.3247   27.3306 C   0  0  0  0  0  0  0  0  0  0  0  0
   -3.2452   -0.0107   27.5743 C   0  0  0  0  0  0  0  0  0  0  0  0
   -2.3820   -0.0066   26.4722 C   0  0  0  0  0  0  0  0  0  0  0  0
   -3.0739   -1.3100   28.3906 C   0  0  0  0  0  0  0  0  0  0  0  0
   -3.8155   -1.3225   29.5012 C   0  0  0  0  0  0  0  0  0  0  0  0
   -3.8615   -2.4618   30.2665 C   0  0  0  0  0  0  0  0  0  0  0  0
   -4.6692   -2.3757   31.4552 C   0  0  0  0  0  0  0  0  0  0  0  0
   -5.2822   -3.1781   32.0072 C   0  0  0  0  0  0  0  0  0  0  0  0
   -6.1938   -2.9641   33.1918 C   0  0  0  0  0  0  0  0  0  0  0  0
   -6.2296   -1.6316   33.6857 C   0  0  0  0  0  0  0  0  0  0  0  0
   -5.4993   -0.6487   33.0720 C   0  0  0  0  0  0  0  0  0  0  0  0
   -4.7192   -0.9561   31.9747 C   0  0  0  0  0  0  0  0  0  0  0  0
   -4.0862    0.0860   31.2375 C   0  0  0  0  0  0  0  0  0  0  0  0
   -3.2869   -0.0191   30.3330 C   0  0  0  0  0  0  0  0  0  0  0  0
   -2.4222    1.2420   28.2615 C   0  0  0  0  0  0  0  0  0  0  0  0
  3  4  1  0
  4  8  1  0
  4  9  2  0
  2 10  1  0
 10 11  2  0
 10 12  1  0
 12 13  1  0
 13 14  1  0
 14 15  1  0
 15 16  1  0
 15 17  1  0
 17 18  2  3
 18 19  1  0
 19 20  1  0
 25 26  1  0
 18 27  1  0
 26 27  1  0
 15 28  1  0
  1  2  2  0
  2  5  1  0
  5  6  2  0
  6  7  1  0
  7  3  2  0
  3  1  1  0
 20 21  2  0
 21 22  1  0
 22 23  2  0
 23 24  1  0
 24 25  2  0
 25 20  1  0
M  END
$$$$
