No_3303-complexes_sdf/6BKW-FPZ/2024-09-17-14-21-01/
     RDKit          3D

 28 30  0  0  0  0  0  0  0  0999 V2000
   -7.9040    3.9820   27.1177 C   0  0  0  0  0  0  0  0  0  0  0  0
   -7.8663    4.8694   27.9238 C   0  0  0  0  0  0  0  0  0  0  0  0
   -9.0501    3.8017   26.2617 C   0  0  0  0  0  0  0  0  0  0  0  0
   -9.1826    2.7026   25.3575 C   0  0  0  0  0  0  0  0  0  0  0  0
   -8.6940    6.0131   27.8614 C   0  0  0  0  0  0  0  0  0  0  0  0
   -9.9755    4.8547   26.2361 C   0  0  0  0  0  0  0  0  0  0  0  0
   -9.7463    5.9398   27.0364 C   0  0  0  0  0  0  0  0  0  0  0  0
  -10.0338    2.8000   24.3595 N   0  0  0  0  0  0  0  0  0  0  0  0
  -10.0698    1.7405   23.4973 C   0  0  0  0  0  0  0  0  0  0  0  0
   -9.0333    1.4491   25.8699 C   0  0  0  0  0  0  0  0  0  0  0  0
   -9.0895    0.2933   25.1198 C   0  0  0  0  0  0  0  0  0  0  0  0
   -9.7184    0.4707   23.8650 C   0  0  0  0  0  0  0  0  0  0  0  0
  -10.7478    1.9133   22.3590 F   0  0  0  0  0  0  0  0  0  0  0  0
   -7.0190    2.8786   27.2359 N   0  0  0  0  0  0  0  0  0  0  0  0
   -6.1664    2.7674   28.2949 C   0  0  0  0  0  0  0  0  0  0  0  0
   -4.8112    2.2036   27.7307 C   0  0  0  0  0  0  0  0  0  0  0  0
   -4.4630    1.0312   28.6220 C   0  0  0  0  0  0  0  0  0  0  0  0
   -3.5006    0.1517   28.0984 C   0  0  0  0  0  0  0  0  0  0  0  0
   -2.8703    0.4603   26.8720 C   0  0  0  0  0  0  0  0  0  0  0  0
   -3.1645    1.6721   26.3283 N   0  0  0  0  0  0  0  0  0  0  0  0
   -4.1400    2.3202   26.6434 C   0  0  0  0  0  0  0  0  0  0  0  0
   -2.9385   -0.9710   28.9015 C   0  0  2  0  0  0  0  0  0  0  0  0
   -3.0532   -1.0061   30.0244 O   0  0  0  0  0  0  0  0  0  0  0  0
   -1.9091   -1.4438   28.3800 F   0  0  0  0  0  0  0  0  0  0  0  0
   -2.7119   -1.9242   30.9195 C   0  0  0  0  0  0  0  0  0  0  0  0
   -2.7541   -1.5259   32.2031 C   0  0  0  0  0  0  0  0  0  0  0  0
   -3.2384   -2.2458   33.0186 O   0  0  0  0  0  0  0  0  0  0  0  0
   -1.9486   -0.5089   32.6358 O   0  0  0  0  0  0  0  0  0  0  0  0
  3  4  1  0
  9 13  1  0
  1 14  1  0
 14 15  1  0
 15 16  1  0
 18 22  1  0
 22 23  1  0
 22 24  1  1
 23 25  1  0
 25 26  1  0
 26 27  2  0
 26 28  1  0
  4  8  2  0
  8  9  1  0
  9 12  2  0
 12 11  1  0
 11 10  2  0
 10  4  1  0
  1  2  2  0
  2  5  1  0
  5  7  2  0
  7  6  1  0
  6  3  2  0
  3  1  1  0
 16 17  2  0
 17 18  1  0
 18 19  2  0
 19 20  1  0
 20 21  2  0
 21 16  1  0
M  END
$$$$
