No_3502-complexes_sdf/6BKW-FPZ/2024-09-17-14-21-01/
     RDKit          3D

 23 25  0  0  0  0  0  0  0  0999 V2000
   -7.7129    4.2099   27.0854 C   0  0  0  0  0  0  0  0  0  0  0  0
   -8.2112    3.0637   26.9225 C   0  0  0  0  0  0  0  0  0  0  0  0
   -8.5108    5.3904   26.9436 C   0  0  0  0  0  0  0  0  0  0  0  0
   -9.7256    5.1955   26.3518 C   0  0  0  0  0  0  0  0  0  0  0  0
   -9.4995    2.8258   26.4878 C   0  0  0  0  0  0  0  0  0  0  0  0
  -10.2542    3.9691   26.2055 C   0  0  0  0  0  0  0  0  0  0  0  0
   -7.9135    6.7086   27.1885 C   0  0  0  0  0  0  0  0  0  0  0  0
   -7.3624    1.8198   27.2561 C   0  0  0  0  0  0  0  0  0  0  0  0
   -7.8317    0.5143   27.1524 C   0  0  0  0  0  0  0  0  0  0  0  0
   -6.9670   -0.5025   27.3942 C   0  0  0  0  0  0  0  0  0  0  0  0
   -5.6379   -0.2379   27.7804 C   0  0  0  0  0  0  0  0  0  0  0  0
   -5.1868    1.0717   27.9069 C   0  0  0  0  0  0  0  0  0  0  0  0
   -5.9678    2.0798   27.6374 C   0  0  0  0  0  0  0  0  0  0  0  0
   -8.5914    7.7909   26.8058 N   0  0  0  0  0  0  0  0  0  0  0  0
   -6.8178    6.7947   27.7820 O   0  0  0  0  0  0  0  0  0  0  0  0
   -3.8980    1.3052   28.2817 O   0  0  0  0  0  0  0  0  0  0  0  0
   -2.9506    0.3965   28.1240 C   0  0  0  0  0  0  0  0  0  0  0  0
  -11.5931    3.7968   25.5960 C   0  0  0  0  0  0  0  0  0  0  0  0
  -11.6572    3.2217   24.3697 C   0  0  0  0  0  0  0  0  0  0  0  0
  -12.7402    3.2222   23.6583 C   0  0  0  0  0  0  0  0  0  0  0  0
  -13.9494    3.8463   24.2204 C   0  0  0  0  0  0  0  0  0  0  0  0
  -13.8937    4.4521   25.4610 C   0  0  0  0  0  0  0  0  0  0  0  0
  -12.7000    4.5468   26.1804 C   0  0  0  0  0  0  0  0  0  0  0  0
  3  7  1  0
  2  8  1  0
  7 14  1  0
  7 15  2  0
 12 16  1  0
 16 17  1  0
  6 18  1  0
 18 19  2  0
 19 20  1  0
 20 21  2  0
 21 22  1  0
 22 23  2  0
 23 18  1  0
  8  9  2  0
  9 10  1  0
 10 11  2  0
 11 12  1  0
 12 13  2  0
 13  8  1  0
  1  2  2  0
  2  5  1  0
  5  6  2  0
  6  4  1  0
  4  3  2  0
  3  1  1  0
M  END
$$$$
