No_3028-complexes_sdf/6BKW-FPZ/2024-09-17-14-21-01/
     RDKit          3D

 21 23  0  0  0  0  0  0  0  0999 V2000
   -7.7129    4.2099   27.0854 C   0  0  0  0  0  0  0  0  0  0  0  0
   -7.7814    5.1722   27.8972 C   0  0  0  0  0  0  0  0  0  0  0  0
   -8.8998    3.8713   26.3707 C   0  0  0  0  0  0  0  0  0  0  0  0
   -8.9563    2.6796   25.5490 C   0  0  0  0  0  0  0  0  0  0  0  0
   -8.8131    6.1334   27.9344 C   0  0  0  0  0  0  0  0  0  0  0  0
   -9.9804    5.8121   27.1929 C   0  0  0  0  0  0  0  0  0  0  0  0
   -9.9861    4.6836   26.4532 C   0  0  0  0  0  0  0  0  0  0  0  0
   -9.7347    1.7154   26.0600 C   0  0  0  0  0  0  0  0  0  0  0  0
   -9.5396    0.7709   26.3463 C   0  0  0  0  0  0  0  0  0  0  0  0
   -8.1204    0.2511   26.2704 C   0  0  0  0  0  0  0  0  0  0  0  0
   -7.8537   -1.0614   26.5301 C   0  0  0  0  0  0  0  0  0  0  0  0
   -8.8418   -1.8471   27.1188 C   0  0  0  0  0  0  0  0  0  0  0  0
  -10.1224   -1.4428   27.2987 C   0  0  0  0  0  0  0  0  0  0  0  0
  -10.4528   -0.1362   26.9512 C   0  0  0  0  0  0  0  0  0  0  0  0
  -11.2375    2.0625   25.9138 C   0  0  0  0  0  0  0  0  0  0  0  0
  -11.6327    2.6488   24.9029 C   0  0  0  0  0  0  0  0  0  0  0  0
  -10.9234    2.8344   23.6412 C   0  0  0  0  0  0  0  0  0  0  0  0
  -11.3819    3.7697   22.6775 C   0  0  0  0  0  0  0  0  0  0  0  0
  -13.0267    3.0843   24.8029 C   0  0  0  0  0  0  0  0  0  0  0  0
  -13.5145    3.9723   23.7999 C   0  0  0  0  0  0  0  0  0  0  0  0
  -12.6796    4.2703   22.6965 C   0  0  0  0  0  0  0  0  0  0  0  0
  3  4  1  0
  4  8  1  0
  8  9  1  0
  8 15  1  0
 15 16  1  0
  9 10  2  0
 10 11  1  0
 11 12  2  0
 12 13  1  0
 13 14  2  0
 14  9  1  0
 16 17  2  0
 17 18  1  0
 18 21  2  0
 21 20  1  0
 20 19  2  0
 19 16  1  0
  1  2  2  0
  2  5  1  0
  5  6  2  0
  6  7  1  0
  7  3  2  0
  3  1  1  0
M  END
$$$$
