No_3227-complexes_sdf/6BKW-FPZ/2024-09-17-14-21-01/
     RDKit          3D

 23 25  0  0  0  0  0  0  0  0999 V2000
   -7.7129    4.2099   27.0854 C   0  0  0  0  0  0  0  0  0  0  0  0
   -7.7814    5.1722   27.8972 C   0  0  0  0  0  0  0  0  0  0  0  0
   -8.8255    3.2789   27.1191 C   0  0  0  0  0  0  0  0  0  0  0  0
   -9.9209    3.4734   27.9101 C   0  0  0  0  0  0  0  0  0  0  0  0
   -9.9736    4.7085   28.6831 C   0  0  0  0  0  0  0  0  0  0  0  0
   -8.8840    5.5441   28.6612 C   0  0  0  0  0  0  0  0  0  0  0  0
   -8.7102    2.0171   26.3293 C   0  0  1  0  0  0  0  0  0  0  0  0
   -9.2398    1.9393   25.1560 N   0  0  0  0  0  0  0  0  0  0  0  0
   -9.1849    0.8849   24.3317 C   0  0  2  0  0  0  0  0  0  0  0  0
   -7.9473    0.9476   26.8196 C   0  0  0  0  0  0  0  0  0  0  0  0
   -7.8105   -0.2057   26.0803 C   0  0  0  0  0  0  0  0  0  0  0  0
   -8.4384   -0.1768   24.8052 C   0  0  0  0  0  0  0  0  0  0  0  0
   -9.9588    3.1369   24.5855 C   0  0  0  0  0  0  0  0  0  0  0  0
  -11.2891    3.1928   24.5699 C   0  0  0  0  0  0  0  0  0  0  0  0
  -11.9427    4.2084   24.0044 C   0  0  0  0  0  0  0  0  0  0  0  0
  -11.1608    5.2369   23.2595 C   0  0  0  0  0  0  0  0  0  0  0  0
   -9.8520    5.2269   23.4200 C   0  0  0  0  0  0  0  0  0  0  0  0
   -9.2288    4.1996   24.0153 C   0  0  0  0  0  0  0  0  0  0  0  0
   -9.6440    0.8509   23.2554 F   0  0  0  0  0  0  0  0  0  0  0  0
  -10.9083    2.6915   27.9889 F   0  0  0  0  0  0  0  0  0  0  0  0
  -13.4382    4.3158   23.9901 C   0  0  0  0  0  0  0  0  0  0  0  0
  -14.0862    4.3231   25.1854 C   0  0  0  0  0  0  0  0  0  0  0  0
  -15.4965    4.4873   25.2472 C   0  0  0  0  0  0  0  0  0  0  0  0
  7  3  1  6
  7  8  1  0
  8  9  1  0
  7 10  1  0
 11 12  1  0
  8 13  1  0
  9 19  1  6
  4 20  1  0
 15 21  1  0
 21 22  2  3
 22 23  1  0
 10 11  1  0
 12  9  1  0
 13 14  2  0
 14 15  1  0
 15 16  2  0
 16 17  1  0
 17 18  2  0
 18 13  1  0
  1  2  2  0
  2  6  1  0
  6  5  2  0
  5  4  1  0
  4  3  2  0
  3  1  1  0
M  END
$$$$
