No_3023-complexes_sdf/6BKW-FPZ/2024-09-17-14-21-01/
     RDKit          3D

 22 25  0  0  0  0  0  0  0  0999 V2000
   -7.9040    3.9820   27.1177 C   0  0  0  0  0  0  0  0  0  0  0  0
   -7.8663    4.8694   27.9238 C   0  0  0  0  0  0  0  0  0  0  0  0
   -9.0491    3.8523   26.2542 C   0  0  0  0  0  0  0  0  0  0  0  0
   -9.4067    2.6808   25.6532 C   0  0  0  0  0  0  0  0  0  0  0  0
   -8.5275    6.1191   27.7061 C   0  0  0  0  0  0  0  0  0  0  0  0
   -8.8735    1.4981   26.1333 C   0  0  0  0  0  0  0  0  0  0  0  0
   -7.6937    1.5113   26.9675 C   0  0  0  0  0  0  0  0  0  0  0  0
   -7.3848    2.6763   27.5862 C   0  0  0  0  0  0  0  0  0  0  0  0
   -9.5089    6.2458   26.6322 C   0  0  0  0  0  0  0  0  0  0  0  0
   -9.7479    5.0656   25.9161 C   0  0  0  0  0  0  0  0  0  0  0  0
   -7.0740    0.2514   27.3789 C   0  0  0  0  0  0  0  0  0  0  0  0
   -6.3008   -0.2833   26.7598 C   0  0  0  0  0  0  0  0  0  0  0  0
   -5.5371   -1.4803   27.2229 C   0  0  0  0  0  0  0  0  0  0  0  0
   -5.6918   -1.9015   28.4722 C   0  0  0  0  0  0  0  0  0  0  0  0
   -6.6506   -1.2284   29.2719 C   0  0  0  0  0  0  0  0  0  0  0  0
   -7.3232   -0.1847   28.7656 C   0  0  0  0  0  0  0  0  0  0  0  0
  -10.3699    2.5787   24.5903 C   0  0  0  0  0  0  0  0  0  0  0  0
  -10.0090    1.9920   23.4131 C   0  0  0  0  0  0  0  0  0  0  0  0
  -11.5873    3.1911   24.7013 C   0  0  0  0  0  0  0  0  0  0  0  0
  -12.3778    3.3355   23.6942 C   0  0  0  0  0  0  0  0  0  0  0  0
  -10.7919    2.0199   22.3088 C   0  0  0  0  0  0  0  0  0  0  0  0
  -12.0127    2.7175   22.4288 C   0  0  0  0  0  0  0  0  0  0  0  0
  7 11  1  0
  4 17  1  0
 11 12  2  0
 12 13  1  0
 13 14  2  0
 14 15  1  0
 15 16  2  0
 16 11  1  0
  3  4  1  0
  4  6  2  0
  6  7  1  0
  7  8  2  0
  8  1  1  0
 17 18  2  0
 18 21  1  0
 21 22  2  0
 22 20  1  0
 20 19  2  0
 19 17  1  0
  1  2  2  0
  2  5  1  0
  5  9  2  0
  9 10  1  0
 10  3  2  0
  3  1  1  0
M  END
$$$$
