No_3512-complexes_sdf/6BKW-FPZ/2024-09-17-14-21-01/
     RDKit          3D

 21 23  0  0  0  0  0  0  0  0999 V2000
   -7.2496    3.8871   27.4508 C   0  0  0  0  0  0  0  0  0  0  0  0
   -7.9379    4.9063   27.8518 C   0  0  0  0  0  0  0  0  0  0  0  0
   -9.3460    4.8223   27.8695 C   0  0  0  0  0  0  0  0  0  0  0  0
   -7.8628    2.6163   27.1065 C   0  0  0  0  0  0  0  0  0  0  0  0
   -9.2787    2.5744   27.1970 C   0  0  0  0  0  0  0  0  0  0  0  0
  -10.0108    3.6770   27.6340 C   0  0  0  0  0  0  0  0  0  0  0  0
  -11.4855    3.5731   27.7420 C   0  0  0  0  0  0  0  0  0  0  0  0
  -12.0293    2.8456   27.0189 C   0  0  0  0  0  0  0  0  0  0  0  0
  -13.5102    2.7812   27.1373 C   0  0  0  0  0  0  0  0  0  0  0  0
  -14.1668    3.6327   28.0205 C   0  0  0  0  0  0  0  0  0  0  0  0
  -13.4831    4.5355   28.7575 C   0  0  0  0  0  0  0  0  0  0  0  0
  -12.0877    4.5955   28.6456 C   0  0  0  0  0  0  0  0  0  0  0  0
   -6.9568    1.2816   26.7043 Cl  0  0  0  0  0  0  0  0  0  0  0  0
   -7.3255    6.0550   28.1130 F   0  0  0  0  0  0  0  0  0  0  0  0
  -15.6682    3.5803   28.1132 C   0  0  0  0  0  0  0  0  0  0  0  0
  -16.2952    3.6534   29.2073 C   0  0  0  0  0  0  0  0  0  0  0  0
  -15.4588    3.7548   30.4158 C   0  0  0  0  0  0  0  0  0  0  0  0
  -16.0201    3.9885   31.7161 C   0  0  0  0  0  0  0  0  0  0  0  0
  -17.0172    4.1089   31.9846 C   0  0  0  0  0  0  0  0  0  0  0  0
  -18.0272    4.0879   30.8656 C   0  0  0  0  0  0  0  0  0  0  0  0
  -17.6091    3.9146   29.5939 C   0  0  0  0  0  0  0  0  0  0  0  0
  6  7  1  0
  4 13  1  0
  2 14  1  0
 10 15  1  0
 15 16  1  0
  1  2  2  0
  2  3  1  0
  3  6  2  0
  6  5  1  0
  5  4  2  0
  4  1  1  0
  7  8  2  0
  8  9  1  0
  9 10  2  0
 10 11  1  0
 11 12  2  0
 12  7  1  0
 16 17  2  0
 17 18  1  0
 18 19  2  0
 19 20  1  0
 20 21  2  0
 21 16  1  0
M  END
$$$$
