No_3305-complexes_sdf/6BKW-FPZ/2024-09-17-14-21-01/
     RDKit          3D

 34 38  0  0  0  0  0  0  0  0999 V2000
   -7.2496    3.8871   27.4508 C   0  0  0  0  0  0  0  0  0  0  0  0
   -7.9379    4.9063   27.8518 C   0  0  0  0  0  0  0  0  0  0  0  0
   -9.3376    4.8647   27.7795 C   0  0  0  0  0  0  0  0  0  0  0  0
   -7.8544    2.6294   27.0414 C   0  0  0  0  0  0  0  0  0  0  0  0
   -9.2852    2.6570   27.0666 C   0  0  0  0  0  0  0  0  0  0  0  0
  -10.0126    3.7528   27.4890 C   0  0  0  0  0  0  0  0  0  0  0  0
  -11.4946    3.6924   27.5201 C   0  0  0  0  0  0  0  0  0  0  0  0
  -12.0181    2.6419   28.0792 C   0  0  0  0  0  0  0  0  0  0  0  0
  -13.4558    2.4682   28.2693 C   0  0  0  0  0  0  0  0  0  0  0  0
  -14.2214    3.5827   27.8675 C   0  0  0  0  0  0  0  0  0  0  0  0
  -13.6463    4.6925   27.3441 C   0  0  0  0  0  0  0  0  0  0  0  0
  -12.2538    4.8357   27.2257 C   0  0  0  0  0  0  0  0  0  0  0  0
   -7.1387    1.4721   26.7399 C   0  0  0  0  0  0  0  0  0  0  0  0
   -7.6114    0.6968   25.8523 O   0  0  0  0  0  0  0  0  0  0  0  0
   -5.9900    1.2325   27.3340 O   0  0  0  0  0  0  0  0  0  0  0  0
   -7.2804    6.0249   28.2041 F   0  0  0  0  0  0  0  0  0  0  0  0
   -5.4968    1.0585   28.2409 C   0  0  0  0  0  0  0  0  0  0  0  0
   -4.0565    1.2473   28.4093 C   0  0  0  0  0  0  0  0  0  0  0  0
   -3.3725    0.0474   28.6166 C   0  0  0  0  0  0  0  0  0  0  0  0
   -2.1573   -0.1526   28.1006 C   0  0  0  0  0  0  0  0  0  0  0  0
   -1.9237   -0.6220   27.0990 C   0  0  0  0  0  0  0  0  0  0  0  0
   -2.9880   -0.9436   26.1875 C   0  0  0  0  0  0  0  0  0  0  0  0
   -3.4175   -2.2900   25.9494 C   0  0  0  0  0  0  0  0  0  0  0  0
   -4.4096   -2.6080   26.1378 C   0  0  0  0  0  0  0  0  0  0  0  0
   -5.5823   -1.7814   25.7426 C   0  0  0  0  0  0  0  0  0  0  0  0
   -5.1230   -0.4643   25.3609 C   0  0  0  0  0  0  0  0  0  0  0  0
   -3.8648   -0.0537   25.7453 C   0  0  0  0  0  0  0  0  0  0  0  0
   -3.8589   -0.8302   29.6632 C   0  0  0  0  0  0  0  0  0  0  0  0
   -3.2845   -1.4457   30.4376 C   0  0  0  0  0  0  0  0  0  0  0  0
   -3.2634   -2.0793   31.3634 C   0  0  0  0  0  0  0  0  0  0  0  0
   -4.6294   -2.1390   31.9871 C   0  0  0  0  0  0  0  0  0  0  0  0
   -5.6511   -1.6022   31.1547 C   0  0  0  0  0  0  0  0  0  0  0  0
   -5.2789   -0.7845   30.0984 C   0  0  0  0  0  0  0  0  0  0  0  0
   -5.7822   -0.4191   28.8635 C   0  0  0  0  0  0  0  0  0  0  0  0
  6  7  1  0
  4 13  1  0
 13 14  2  0
 13 15  1  0
  2 16  1  0
 15 17  1  0
 20 21  1  0
 21 22  1  0
 20 19  1  0
  1  2  2  0
  2  3  1  0
  3  6  2  0
  6  5  1  0
  5  4  2  0
  4  1  1  0
 22 23  2  0
 23 24  1  0
 24 25  2  0
 25 26  1  0
 26 27  2  0
 27 22  1  0
  7  8  2  0
  8  9  1  0
  9 10  2  0
 10 11  1  0
 11 12  2  0
 12  7  1  0
 17 18  2  0
 18 19  1  0
 19 28  2  0
 33 34  2  0
 34 17  1  0
 28 29  1  0
 29 30  2  0
 30 31  1  0
 31 32  2  0
 32 33  1  0
 33 28  1  0
M  END
$$$$
