No_35-complexes_sdf/6BKW-FPZ/2024-09-17-14-21-01/
     RDKit          3D

 34 37  0  0  0  0  0  0  0  0999 V2000
   -7.2496    3.8871   27.4508 C   0  0  0  0  0  0  0  0  0  0  0  0
   -7.9379    4.9063   27.8518 C   0  0  0  0  0  0  0  0  0  0  0  0
   -7.5112    6.1898   27.6280 C   0  0  0  0  0  0  0  0  0  0  0  0
   -9.4044    4.7330   27.8015 C   0  0  0  0  0  0  0  0  0  0  0  0
   -7.8289    2.5799   27.2061 C   0  0  0  0  0  0  0  0  0  0  0  0
   -9.1854    2.4235   27.2148 C   0  0  0  0  0  0  0  0  0  0  0  0
   -9.9692    3.5121   27.6549 C   0  0  0  0  0  0  0  0  0  0  0  0
  -11.4355    3.2923   27.8357 C   0  0  0  0  0  0  0  0  0  0  0  0
  -12.1063    2.9557   26.9431 C   0  0  0  0  0  0  0  0  0  0  0  0
  -13.5626    2.7282   27.1413 C   0  0  0  0  0  0  0  0  0  0  0  0
  -14.1161    2.9258   28.4090 C   0  0  0  0  0  0  0  0  0  0  0  0
  -13.3008    3.3288   29.4592 C   0  0  0  0  0  0  0  0  0  0  0  0
  -11.9204    3.5081   29.2765 C   0  0  0  0  0  0  0  0  0  0  0  0
   -6.9740    1.4060   26.9042 C   0  0  2  0  0  0  0  0  0  0  0  0
   -7.0231    0.3526   27.8447 C   0  0  0  0  0  0  0  0  0  0  0  0
   -6.6660   -0.8942   27.3345 C   0  0  0  0  0  0  0  0  0  0  0  0
   -6.1766   -0.9348   26.1675 C   0  0  0  0  0  0  0  0  0  0  0  0
   -6.4378   -0.0965   25.1476 C   0  0  2  0  0  0  0  0  0  0  0  0
   -6.0036    1.6986   26.3055 F   0  0  0  0  0  0  0  0  0  0  0  0
   -7.4676   -0.1141   24.5830 O   0  0  0  0  0  0  0  0  0  0  0  0
   -7.7759    0.0363   23.2586 C   0  0  0  0  0  0  0  0  0  0  0  0
   -5.4632    0.3525   24.5320 F   0  0  0  0  0  0  0  0  0  0  0  0
   -8.9917    0.7786   22.9722 C   0  0  0  0  0  0  0  0  0  0  0  0
   -9.4354    0.8384   21.6559 C   0  0  0  0  0  0  0  0  0  0  0  0
  -10.4614    1.6634   21.3175 C   0  0  0  0  0  0  0  0  0  0  0  0
  -11.0611    2.4762   22.2933 C   0  0  0  0  0  0  0  0  0  0  0  0
  -10.6408    2.3668   23.6185 C   0  0  0  0  0  0  0  0  0  0  0  0
   -9.6022    1.5874   23.9693 C   0  0  0  0  0  0  0  0  0  0  0  0
  -12.2267    3.3268   21.9187 C   0  0  0  0  0  0  0  0  0  0  0  0
  -12.1427    4.4003   21.8281 C   0  0  0  0  0  0  0  0  0  0  0  0
  -13.4569    2.6159   21.6994 C   0  0  0  0  0  0  0  0  0  0  0  0
  -14.6004    3.3713   21.4285 C   0  0  0  0  0  0  0  0  0  0  0  0
  -13.2371    5.3699   21.7284 C   0  0  0  0  0  0  0  0  0  0  0  0
  -14.4738    4.8031   21.4620 C   0  0  0  0  0  0  0  0  0  0  0  0
  2  3  1  0
  7  8  1  0
  5 14  1  0
 14 15  1  0
 15 16  1  0
 16 17  2  3
 17 18  1  0
 14 19  1  1
 18 20  1  0
 20 21  1  0
 18 22  1  6
 26 29  1  0
 21 23  1  0
 23 24  2  0
 24 25  1  0
 25 26  2  0
 26 27  1  0
 27 28  2  0
 28 23  1  0
  1  2  2  0
  2  4  1  0
  4  7  2  0
  7  6  1  0
  6  5  2  0
  5  1  1  0
  8  9  2  0
  9 10  1  0
 10 11  2  0
 11 12  1  0
 12 13  2  0
 13  8  1  0
 29 30  2  0
 30 33  1  0
 33 34  2  0
 34 32  1  0
 32 31  2  0
 31 29  1  0
M  END
$$$$
