No_390-complexes_sdf/6BKW-FPZ/2024-09-17-14-21-01/
     RDKit          3D

 24 27  0  0  0  0  0  0  0  0999 V2000
   -7.9040    3.9820   27.1177 C   0  0  0  0  0  0  0  0  0  0  0  0
   -9.0711    4.3164   27.0630 C   0  0  0  0  0  0  0  0  0  0  0  0
   -9.8698    3.9665   25.9495 C   0  0  0  0  0  0  0  0  0  0  0  0
   -7.4046    2.7946   26.4568 C   0  0  0  0  0  0  0  0  0  0  0  0
   -8.3659    2.1310   25.6816 C   0  0  0  0  0  0  0  0  0  0  0  0
   -9.5390    2.7825   25.4030 C   0  0  0  0  0  0  0  0  0  0  0  0
   -7.0032    4.5376   28.0552 O   0  0  0  0  0  0  0  0  0  0  0  0
  -10.4570    2.1791   24.3717 C   0  0  0  0  0  0  0  0  0  0  0  0
  -10.0458    1.2751   23.6197 C   0  0  0  0  0  0  0  0  0  0  0  0
  -10.8566    0.7266   22.5949 C   0  0  0  0  0  0  0  0  0  0  0  0
  -12.1370    1.2266   22.4181 C   0  0  0  0  0  0  0  0  0  0  0  0
  -11.7543    2.6777   24.0943 C   0  0  0  0  0  0  0  0  0  0  0  0
  -12.5645    2.2361   23.1842 C   0  0  0  0  0  0  0  0  0  0  0  0
   -7.1002    5.9111   28.1362 C   0  0  0  0  0  0  0  0  0  0  0  0
  -13.0275    0.6320   21.3607 C   0  0  0  0  0  0  0  0  0  0  0  0
  -12.7302   -0.0514   20.5018 C   0  0  0  0  0  0  0  0  0  0  0  0
  -13.6104   -0.5824   19.5489 C   0  0  0  0  0  0  0  0  0  0  0  0
  -14.9324   -0.2085   19.6676 C   0  0  0  0  0  0  0  0  0  0  0  0
  -15.3126    0.5918   20.6451 C   0  0  0  0  0  0  0  0  0  0  0  0
  -14.4082    1.1097   21.5627 C   0  0  0  0  0  0  0  0  0  0  0  0
  -16.7375    0.9921   20.7752 C   0  0  0  0  0  0  0  0  0  0  0  0
  -16.9325    2.1478   21.2598 C   0  0  0  0  0  0  0  0  0  0  0  0
  -16.0127    2.7333   22.2615 C   0  0  0  0  0  0  0  0  0  0  0  0
  -14.7636    2.2650   22.3510 C   0  0  0  0  0  0  0  0  0  0  0  0
  1  7  1  0
  6  8  1  0
  7 14  1  0
 11 15  1  0
 15 16  2  0
 16 17  1  0
 17 18  2  0
 18 19  1  0
 20 15  1  0
 19 20  2  0
 20 24  1  0
 24 23  2  0
 23 22  1  0
 22 21  2  0
 21 19  1  0
  1  2  2  0
  2  3  1  0
  3  6  2  0
  6  5  1  0
  5  4  2  0
  4  1  1  0
  8  9  2  0
  9 10  1  0
 10 11  2  0
 11 13  1  0
 13 12  2  0
 12  8  1  0
M  END
$$$$
