No_3158-complexes_sdf/6BKW-FPZ/2024-09-17-14-21-01/
     RDKit          3D

 19 21  0  0  0  0  0  0  0  0999 V2000
   -7.7129    4.2099   27.0854 C   0  0  0  0  0  0  0  0  0  0  0  0
   -8.9133    4.4736   27.0998 C   0  0  0  0  0  0  0  0  0  0  0  0
   -9.4616    5.6470   27.6290 C   0  0  0  0  0  0  0  0  0  0  0  0
   -6.8722    5.1130   27.9248 C   0  0  0  0  0  0  0  0  0  0  0  0
   -7.3801    6.2535   28.4126 C   0  0  0  0  0  0  0  0  0  0  0  0
   -8.6734    6.5530   28.2150 C   0  0  0  0  0  0  0  0  0  0  0  0
   -9.8157    3.4887   26.3527 C   0  0  0  0  0  0  0  0  0  0  0  0
  -10.0926    2.3125   26.8650 C   0  0  0  0  0  0  0  0  0  0  0  0
   -9.5054    1.9979   28.2122 C   0  0  0  0  0  0  0  0  0  0  0  0
  -10.8743    1.3126   26.1840 C   0  0  0  0  0  0  0  0  0  0  0  0
  -10.7275    0.1931   26.1134 C   0  0  0  0  0  0  0  0  0  0  0  0
   -9.5670    0.4065   28.4079 C   0  0  0  0  0  0  0  0  0  0  0  0
  -10.1789   -0.4107   27.4864 C   0  0  0  0  0  0  0  0  0  0  0  0
  -10.2947    3.9451   25.0862 C   0  0  0  0  0  0  0  0  0  0  0  0
   -9.9770    3.4512   23.8951 C   0  0  0  0  0  0  0  0  0  0  0  0
  -10.4979    3.9816   22.6884 C   0  0  0  0  0  0  0  0  0  0  0  0
  -11.4194    5.0475   22.9162 C   0  0  0  0  0  0  0  0  0  0  0  0
  -11.8693    5.4009   24.1272 C   0  0  0  0  0  0  0  0  0  0  0  0
  -11.3047    4.9116   25.2543 C   0  0  0  0  0  0  0  0  0  0  0  0
  2  7  1  0
  7 14  1  0
  7  8  1  0
 14 15  2  0
 15 16  1  0
 16 17  2  0
 17 18  1  0
 18 19  2  0
 19 14  1  0
  1  2  2  0
  2  3  1  0
  3  6  2  0
  6  5  1  0
  5  4  2  0
  4  1  1  0
  8  9  2  0
  9 12  1  0
 12 13  2  0
 13 11  1  0
 11 10  2  0
 10  8  1  0
M  END
$$$$
