No_3357-complexes_sdf/6BKW-FPZ/2024-09-17-14-21-01/
     RDKit          3D

 15 16  0  0  0  0  0  0  0  0999 V2000
   -7.9040    3.9820   27.1177 C   0  0  0  0  0  0  0  0  0  0  0  0
   -8.2057    2.8231   26.8733 C   0  0  0  0  0  0  0  0  0  0  0  0
   -7.0130    4.3706   28.1140 C   0  0  0  0  0  0  0  0  0  0  0  0
   -9.3829    2.4374   26.1668 C   0  0  0  0  0  0  0  0  0  0  0  0
   -9.6934    1.0230   26.0164 C   0  0  0  0  0  0  0  0  0  0  0  0
   -8.8160    0.1163   26.5021 C   0  0  0  0  0  0  0  0  0  0  0  0
   -7.6769    0.4330   27.1868 C   0  0  0  0  0  0  0  0  0  0  0  0
   -7.2463    1.6858   27.4477 C   0  0  0  0  0  0  0  0  0  0  0  0
   -8.6129    5.0884   26.4447 C   0  0  0  0  0  0  0  0  0  0  0  0
   -6.8774    5.7993   28.5249 C   0  0  0  0  0  0  0  0  0  0  0  0
   -8.5041    6.4625   26.8037 C   0  0  0  0  0  0  0  0  0  0  0  0
   -7.5899    6.7463   27.8253 C   0  0  0  0  0  0  0  0  0  0  0  0
   -6.8134   -0.6484   27.7656 C   0  0  0  0  0  0  0  0  0  0  0  0
   -7.3059   -1.7637   28.4064 C   0  0  0  0  0  0  0  0  0  0  0  0
   -6.4857   -2.6773   29.0325 C   0  0  0  0  0  0  0  0  0  0  0  0
  1  2  1  0
  7 13  1  0
 13 14  2  3
 14 15  1  0
  2  4  2  0
  4  5  1  0
  5  6  2  0
  6  7  1  0
  7  8  2  0
  8  2  1  0
  1  3  2  0
  3 10  1  0
 10 12  2  0
 12 11  1  0
 11  9  2  0
  9  1  1  0
M  END
$$$$
