No_3426-complexes_sdf/6BKW-FPZ/2024-09-17-14-21-01/
     RDKit          3D

 21 23  0  0  0  0  0  0  0  0999 V2000
   -7.2496    3.8871   27.4508 C   0  0  0  0  0  0  0  0  0  0  0  0
   -7.6161    2.7143   27.1523 C   0  0  0  0  0  0  0  0  0  0  0  0
   -7.1618    1.8631   27.5232 C   0  0  0  0  0  0  0  0  0  0  0  0
   -8.0384    5.0866   27.3232 C   0  0  0  0  0  0  0  0  0  0  0  0
   -9.1223    5.1097   26.4856 C   0  0  0  0  0  0  0  0  0  0  0  0
   -8.9186    2.6660   26.4794 C   0  0  0  0  0  0  0  0  0  0  0  0
   -9.4406    1.4100   26.0775 C   0  0  0  0  0  0  0  0  0  0  0  0
   -9.6459    3.8442   26.1281 C   0  0  0  0  0  0  0  0  0  0  0  0
   -7.0279    0.6978   27.0130 C   0  0  0  0  0  0  0  0  0  0  0  0
   -8.3765    0.3298   26.2808 C   0  0  0  0  0  0  0  0  0  0  0  0
   -7.4922    6.3300   27.7433 N   0  0  0  0  0  0  0  0  0  0  0  0
  -10.8315    3.7879   25.2919 C   0  0  0  0  0  0  0  0  0  0  0  0
  -12.0472    3.7718   25.8821 C   0  0  0  0  0  0  0  0  0  0  0  0
  -10.7719    3.7689   23.8892 C   0  0  0  0  0  0  0  0  0  0  0  0
  -11.8268    3.8608   23.0913 C   0  0  0  0  0  0  0  0  0  0  0  0
  -13.2154    3.8747   25.1379 C   0  0  0  0  0  0  0  0  0  0  0  0
  -13.0998    3.9559   23.7326 C   0  0  0  0  0  0  0  0  0  0  0  0
  -10.5088    1.0800   25.3338 C   0  0  0  0  0  0  0  0  0  0  0  0
  -11.1890    0.1451   25.9989 C   0  0  0  0  0  0  0  0  0  0  0  0
  -11.3656   -0.0144   27.1271 C   0  0  0  0  0  0  0  0  0  0  0  0
  -12.2241   -1.0681   27.8098 C   0  0  0  0  0  0  0  0  0  0  0  0
  4 11  1  0
  8 12  1  0
  7 18  1  0
 18 19  1  0
 19 20  2  3
 20 21  1  0
  1  2  2  0
  6  8  2  0
  8  5  1  0
  5  4  2  0
  4  1  1  0
  2  3  1  0
  3  9  2  0
  9 10  1  0
 10  7  2  0
  7  6  1  0
  6  2  1  0
 12 13  2  0
 13 16  1  0
 16 17  2  0
 17 15  1  0
 15 14  2  0
 14 12  1  0
M  END
$$$$
