No_381-complexes_sdf/6BKW-FPZ/2024-09-17-14-21-01/
     RDKit          3D

 17 17  0  0  0  0  0  0  0  0999 V2000
   -7.9040    3.9820   27.1177 C   0  0  0  0  0  0  0  0  0  0  0  0
   -8.2057    2.8231   26.8733 C   0  0  0  0  0  0  0  0  0  0  0  0
   -9.2962    2.4021   26.1155 C   0  0  0  0  0  0  0  0  0  0  0  0
   -8.7358    5.0662   26.5917 C   0  0  0  0  0  0  0  0  0  0  0  0
   -8.4603    6.4492   26.8781 C   0  0  0  0  0  0  0  0  0  0  0  0
  -10.1146    3.3815   25.6105 C   0  0  0  0  0  0  0  0  0  0  0  0
   -9.8194    4.7235   25.8263 C   0  0  0  0  0  0  0  0  0  0  0  0
   -8.6194    7.3002   26.0888 F   0  0  0  0  0  0  0  0  0  0  0  0
   -7.0512    6.5081   27.3343 F   0  0  0  0  0  0  0  0  0  0  0  0
   -9.2341    6.7311   28.0448 F   0  0  0  0  0  0  0  0  0  0  0  0
   -7.3158    1.6595   27.4401 C   0  0  2  0  0  0  0  0  0  0  0  0
   -6.3502    2.0842   28.1502 F   0  0  0  0  0  0  0  0  0  0  0  0
   -7.4904    0.3695   27.0986 C   0  0  0  0  0  0  0  0  0  0  0  0
   -6.6629   -0.2121   26.2717 C   0  0  0  0  0  0  0  0  0  0  0  0
   -6.7892   -1.6211   25.8863 C   0  0  0  0  0  0  0  0  0  0  0  0
   -7.8520   -2.2856   26.4116 C   0  0  0  0  0  0  0  0  0  0  0  0
   -8.7275   -1.6855   27.3147 C   0  0  0  0  0  0  0  0  0  0  0  0
  4  5  1  0
  5  8  1  0
  5  9  1  0
  5 10  1  0
  2 11  1  0
 11 12  1  6
 11 13  1  0
 13 14  2  3
 14 15  1  0
 15 16  2  3
 16 17  1  0
  1  2  2  0
  2  3  1  0
  3  6  2  0
  6  7  1  0
  7  4  2  0
  4  1  1  0
M  END
$$$$
