No_3990-complexes_sdf/6BKW-FPZ/2024-09-17-14-21-01/
     RDKit          3D

 40 44  0  0  0  0  0  0  0  0999 V2000
   -7.9040    3.9820   27.1177 C   0  0  0  0  0  0  0  0  0  0  0  0
   -9.0711    4.3164   27.0630 C   0  0  0  0  0  0  0  0  0  0  0  0
   -9.5294    5.4517   27.7215 C   0  0  0  0  0  0  0  0  0  0  0  0
   -6.9328    4.7309   27.8881 C   0  0  0  0  0  0  0  0  0  0  0  0
   -7.3666    5.8455   28.5488 C   0  0  0  0  0  0  0  0  0  0  0  0
   -8.6669    6.2428   28.4199 C   0  0  0  0  0  0  0  0  0  0  0  0
  -10.0479    3.5083   26.2510 C   0  0  0  0  0  0  0  0  0  0  0  0
   -9.7487    3.3855   24.9113 C   0  0  0  0  0  0  0  0  0  0  0  0
  -10.5142    2.6814   23.9902 C   0  0  0  0  0  0  0  0  0  0  0  0
  -11.6898    2.1313   24.4168 C   0  0  0  0  0  0  0  0  0  0  0  0
  -11.2523    3.0121   26.5975 C   0  0  0  0  0  0  0  0  0  0  0  0
  -12.0785    2.2965   25.7807 C   0  0  0  0  0  0  0  0  0  0  0  0
  -10.0566    2.5731   22.6004 C   0  0  2  0  0  0  0  0  0  0  0  0
  -10.2533    3.6451   21.7618 C   0  0  1  0  0  0  0  0  0  0  0  0
   -9.5299    1.3549   22.0953 C   0  0  0  0  0  0  0  0  0  0  0  0
   -9.9631    0.7287   21.0089 C   0  0  0  0  0  0  0  0  0  0  0  0
  -10.5072    1.6811   20.1224 N   0  0  0  0  0  0  0  0  0  0  0  0
  -10.7560    3.0352   20.4368 C   0  0  0  0  0  0  0  0  0  0  0  0
  -13.3397    1.7504   26.1823 C   0  0  0  0  0  0  0  0  0  0  0  0
  -14.0894    1.2677   25.6480 O   0  0  0  0  0  0  0  0  0  0  0  0
  -13.5391    1.8995   27.6481 N   0  0  0  0  0  0  0  0  0  0  0  0
  -12.7164    2.4802   28.6152 C   0  0  1  0  0  0  0  0  0  0  0  0
  -11.4907    3.1067   28.1098 C   0  0  0  0  0  0  0  0  0  0  0  0
   -9.7187   -0.3557   20.5715 O   0  0  0  0  0  0  0  0  0  0  0  0
  -13.1933    2.5864   30.2077 Cl  0  0  0  0  0  0  0  0  0  0  0  0
  -11.1911    4.7526   22.1692 C   0  0  0  0  0  0  0  0  0  0  0  0
   -5.6776    4.2713   28.0500 O   0  0  0  0  0  0  0  0  0  0  0  0
  -14.7935    1.2982   28.1518 C   0  0  0  0  0  0  0  0  0  0  0  0
  -15.6911    2.1121   28.5828 C   0  0  1  0  0  0  0  0  0  0  0  0
  -15.7827    3.2616   28.4520 C   0  0  0  0  0  0  0  0  0  0  0  0
  -16.8473    4.2189   28.9831 C   0  0  0  0  0  0  0  0  0  0  0  0
  -16.8042    5.6271   28.8234 C   0  0  0  0  0  0  0  0  0  0  0  0
  -15.6904    6.2310   28.1286 C   0  0  0  0  0  0  0  0  0  0  0  0
  -14.6466    5.4030   27.6811 C   0  0  0  0  0  0  0  0  0  0  0  0
  -14.7010    4.1543   27.8498 C   0  0  0  0  0  0  0  0  0  0  0  0
  -14.7804    0.0717   28.0994 O   0  0  0  0  0  0  0  0  0  0  0  0
  -16.9111    1.4050   29.1801 C   0  0  0  0  0  0  0  0  0  0  0  0
  -17.0447    1.4680   30.5329 C   0  0  0  0  0  0  0  0  0  0  0  0
  -16.1303    1.5031   31.3861 C   0  0  0  0  0  0  0  0  0  0  0  0
  -16.3199    1.5534   32.8389 C   0  0  0  0  0  0  0  0  0  0  0  0
  2  7  1  0
 13  9  1  6
 13 14  1  0
 13 15  1  0
 15 16  1  0
 16 17  1  0
 14 18  1  0
 12 19  1  0
 19 20  2  0
 19 21  1  0
 21 22  1  0
 11 23  1  0
 16 24  2  0
 22 25  1  6
 14 26  1  1
  4 27  1  0
 21 28  1  0
 28 29  1  0
 28 36  2  0
 29 37  1  6
 37 38  1  0
 38 39  2  3
 39 40  1  0
 29 30  1  0
 23 22  1  0
 18 17  1  0
  1  2  2  0
  2  3  1  0
  3  6  2  0
  6  5  1  0
  5  4  2  0
  4  1  1  0
 30 31  2  0
 31 32  1  0
 32 33  2  0
 33 34  1  0
 34 35  2  0
 35 30  1  0
  7  8  2  0
  8  9  1  0
  9 10  2  0
 10 12  1  0
 12 11  2  0
 11  7  1  0
M  END
$$$$
