No_368-complexes_sdf/6BKW-FPZ/2024-09-17-14-21-01/
     RDKit          3D

 40 47  0  0  0  0  0  0  0  0999 V2000
   -7.2496    3.8871   27.4508 C   0  0  0  0  0  0  0  0  0  0  0  0
   -8.5096    4.0291   27.2770 C   0  0  1  0  0  0  0  0  0  0  0  0
   -9.3451    2.8786   26.9046 C   0  0  0  0  0  0  0  0  0  0  0  0
  -10.6709    3.0505   26.6789 C   0  0  0  0  0  0  0  0  0  0  0  0
   -6.5705    4.9572   27.9298 N   0  0  0  0  0  0  0  0  0  0  0  0
  -11.2351    4.2670   26.9658 C   0  0  0  0  0  0  0  0  0  0  0  0
   -9.3619    5.1636   27.5463 C   0  0  2  0  0  0  0  0  0  0  0  0
  -10.6029    5.3389   27.4495 C   0  0  0  0  0  0  0  0  0  0  0  0
   -6.6707    2.7039   27.5985 N   0  0  0  0  0  0  0  0  0  0  0  0
   -7.1046    1.5455   27.2541 C   0  0  0  0  0  0  0  0  0  0  0  0
   -8.6532    1.6056   26.8453 C   0  0  0  0  0  0  0  0  0  0  0  0
   -6.4758    0.4466   27.1426 N   0  0  0  0  0  0  0  0  0  0  0  0
   -6.8850   -0.7258   26.5715 C   0  0  0  0  0  0  0  0  0  0  0  0
   -5.1986    0.3738   27.8504 C   0  0  0  0  0  0  0  0  0  0  0  0
   -4.8789   -0.3881   28.6295 C   0  0  0  0  0  0  0  0  0  0  0  0
   -3.7101   -0.2960   29.5222 C   0  0  0  0  0  0  0  0  0  0  0  0
   -3.3827   -1.2388   30.5031 C   0  0  0  0  0  0  0  0  0  0  0  0
   -2.3416   -1.0267   31.3517 C   0  0  0  0  0  0  0  0  0  0  0  0
   -2.0615   -1.9950   32.3216 C   0  0  0  0  0  0  0  0  0  0  0  0
   -2.8517   -3.0822   32.4581 C   0  0  0  0  0  0  0  0  0  0  0  0
   -3.8980   -3.2523   31.6338 C   0  0  0  0  0  0  0  0  0  0  0  0
   -4.2157   -2.3423   30.6729 C   0  0  2  0  0  0  0  0  0  0  0  0
   -6.7722   -1.7273   27.4817 C   0  0  0  0  0  0  0  0  0  0  0  0
   -5.4739   -1.7230   28.3594 C   0  0  2  0  0  0  0  0  0  0  0  0
   -5.3045   -2.5497   29.6869 C   0  0  1  0  0  0  0  0  0  0  0  0
   -6.2339   -3.6685   29.8365 C   0  0  0  0  0  0  0  0  0  0  0  0
   -7.1150   -3.6023   30.8550 C   0  0  0  0  0  0  0  0  0  0  0  0
   -6.1049   -4.7595   29.0657 C   0  0  0  0  0  0  0  0  0  0  0  0
   -8.0524   -4.5590   31.0782 C   0  0  0  0  0  0  0  0  0  0  0  0
   -7.0503   -5.7984   29.2698 C   0  0  0  0  0  0  0  0  0  0  0  0
   -7.9905   -5.6864   30.2562 C   0  0  0  0  0  0  0  0  0  0  0  0
   -8.5104    6.3441   27.9254 N   0  0  0  0  0  0  0  0  0  0  0  0
   -7.1601    6.1964   28.0224 C   0  0  0  0  0  0  0  0  0  0  0  0
   -3.0263    0.8185   29.4241 O   0  0  0  0  0  0  0  0  0  0  0  0
   -5.1108   -4.9223   28.0061 C   0  0  0  0  0  0  0  0  0  0  0  0
   -4.3316   -5.7536   27.9095 C   0  0  0  0  0  0  0  0  0  0  0  0
   -3.3547   -5.9717   27.2896 C   0  0  0  0  0  0  0  0  0  0  0  0
   -3.0634   -4.9848   26.2519 C   0  0  0  0  0  0  0  0  0  0  0  0
   -3.8755   -3.8646   26.1872 C   0  0  0  0  0  0  0  0  0  0  0  0
   -4.9051   -3.7634   27.1631 C   0  0  0  0  0  0  0  0  0  0  0  0
  1  2  1  0
  2  3  1  1
  3  4  1  0
  1  5  2  0
  4  6  2  0
  2  7  1  0
  6  8  1  0
  7  8  1  6
  1  9  1  0
  9 10  1  0
  3 11  1  0
 10 11  2  0
 10 12  1  0
 12 13  1  0
 12 14  1  0
 14 15  2  0
 15 16  1  0
 16 17  1  0
 17 18  2  0
 18 19  1  0
 19 20  2  0
 20 21  1  0
 17 22  1  0
 22 21  1  6
 13 23  2  0
 15 24  1  0
 24 23  1  1
 22 25  1  0
 24 25  1  0
 25 26  1  6
 26 27  2  0
 26 28  1  0
 27 29  1  0
 28 30  2  0
 29 31  2  0
 30 31  1  0
  7 32  1  0
  5 33  1  0
 32 33  2  0
 16 34  2  0
 28 35  1  0
 35 36  2  0
 36 37  1  0
 37 38  2  0
 38 39  1  0
 35 40  1  0
 39 40  1  0
M  END
$$$$
