No_3483-complexes_sdf/6BKW-FPZ/2024-09-17-14-21-01/
     RDKit          3D

  6  6  0  0  0  0  0  0  0  0999 V2000
   -7.7129    4.2099   27.0854 C   0  0  0  0  0  0  0  0  0  0  0  0
   -8.2112    3.0637   26.9225 C   0  0  0  0  0  0  0  0  0  0  0  0
   -8.5108    5.3904   26.9436 C   0  0  0  0  0  0  0  0  0  0  0  0
   -9.5333    5.2878   26.5026 C   0  0  0  0  0  0  0  0  0  0  0  0
   -9.3533    2.8653   26.6139 C   0  0  0  0  0  0  0  0  0  0  0  0
  -10.1677    3.9949   26.3090 C   0  0  0  0  0  0  0  0  0  0  0  0
  1  2  2  0
  2  5  1  0
  5  6  2  0
  6  4  1  0
  4  3  2  0
  3  1  1  0
M  END
$$$$
