No_3705-complexes_sdf/6BKW-FPZ/2024-09-17-14-21-01/
     RDKit          3D

 16 17  0  0  0  0  0  0  0  0999 V2000
   -7.9040    3.9820   27.1177 C   0  0  0  0  0  0  0  0  0  0  0  0
   -7.8663    4.8694   27.9238 C   0  0  0  0  0  0  0  0  0  0  0  0
   -9.0491    3.8523   26.2542 C   0  0  0  0  0  0  0  0  0  0  0  0
   -8.7661    5.9491   27.9690 C   0  0  0  0  0  0  0  0  0  0  0  0
   -9.9295    4.8502   26.2323 C   0  0  0  0  0  0  0  0  0  0  0  0
   -9.8077    5.9288   27.0933 C   0  0  0  0  0  0  0  0  0  0  0  0
   -7.0146    2.9513   27.1368 F   0  0  0  0  0  0  0  0  0  0  0  0
   -9.0710    2.8499   25.3499 F   0  0  0  0  0  0  0  0  0  0  0  0
  -10.9102    4.8175   25.3130 O   0  0  0  0  0  0  0  0  0  0  0  0
  -11.9010    4.0218   25.4787 C   0  0  0  0  0  0  0  0  0  0  0  0
  -12.7868    4.0174   24.3770 C   0  0  0  0  0  0  0  0  0  0  0  0
  -12.3638    4.5718   23.1389 C   0  0  0  0  0  0  0  0  0  0  0  0
  -13.2089    4.6160   21.9910 C   0  0  0  0  0  0  0  0  0  0  0  0
  -14.5432    4.1806   22.1374 C   0  0  0  0  0  0  0  0  0  0  0  0
  -15.0117    3.7216   23.3473 C   0  0  0  0  0  0  0  0  0  0  0  0
  -14.1673    3.6489   24.4610 C   0  0  0  0  0  0  0  0  0  0  0  0
  1  7  1  0
  3  8  1  0
  5  9  1  0
  9 10  1  0
 10 11  1  0
 11 12  2  0
 12 13  1  0
 13 14  2  0
 14 15  1  0
 15 16  2  0
 16 11  1  0
  1  2  2  0
  2  4  1  0
  4  6  2  0
  6  5  1  0
  5  3  2  0
  3  1  1  0
M  END
$$$$
