No_3815-complexes_sdf/6BKW-FPZ/2024-09-17-14-21-01/
     RDKit          3D

 40 45  0  0  0  0  0  0  0  0999 V2000
   -7.9040    3.9820   27.1177 C   0  0  0  0  0  0  0  0  0  0  0  0
   -7.8663    4.8694   27.9238 C   0  0  0  0  0  0  0  0  0  0  0  0
   -9.0491    3.8523   26.2542 C   0  0  0  0  0  0  0  0  0  0  0  0
   -6.5926    5.1015   28.6929 C   0  0  0  0  0  0  0  0  0  0  0  0
   -9.8983    4.9345   26.2676 C   0  0  0  0  0  0  0  0  0  0  0  0
   -9.6731    6.0185   26.9992 C   0  0  0  0  0  0  0  0  0  0  0  0
   -8.5866    6.1020   27.8711 C   0  0  0  0  0  0  0  0  0  0  0  0
   -9.2716    2.6978   25.3965 C   0  0  0  0  0  0  0  0  0  0  0  0
  -10.1270    2.7883   24.2871 C   0  0  0  0  0  0  0  0  0  0  0  0
  -10.2783    1.6769   23.4314 C   0  0  0  0  0  0  0  0  0  0  0  0
   -9.6042    0.8624   23.5074 C   0  0  0  0  0  0  0  0  0  0  0  0
   -8.5822    0.5631   24.5183 C   0  0  0  0  0  0  0  0  0  0  0  0
   -8.3857    1.5824   25.4683 C   0  0  0  0  0  0  0  0  0  0  0  0
   -9.6876   -0.4429   22.5253 C   0  0  0  0  0  0  0  0  0  0  0  0
  -10.6036   -1.4006   22.9310 C   0  0  0  0  0  0  0  0  0  0  0  0
  -10.7447   -2.4125   22.1686 C   0  0  0  0  0  0  0  0  0  0  0  0
  -10.0068   -2.5693   20.9060 C   0  0  0  0  0  0  0  0  0  0  0  0
   -9.1008   -1.5983   20.5280 C   0  0  0  0  0  0  0  0  0  0  0  0
   -8.8725   -0.4670   21.3713 C   0  0  0  0  0  0  0  0  0  0  0  0
  -11.2821    1.8932   22.3582 C   0  0  0  0  0  0  0  0  0  0  0  0
  -11.6686    2.9439   21.9603 N   0  0  0  0  0  0  0  0  0  0  0  0
  -11.8811    3.6252   21.2247 C   0  0  0  0  0  0  0  0  0  0  0  0
  -11.5024    3.2504   19.9151 C   0  0  0  0  0  0  0  0  0  0  0  0
  -12.6028    3.4515   23.1555 C   0  0  0  0  0  0  0  0  0  0  0  0
  -13.0375    2.8906   24.0522 C   0  0  0  0  0  0  0  0  0  0  0  0
  -13.9825    2.9491   24.5692 C   0  0  0  0  0  0  0  0  0  0  0  0
  -14.6443    4.3077   24.5335 C   0  0  0  0  0  0  0  0  0  0  0  0
  -14.1811    5.1675   23.5710 C   0  0  0  0  0  0  0  0  0  0  0  0
  -13.2001    4.7751   22.8475 C   0  0  0  0  0  0  0  0  0  0  0  0
  -12.6389    4.8657   21.2913 C   0  0  0  0  0  0  0  0  0  0  0  0
   -7.7204   -0.6424   24.7288 C   0  0  0  0  0  0  0  0  0  0  0  0
   -7.9869   -1.5437   25.4331 C   0  0  0  0  0  0  0  0  0  0  0  0
   -8.9613   -1.5209   26.5520 C   0  0  0  0  0  0  0  0  0  0  0  0
   -9.2512   -2.6073   27.3984 C   0  0  0  0  0  0  0  0  0  0  0  0
  -10.0753   -2.4234   28.5413 C   0  0  0  0  0  0  0  0  0  0  0  0
  -10.7953   -1.1772   28.6986 C   0  0  0  0  0  0  0  0  0  0  0  0
  -10.5129   -0.1027   27.8316 C   0  0  0  0  0  0  0  0  0  0  0  0
   -9.6529   -0.2596   26.8839 C   0  0  0  0  0  0  0  0  0  0  0  0
   -7.3504   -2.9071   25.3331 C   0  0  0  0  0  0  0  0  0  0  0  0
   -6.2953   -3.1152   25.8152 N   0  0  0  0  0  0  0  0  0  0  0  0
  2  4  1  0
  3  8  1  0
 11 14  1  0
 10 20  1  0
 20 21  1  0
 21 22  1  0
 22 23  2  0
 21 24  1  0
 22 30  1  0
 29 30  1  0
 12 31  1  0
 31 32  2  3
 32 33  1  0
 32 39  1  0
 39 40  1  0
 24 25  2  0
 25 26  1  0
 26 27  2  0
 27 28  1  0
 28 29  2  0
 29 24  1  0
 33 34  2  0
 34 35  1  0
 35 36  2  0
 36 37  1  0
 37 38  2  0
 38 33  1  0
 14 15  2  0
 15 16  1  0
 16 17  2  0
 17 18  1  0
 18 19  2  0
 19 14  1  0
  1  2  2  0
  2  7  1  0
  7  6  2  0
  6  5  1  0
  5  3  2  0
  3  1  1  0
  8  9  2  0
  9 10  1  0
 10 11  2  0
 11 12  1  0
 12 13  2  0
 13  8  1  0
M  END
$$$$
