No_3663-complexes_sdf/6BKW-FPZ/2024-09-17-14-21-01/
     RDKit          3D

 24 27  0  0  0  0  0  0  0  0999 V2000
   -7.9040    3.9820   27.1177 C   0  0  0  0  0  0  0  0  0  0  0  0
   -9.0711    4.3164   27.0630 C   0  0  0  0  0  0  0  0  0  0  0  0
   -9.5294    5.4517   27.7215 C   0  0  0  0  0  0  0  0  0  0  0  0
   -7.2203    4.1641   28.0363 C   0  0  0  0  0  0  0  0  0  0  0  0
   -7.3859    5.4785   28.7386 C   0  0  0  0  0  0  0  0  0  0  0  0
   -8.6109    6.0375   28.6008 C   0  0  0  0  0  0  0  0  0  0  0  0
  -10.0694    3.7729   25.9908 C   0  0  0  0  0  0  0  0  0  0  0  0
  -10.8301    3.0062   26.2440 C   0  0  0  0  0  0  0  0  0  0  0  0
  -10.9363    2.4596   27.6253 C   0  0  0  0  0  0  0  0  0  0  0  0
  -10.5471    2.8891   28.6149 C   0  0  0  0  0  0  0  0  0  0  0  0
  -11.4925    3.0526   29.6492 C   0  0  0  0  0  0  0  0  0  0  0  0
  -11.6430    1.0642   27.5347 C   0  0  0  0  0  0  0  0  0  0  0  0
  -11.5333    0.3173   26.5789 C   0  0  0  0  0  0  0  0  0  0  0  0
  -12.5482    2.0075   29.7912 C   0  0  0  0  0  0  0  0  0  0  0  0
  -12.6302    1.1795   28.6388 C   0  0  0  0  0  0  0  0  0  0  0  0
  -10.2765   -0.2641   26.5279 C   0  0  0  0  0  0  0  0  0  0  0  0
   -9.8810   -1.1695   25.4574 C   0  0  0  0  0  0  0  0  0  0  0  0
  -10.8548   -1.3651   24.5427 C   0  0  0  0  0  0  0  0  0  0  0  0
  -12.1077   -0.8267   24.6104 C   0  0  0  0  0  0  0  0  0  0  0  0
  -12.3942    0.0253   25.6239 C   0  0  0  0  0  0  0  0  0  0  0  0
   -9.8278    4.3902   24.6440 C   0  0  0  0  0  0  0  0  0  0  0  0
  -10.4934    3.8837   23.5262 C   0  0  0  0  0  0  0  0  0  0  0  0
  -11.4370    2.9272   23.8213 C   0  0  0  0  0  0  0  0  0  0  0  0
  -11.5836    2.4218   25.1565 C   0  0  0  0  0  0  0  0  0  0  0  0
  2  7  1  0
  8  9  1  0
 13 12  1  0
  9 10  2  0
 10 11  1  0
 11 14  2  0
 14 15  1  0
 15 12  2  0
 12  9  1  0
  1  2  2  0
  2  3  1  0
  3  6  2  0
  6  5  1  0
  5  4  2  0
  4  1  1  0
  7  8  2  0
  8 24  1  0
 24 23  2  0
 23 22  1  0
 22 21  2  0
 21  7  1  0
 13 16  2  0
 16 17  1  0
 17 18  2  0
 18 19  1  0
 19 20  2  0
 20 13  1  0
M  END
$$$$
