No_3424-complexes_sdf/6BKW-FPZ/2024-09-17-14-21-01/
     RDKit          3D

 28 31  0  0  0  0  0  0  0  0999 V2000
   -7.7129    4.2099   27.0854 C   0  0  0  0  0  0  0  0  0  0  0  0
   -7.7814    5.1722   27.8972 C   0  0  0  0  0  0  0  0  0  0  0  0
   -7.3155    2.9699   27.6145 C   0  0  0  0  0  0  0  0  0  0  0  0
   -7.6814    1.8188   26.9581 C   0  0  0  0  0  0  0  0  0  0  0  0
   -8.6377    1.9131   25.9324 C   0  0  0  0  0  0  0  0  0  0  0  0
   -9.1866    3.0673   25.6037 C   0  0  0  0  0  0  0  0  0  0  0  0
   -8.8394    4.1752   26.2513 C   0  0  0  0  0  0  0  0  0  0  0  0
   -8.2486    6.4747   27.5719 N   0  0  0  0  0  0  0  0  0  0  0  0
   -9.0953    6.6391   26.5260 C   0  0  0  0  0  0  0  0  0  0  0  0
   -9.4505    5.4775   25.8556 C   0  0  0  0  0  0  0  0  0  0  0  0
   -6.9059    0.3174   27.3237 Cl  0  0  0  0  0  0  0  0  0  0  0  0
  -10.1404    3.0580   24.4764 C   0  0  0  0  0  0  0  0  0  0  0  0
  -11.1527    2.8237   24.6868 C   0  0  0  0  0  0  0  0  0  0  0  0
  -12.1460    2.6689   24.2572 C   0  0  0  0  0  0  0  0  0  0  0  0
  -13.3964    2.1865   24.9141 C   0  0  0  0  0  0  0  0  0  0  0  0
  -13.2652    1.9108   26.2297 C   0  0  0  0  0  0  0  0  0  0  0  0
  -12.1315    2.0389   26.9205 C   0  0  0  0  0  0  0  0  0  0  0  0
  -11.0090    2.4589   26.3001 C   0  0  0  0  0  0  0  0  0  0  0  0
  -10.1171    2.4628   27.1063 F   0  0  0  0  0  0  0  0  0  0  0  0
  -12.3992    2.9806   22.7809 C   0  0  2  0  0  0  0  0  0  0  0  0
  -13.5257    3.6215   21.7923 Br  0  0  0  0  0  0  0  0  0  0  0  0
  -11.5796    1.9449   21.9316 C   0  0  0  0  0  0  0  0  0  0  0  0
  -11.6727    0.9549   21.6904 C   0  0  0  0  0  0  0  0  0  0  0  0
  -11.1398    0.0398   21.4614 C   0  0  0  0  0  0  0  0  0  0  0  0
  -11.5808   -1.3273   21.0995 C   0  0  0  0  0  0  0  0  0  0  0  0
  -12.9297   -1.4110   20.9820 C   0  0  0  0  0  0  0  0  0  0  0  0
  -13.7448   -0.4297   21.2753 C   0  0  0  0  0  0  0  0  0  0  0  0
  -13.2529    0.7354   21.6205 C   0  0  0  0  0  0  0  0  0  0  0  0
  4 11  1  0
  6 12  1  0
 18 19  1  0
 14 20  1  0
 20 21  1  1
 20 22  1  0
 22 23  1  0
 12 13  1  0
  1  2  2  0
  2  8  1  0
  8  9  2  0
  9 10  1  0
 10  7  2  0
 13 14  1  0
 14 15  2  0
 15 16  1  0
 16 17  2  0
 17 18  1  0
 18 13  2  0
 23 24  2  0
 24 25  1  0
 25 26  2  0
 26 27  1  0
 27 28  2  0
 28 23  1  0
  1  3  1  0
  3  4  2  0
  4  5  1  0
  5  6  2  0
  6  7  1  0
  7  1  1  0
M  END
$$$$
