No_3884-complexes_sdf/6BKW-FPZ/2024-09-17-14-21-01/
     RDKit          3D

 15 17  0  0  0  0  0  0  0  0999 V2000
   -7.9040    3.9820   27.1177 C   0  0  0  0  0  0  0  0  0  0  0  0
   -8.2057    2.8231   26.8733 C   0  0  0  0  0  0  0  0  0  0  0  0
   -7.0130    4.3706   28.1140 C   0  0  0  0  0  0  0  0  0  0  0  0
   -9.3829    2.4374   26.1668 C   0  0  0  0  0  0  0  0  0  0  0  0
  -10.0975    3.4171   25.5988 C   0  0  0  0  0  0  0  0  0  0  0  0
   -9.7335    4.7745   25.7705 C   0  0  0  0  0  0  0  0  0  0  0  0
   -8.7317    5.1107   26.5933 C   0  0  0  0  0  0  0  0  0  0  0  0
   -8.4046    6.3778   26.8735 N   0  0  0  0  0  0  0  0  0  0  0  0
   -9.1031    7.4870   26.5430 C   0  0  0  0  0  0  0  0  0  0  0  0
   -7.2596    6.5458   27.8225 C   0  0  0  0  0  0  0  0  0  0  0  0
   -6.7389    5.6484   28.3917 N   0  0  0  0  0  0  0  0  0  0  0  0
   -7.4461    1.6172   27.4426 C   0  0  0  0  0  0  0  0  0  0  0  0
   -7.8082    0.2876   27.1900 C   0  0  0  0  0  0  0  0  0  0  0  0
   -9.0141    0.1275   26.4763 C   0  0  0  0  0  0  0  0  0  0  0  0
   -9.7589    1.1322   25.8981 C   0  0  0  0  0  0  0  0  0  0  0  0
  7  8  1  0
  8  9  1  0
  8 10  1  0
  3 11  1  0
 10 11  1  0
  1  3  1  0
  4 15  1  0
 15 14  2  0
 14 13  1  0
 13 12  2  0
 12  2  1  0
  1  2  2  0
  2  4  1  0
  4  5  2  0
  5  6  1  0
  6  7  2  0
  7  1  1  0
M  END
$$$$
