No_3080-complexes_sdf/6BKW-FPZ/2024-09-17-14-21-01/
     RDKit          3D

 18 20  0  0  0  0  0  0  0  0999 V2000
   -7.7129    4.2099   27.0854 C   0  0  0  0  0  0  0  0  0  0  0  0
   -8.9133    4.4736   27.0998 C   0  0  0  0  0  0  0  0  0  0  0  0
   -9.4616    5.6470   27.6290 C   0  0  0  0  0  0  0  0  0  0  0  0
   -6.8722    5.1130   27.9248 C   0  0  0  0  0  0  0  0  0  0  0  0
   -7.3801    6.2535   28.4126 C   0  0  0  0  0  0  0  0  0  0  0  0
   -8.6734    6.5530   28.2150 C   0  0  0  0  0  0  0  0  0  0  0  0
   -9.8157    3.4887   26.3527 C   0  0  0  0  0  0  0  0  0  0  0  0
  -10.0926    2.3125   26.8650 C   0  0  0  0  0  0  0  0  0  0  0  0
  -10.8682    1.3163   26.2296 C   0  0  0  0  0  0  0  0  0  0  0  0
  -11.3669    1.6157   24.9966 C   0  0  0  0  0  0  0  0  0  0  0  0
  -10.2287    3.6894   25.0852 C   0  0  0  0  0  0  0  0  0  0  0  0
  -10.9359    2.8570   24.3720 C   0  0  0  0  0  0  0  0  0  0  0  0
  -11.4193    3.1585   23.0062 C   0  0  0  0  0  0  0  0  0  0  0  0
  -10.7289    4.0514   22.3458 C   0  0  0  0  0  0  0  0  0  0  0  0
  -10.1346    5.1686   23.0983 C   0  0  0  0  0  0  0  0  0  0  0  0
   -9.8028    4.9990   24.3458 C   0  0  0  0  0  0  0  0  0  0  0  0
  -11.2226    0.0837   26.9367 C   0  0  0  0  0  0  0  0  0  0  0  0
  -10.8228   -1.0544   26.3631 C   0  0  0  0  0  0  0  0  0  0  0  0
  2  7  1  0
  9 17  1  0
 17 18  3  0
  7  8  2  0
  8  9  1  0
  9 10  2  0
 10 12  1  0
 11  7  1  0
 11 12  2  0
 12 13  1  0
 13 14  2  0
 14 15  1  0
 15 16  2  0
 16 11  1  0
  1  2  2  0
  2  3  1  0
  3  6  2  0
  6  5  1  0
  5  4  2  0
  4  1  1  0
M  END
$$$$
