No_3600-complexes_sdf/6BKW-FPZ/2024-09-17-14-21-01/
     RDKit          3D

 20 21  0  0  0  0  0  0  0  0999 V2000
   -7.2496    3.8871   27.4508 C   0  0  0  0  0  0  0  0  0  0  0  0
   -7.9379    4.9063   27.8518 C   0  0  0  0  0  0  0  0  0  0  0  0
   -7.5112    6.1898   27.6280 C   0  0  0  0  0  0  0  0  0  0  0  0
   -9.3085    4.6933   28.2930 C   0  0  0  0  0  0  0  0  0  0  0  0
   -6.9421    2.7756   27.7941 C   0  0  0  0  0  0  0  0  0  0  0  0
   -6.0492    1.8083   27.3008 C   0  0  0  0  0  0  0  0  0  0  0  0
   -6.3021    0.5004   27.5005 C   0  0  0  0  0  0  0  0  0  0  0  0
   -6.6959   -0.3020   27.0454 C   0  0  0  0  0  0  0  0  0  0  0  0
   -7.4654   -0.0542   25.7929 C   0  0  0  0  0  0  0  0  0  0  0  0
   -7.4409   -0.9798   24.8361 C   0  0  0  0  0  0  0  0  0  0  0  0
   -6.5636   -1.7235   24.8060 C   0  0  0  0  0  0  0  0  0  0  0  0
   -6.4910   -2.7415   23.6658 C   0  0  0  0  0  0  0  0  0  0  0  0
   -7.3162   -2.5535   22.5843 C   0  0  0  0  0  0  0  0  0  0  0  0
   -8.2240   -1.4944   22.5848 C   0  0  0  0  0  0  0  0  0  0  0  0
   -8.2618   -0.6783   23.6405 C   0  0  0  0  0  0  0  0  0  0  0  0
   -8.2376    1.0025   25.8008 O   0  0  0  0  0  0  0  0  0  0  0  0
  -10.4277    5.3902   27.6926 C   0  0  0  0  0  0  0  0  0  0  0  0
   -8.2264    7.1723   26.7901 C   0  0  0  0  0  0  0  0  0  0  0  0
   -9.9079    6.7451   27.1008 C   0  0  0  0  0  0  0  0  0  0  0  0
   -7.3044   -3.3794   21.5225 F   0  0  0  0  0  0  0  0  0  0  0  0
  1  2  1  0
  2  3  1  0
  2  4  1  0
  1  5  2  3
  5  6  1  0
  6  7  2  3
  7  8  1  0
  8  9  1  0
  9 10  1  0
  9 16  2  0
  4 17  1  0
  3 18  1  0
 17 19  1  0
 18 19  1  0
 13 20  1  0
 10 11  2  0
 11 12  1  0
 12 13  2  0
 13 14  1  0
 14 15  2  0
 15 10  1  0
M  END
$$$$
