No_3438-complexes_sdf/6BKW-FPZ/2024-09-17-14-21-01/
     RDKit          3D

 17 18  0  0  0  0  0  0  0  0999 V2000
   -7.9040    3.9820   27.1177 C   0  0  0  0  0  0  0  0  0  0  0  0
   -7.8663    4.8694   27.9238 C   0  0  0  0  0  0  0  0  0  0  0  0
   -9.0491    3.8523   26.2542 C   0  0  0  0  0  0  0  0  0  0  0  0
   -8.7661    5.9491   27.9690 C   0  0  0  0  0  0  0  0  0  0  0  0
   -9.9295    4.8502   26.2323 C   0  0  0  0  0  0  0  0  0  0  0  0
   -9.8077    5.9288   27.0933 C   0  0  0  0  0  0  0  0  0  0  0  0
   -6.9606    2.7994   27.1981 C   0  0  0  0  0  0  0  0  0  0  0  0
   -7.0263    1.6603   27.5228 N   0  0  0  0  0  0  0  0  0  0  0  0
   -5.9099    0.9251   27.6267 C   0  0  0  0  0  0  0  0  0  0  0  0
   -5.8343   -0.4635   27.7376 C   0  0  0  0  0  0  0  0  0  0  0  0
   -4.7115    1.5966   27.9315 N   0  0  0  0  0  0  0  0  0  0  0  0
   -6.8475   -1.2290   27.4597 C   0  0  0  0  0  0  0  0  0  0  0  0
   -5.6703    3.3365   27.5926 N   0  0  0  0  0  0  0  0  0  0  0  0
   -4.6375    2.7710   27.8952 C   0  0  0  0  0  0  0  0  0  0  0  0
   -6.9778   -2.5653   27.7969 C   0  0  0  0  0  0  0  0  0  0  0  0
   -5.9060   -3.1833   28.3978 C   0  0  0  0  0  0  0  0  0  0  0  0
   -4.8068   -2.4351   28.7488 C   0  0  0  0  0  0  0  0  0  0  0  0
  1  7  1  0
  9 10  1  0
 10 12  3  0
 12 15  1  0
 15 16  2  3
 16 17  1  0
  7  8  2  0
  8  9  1  0
  9 11  2  0
 11 14  1  0
 14 13  2  0
 13  7  1  0
  1  2  2  0
  2  4  1  0
  4  6  2  0
  6  5  1  0
  5  3  2  0
  3  1  1  0
M  END
$$$$
