No_3033-complexes_sdf/6BKW-FPZ/2024-09-17-14-21-01/
     RDKit          3D

 35 38  0  0  0  0  0  0  0  0999 V2000
   -7.9040    3.9820   27.1177 C   0  0  0  0  0  0  0  0  0  0  0  0
   -8.2057    2.8231   26.8733 C   0  0  0  0  0  0  0  0  0  0  0  0
   -9.2962    2.4021   26.1155 C   0  0  0  0  0  0  0  0  0  0  0  0
   -6.8682    4.5169   28.0704 C   0  0  0  0  0  0  0  0  0  0  0  0
   -9.5736    0.9953   25.9283 C   0  0  0  0  0  0  0  0  0  0  0  0
   -8.6730    0.1252   26.5353 C   0  0  0  0  0  0  0  0  0  0  0  0
   -7.6250    0.4518   27.2671 C   0  0  0  0  0  0  0  0  0  0  0  0
   -7.3533    1.8830   27.4542 C   0  0  0  0  0  0  0  0  0  0  0  0
   -8.6618    5.1471   26.4909 C   0  0  0  0  0  0  0  0  0  0  0  0
   -8.4613    6.5227   26.9054 C   0  0  0  0  0  0  0  0  0  0  0  0
   -6.8541    5.8526   28.5118 C   0  0  0  0  0  0  0  0  0  0  0  0
   -7.5677    6.7999   27.8350 C   0  0  0  0  0  0  0  0  0  0  0  0
   -6.7385   -0.5370   27.9013 C   0  0  0  0  0  0  0  0  0  0  0  0
   -7.1984   -1.7022   28.4862 C   0  0  0  0  0  0  0  0  0  0  0  0
   -6.3604   -2.5571   29.1597 C   0  0  0  0  0  0  0  0  0  0  0  0
   -5.3572   -0.2110   28.1178 C   0  0  0  0  0  0  0  0  0  0  0  0
   -4.5186   -1.0447   28.8406 C   0  0  0  0  0  0  0  0  0  0  0  0
   -5.0059   -2.2167   29.3653 C   0  0  0  0  0  0  0  0  0  0  0  0
   -3.0869   -0.6351   29.0336 C   0  0  0  0  0  0  0  0  0  0  0  0
   -1.9446   -1.1856   27.8900 P   0  0  2  0  0  0  0  0  0  0  0  0
   -2.6707   -1.8077   26.8521 O   0  0  0  0  0  0  0  0  0  0  0  0
   -1.1841   -2.2129   28.6971 O   0  0  0  0  0  0  0  0  0  0  0  0
   -1.1786   -0.0011   27.4406 O   0  0  0  0  0  0  0  0  0  0  0  0
   -2.8710   -2.9842   26.5581 C   0  0  0  0  0  0  0  0  0  0  0  0
   -3.2785   -2.9874   25.2504 C   0  0  0  0  0  0  0  0  0  0  0  0
   -3.1993   -4.2198   24.6661 C   0  0  0  0  0  0  0  0  0  0  0  0
   -4.2990   -4.7333   23.9671 C   0  0  0  0  0  0  0  0  0  0  0  0
   -5.1453   -3.8426   23.3667 C   0  0  0  0  0  0  0  0  0  0  0  0
   -5.4266   -2.5775   24.0693 C   0  0  0  0  0  0  0  0  0  0  0  0
   -4.7587   -2.3838   25.2429 C   0  0  0  0  0  0  0  0  0  0  0  0
   -6.3240   -1.6306   23.4981 C   0  0  0  0  0  0  0  0  0  0  0  0
   -6.7841   -0.5490   24.3838 C   0  0  0  0  0  0  0  0  0  0  0  0
   -6.7473   -1.6790   22.2020 C   0  0  0  0  0  0  0  0  0  0  0  0
   -7.5540    0.4409   23.8660 O   0  0  0  0  0  0  0  0  0  0  0  0
   -7.9114   -0.9886   21.8179 C   0  0  0  0  0  0  0  0  0  0  0  0
  7 13  1  0
 17 19  1  0
 19 20  1  0
 20 21  1  0
 20 22  1  1
 20 23  2  0
 21 24  1  0
 24 25  1  0
 29 31  1  0
 31 32  1  0
 31 33  1  0
 32 34  2  0
 33 35  1  0
  2  1  1  0
  1  4  2  0
  4 11  1  0
 11 12  2  0
 12 10  1  0
 10  9  2  0
  9  1  1  0
 25 26  2  0
 26 27  1  0
 27 28  2  0
 28 29  1  0
 29 30  2  0
 30 25  1  0
  2  3  2  0
  3  5  1  0
  5  6  2  0
  6  7  1  0
  7  8  2  0
  8  2  1  0
 13 14  2  0
 14 15  1  0
 15 18  2  0
 18 17  1  0
 17 16  2  0
 16 13  1  0
M  END
$$$$
