No_3340-complexes_sdf/6BKW-FPZ/2024-09-17-14-21-01/
     RDKit          3D

 15 16  0  0  0  0  0  0  0  0999 V2000
   -7.7129    4.2099   27.0854 C   0  0  0  0  0  0  0  0  0  0  0  0
   -7.7814    5.1722   27.8972 C   0  0  0  0  0  0  0  0  0  0  0  0
   -8.8776    3.8408   26.3416 C   0  0  0  0  0  0  0  0  0  0  0  0
   -9.9844    4.6492   26.4743 C   0  0  0  0  0  0  0  0  0  0  0  0
   -8.7830    6.1594   27.8870 C   0  0  0  0  0  0  0  0  0  0  0  0
   -9.9269    5.8191   27.1183 C   0  0  0  0  0  0  0  0  0  0  0  0
   -8.8618    2.6242   25.5633 C   0  0  0  0  0  0  0  0  0  0  0  0
   -8.2819    1.4836   26.1793 C   0  0  0  0  0  0  0  0  0  0  0  0
   -8.1204    0.3164   25.5040 C   0  0  0  0  0  0  0  0  0  0  0  0
   -8.6889    0.2851   24.2076 C   0  0  0  0  0  0  0  0  0  0  0  0
   -9.3106    1.3730   23.6051 C   0  0  0  0  0  0  0  0  0  0  0  0
   -9.3584    2.5540   24.2891 C   0  0  0  0  0  0  0  0  0  0  0  0
   -9.8279    1.3225   22.2552 C   0  0  0  0  0  0  0  0  0  0  0  0
  -10.3254    2.4557   21.7024 C   0  0  0  0  0  0  0  0  0  0  0  0
  -10.7984    2.4102   20.3560 C   0  0  0  0  0  0  0  0  0  0  0  0
  3  7  1  0
 11 13  1  0
 13 14  2  3
 14 15  1  0
  1  2  2  0
  2  5  1  0
  5  6  2  0
  6  4  1  0
  4  3  2  0
  3  1  1  0
  7  8  2  0
  8  9  1  0
  9 10  2  0
 10 11  1  0
 11 12  2  0
 12  7  1  0
M  END
$$$$
