No_3093-complexes_sdf/6BKW-FPZ/2024-09-17-14-21-01/
     RDKit          3D

 18 19  0  0  0  0  0  0  0  0999 V2000
   -7.9040    3.9820   27.1177 C   0  0  0  0  0  0  0  0  0  0  0  0
   -9.0711    4.3164   27.0630 C   0  0  0  0  0  0  0  0  0  0  0  0
   -9.9692    3.7224   26.1073 C   0  0  0  0  0  0  0  0  0  0  0  0
   -6.9787    4.6761   28.1003 C   0  0  0  0  0  0  0  0  0  0  0  0
   -9.4538    2.6801   25.3673 C   0  0  0  0  0  0  0  0  0  0  0  0
   -8.1927    2.1957   25.6621 C   0  0  0  0  0  0  0  0  0  0  0  0
   -7.4333    2.8255   26.6299 C   0  0  0  0  0  0  0  0  0  0  0  0
  -10.3181    2.0008   24.3846 C   0  0  0  0  0  0  0  0  0  0  0  0
   -9.7183    1.2105   23.5031 C   0  0  0  0  0  0  0  0  0  0  0  0
  -10.4449    0.6689   22.4496 C   0  0  0  0  0  0  0  0  0  0  0  0
  -11.8038    0.9417   22.3133 C   0  0  0  0  0  0  0  0  0  0  0  0
  -11.5327    2.3542   23.9717 C   0  0  0  0  0  0  0  0  0  0  0  0
  -12.1753    2.0053   23.0930 C   0  0  0  0  0  0  0  0  0  0  0  0
   -7.4228    5.7362   28.6722 O   0  0  0  0  0  0  0  0  0  0  0  0
   -5.7756    4.2697   28.2598 O   0  0  0  0  0  0  0  0  0  0  0  0
  -13.5453    2.2737   22.8316 F   0  0  0  0  0  0  0  0  0  0  0  0
   -9.7064   -0.6040   21.4582 Cl  0  0  0  0  0  0  0  0  0  0  0  0
  -12.4757    0.4519   21.3045 F   0  0  0  0  0  0  0  0  0  0  0  0
  1  4  1  0
  5  8  1  0
  4 14  1  0
  4 15  2  0
 13 16  1  0
 10 17  1  0
 11 18  1  0
  8  9  2  0
  9 10  1  0
 10 11  2  0
 11 13  1  0
 13 12  2  0
 12  8  1  0
  1  2  2  0
  2  3  1  0
  3  5  2  0
  5  6  1  0
  6  7  2  0
  7  1  1  0
M  END
$$$$
