No_3980-complexes_sdf/6BKW-FPZ/2024-09-17-14-21-01/
     RDKit          3D

 25 27  0  0  0  0  0  0  0  0999 V2000
   -7.7129    4.2099   27.0854 C   0  0  0  0  0  0  0  0  0  0  0  0
   -8.2112    3.0637   26.9225 C   0  0  0  0  0  0  0  0  0  0  0  0
   -7.0021    4.5281   28.2396 C   0  0  0  0  0  0  0  0  0  0  0  0
   -7.5497    1.9016   27.4549 C   0  0  0  0  0  0  0  0  0  0  0  0
   -6.3013    2.1806   28.1305 C   0  0  0  0  0  0  0  0  0  0  0  0
   -5.9502    3.4905   28.4049 C   0  0  0  0  0  0  0  0  0  0  0  0
   -9.4104    2.9532   26.0027 C   0  0  0  0  0  0  0  0  0  0  0  0
   -9.4005    2.3267   24.8443 C   0  0  0  0  0  0  0  0  0  0  0  0
  -10.4512    2.4526   23.9399 C   0  0  0  0  0  0  0  0  0  0  0  0
  -11.5577    3.2006   24.3275 C   0  0  0  0  0  0  0  0  0  0  0  0
  -10.5963    3.8225   26.1020 C   0  0  0  0  0  0  0  0  0  0  0  0
  -11.6066    3.9326   25.3781 C   0  0  0  0  0  0  0  0  0  0  0  0
   -5.4247    1.0503   28.4601 C   0  0  0  0  0  0  0  0  0  0  0  0
   -4.0843    1.2576   28.9226 C   0  0  0  0  0  0  0  0  0  0  0  0
   -5.9205   -0.2807   28.3436 C   0  0  0  0  0  0  0  0  0  0  0  0
   -5.1097   -1.3583   28.7411 C   0  0  0  0  0  0  0  0  0  0  0  0
   -3.2986    0.1675   29.3094 C   0  0  0  0  0  0  0  0  0  0  0  0
   -3.8361   -1.1492   29.2081 C   0  0  0  0  0  0  0  0  0  0  0  0
   -3.0008   -2.2946   29.6463 C   0  0  0  0  0  0  0  0  0  0  0  0
   -3.2660   -2.8669   30.7002 C   0  0  0  0  0  0  0  0  0  0  0  0
   -4.1701   -2.5181   31.5342 C   0  0  0  0  0  0  0  0  0  0  0  0
   -4.4485   -3.1835   32.8551 C   0  0  0  0  0  0  0  0  0  0  0  0
   -5.3399   -2.5628   33.7493 C   0  0  0  0  0  0  0  0  0  0  0  0
   -5.8352   -1.5769   33.5903 C   0  0  0  0  0  0  0  0  0  0  0  0
   -5.6191   -0.7070   32.4634 C   0  0  0  0  0  0  0  0  0  0  0  0
  2  7  1  0
  5 13  1  0
 18 19  1  0
 19 20  1  0
 20 21  2  3
 21 22  1  0
 22 23  2  3
 23 24  1  0
 24 25  2  0
  1  2  2  0
  2  4  1  0
  4  5  2  0
  5  6  1  0
  6  3  2  0
  3  1  1  0
  7  8  2  0
  8  9  1  0
  9 10  2  0
 10 12  1  0
 12 11  2  0
 11  7  1  0
 13 14  2  0
 14 17  1  0
 17 18  2  0
 18 16  1  0
 16 15  2  0
 15 13  1  0
M  END
$$$$
