No_3957-complexes_sdf/6BKW-FPZ/2024-09-17-14-21-01/
     RDKit          3D

 28 31  0  0  0  0  0  0  0  0999 V2000
   -7.9040    3.9820   27.1177 C   0  0  0  0  0  0  0  0  0  0  0  0
   -8.2057    2.8231   26.8733 C   0  0  0  0  0  0  0  0  0  0  0  0
   -8.7463    4.9537   27.6708 C   0  0  0  0  0  0  0  0  0  0  0  0
  -10.0901    4.5164   28.0293 C   0  0  0  0  0  0  0  0  0  0  0  0
   -9.5729    2.3483   27.2382 C   0  0  0  0  0  0  0  0  0  0  0  0
   -9.9205    0.9854   27.0132 C   0  0  0  0  0  0  0  0  0  0  0  0
  -10.4168    3.2492   27.8398 C   0  0  0  0  0  0  0  0  0  0  0  0
  -10.6650    0.6785   25.9223 C   0  0  0  0  0  0  0  0  0  0  0  0
  -10.8885   -0.4718   25.5629 C   0  0  0  0  0  0  0  0  0  0  0  0
   -9.5793    0.0037   27.9479 C   0  0  0  0  0  0  0  0  0  0  0  0
   -9.8746   -1.3128   27.7488 C   0  0  0  0  0  0  0  0  0  0  0  0
  -10.5786   -1.5803   26.5332 C   0  0  0  0  0  0  0  0  0  0  0  0
   -8.3878    6.2097   27.8821 F   0  0  0  0  0  0  0  0  0  0  0  0
  -10.9368   -2.9827   26.2199 C   0  0  0  0  0  0  0  0  0  0  0  0
  -11.4911   -3.3249   25.3923 C   0  0  0  0  0  0  0  0  0  0  0  0
  -11.7939   -4.7403   25.0624 C   0  0  0  0  0  0  0  0  0  0  0  0
  -11.3302   -5.6530   25.9879 C   0  0  0  0  0  0  0  0  0  0  0  0
  -10.6431   -5.2554   27.0681 C   0  0  0  0  0  0  0  0  0  0  0  0
  -10.3588   -3.9030   27.3259 C   0  0  0  0  0  0  0  0  0  0  0  0
  -12.6530   -5.2060   23.7185 Cl  0  0  0  0  0  0  0  0  0  0  0  0
  -11.6312    2.8502   28.2287 O   0  0  0  0  0  0  0  0  0  0  0  0
  -12.7660    3.5808   28.2293 C   0  0  0  0  0  0  0  0  0  0  0  0
  -13.3956    3.6171   29.4573 C   0  0  0  0  0  0  0  0  0  0  0  0
  -14.5530    4.4653   29.6253 C   0  0  0  0  0  0  0  0  0  0  0  0
  -15.2089    4.5993   30.8519 C   0  0  0  0  0  0  0  0  0  0  0  0
  -14.6554    3.9099   31.9908 C   0  0  0  0  0  0  0  0  0  0  0  0
  -13.5280    3.1278   31.8517 C   0  0  0  0  0  0  0  0  0  0  0  0
  -12.8849    2.9994   30.6408 C   0  0  0  0  0  0  0  0  0  0  0  0
  5  6  1  0
  3 13  1  0
 12 14  1  0
 16 20  1  0
  7 21  1  0
 21 22  1  0
 22 23  1  0
 14 15  2  0
 15 16  1  0
 16 17  2  0
 17 18  1  0
 18 19  2  0
 19 14  1  0
  6  8  2  0
  8  9  1  0
  9 12  2  0
 12 11  1  0
 11 10  2  0
 10  6  1  0
 23 24  2  0
 24 25  1  0
 25 26  2  0
 26 27  1  0
 27 28  2  0
 28 23  1  0
  1  2  2  0
  2  5  1  0
  5  7  2  0
  7  4  1  0
  4  3  2  0
  3  1  1  0
M  END
$$$$
