No_3651-complexes_sdf/6BKW-FPZ/2024-09-17-14-21-01/
     RDKit          3D

 31 34  0  0  0  0  0  0  0  0999 V2000
   -7.2496    3.8871   27.4508 C   0  0  0  0  0  0  0  0  0  0  0  0
   -7.6161    2.7143   27.1523 C   0  0  0  0  0  0  0  0  0  0  0  0
   -8.8302    2.4659   26.5056 C   0  0  0  0  0  0  0  0  0  0  0  0
   -8.1584    5.0090   27.3234 C   0  0  0  0  0  0  0  0  0  0  0  0
   -9.2382    4.8823   26.8337 C   0  0  0  0  0  0  0  0  0  0  0  0
   -9.6533    3.6268   26.3156 C   0  0  0  0  0  0  0  0  0  0  0  0
   -6.7443    1.5411   27.3570 C   0  0  0  0  0  0  0  0  0  0  0  0
   -7.1023    0.2039   27.2510 C   0  0  0  0  0  0  0  0  0  0  0  0
   -8.4799    0.1058   26.7129 C   0  0  1  0  0  0  0  0  0  0  0  0
   -9.2914    1.1578   26.3287 C   0  0  1  0  0  0  0  0  0  0  0  0
   -7.4993    6.5710   27.9247 Cl  0  0  0  0  0  0  0  0  0  0  0  0
   -6.3113   -0.8520   27.5980 C   0  0  0  0  0  0  0  0  0  0  0  0
   -5.0191   -0.6176   27.9377 C   0  0  0  0  0  0  0  0  0  0  0  0
   -4.5871    0.7517   27.9636 C   0  0  0  0  0  0  0  0  0  0  0  0
   -5.3634    1.8256   27.7518 C   0  0  0  0  0  0  0  0  0  0  0  0
   -3.2855    1.0431   28.4175 O   0  0  0  0  0  0  0  0  0  0  0  0
  -10.4943    0.9345   25.9036 F   0  0  0  0  0  0  0  0  0  0  0  0
   -9.0899   -1.5034   26.4786 Cl  0  0  0  0  0  0  0  0  0  0  0  0
   -2.3384    0.5316   27.5896 C   0  0  0  0  0  0  0  0  0  0  0  0
   -4.2912   -1.6378   28.3601 O   0  0  0  0  0  0  0  0  0  0  0  0
   -4.8899   -2.4943   29.0838 C   0  0  2  0  0  0  0  0  0  0  0  0
   -5.2766   -2.0142   30.3993 C   0  0  0  0  0  0  0  0  0  0  0  0
   -6.4122   -2.4734   31.0894 C   0  0  0  0  0  0  0  0  0  0  0  0
   -6.6851   -1.9544   32.4044 C   0  0  0  0  0  0  0  0  0  0  0  0
   -5.8355   -1.0018   33.0058 C   0  0  0  0  0  0  0  0  0  0  0  0
   -4.6919   -0.5778   32.2733 C   0  0  0  0  0  0  0  0  0  0  0  0
   -4.4177   -1.1097   31.0674 C   0  0  0  0  0  0  0  0  0  0  0  0
   -3.9226   -3.6751   29.3266 C   0  0  0  0  0  0  0  0  0  0  0  0
   -2.9754   -3.5010   30.0326 F   0  0  0  0  0  0  0  0  0  0  0  0
   -3.4637   -4.1212   28.1000 F   0  0  0  0  0  0  0  0  0  0  0  0
   -4.8335   -5.0820   29.9199 Cl  0  0  0  0  0  0  0  0  0  0  0  0
  2  7  1  0
  8  9  1  0
  3 10  1  0
  9 10  1  0
  4 11  1  0
 14 16  1  0
 10 17  1  1
  9 18  1  6
 16 19  1  0
 13 20  1  0
 21 20  1  6
 21 22  1  0
 21 28  1  0
 28 29  1  0
 28 30  1  0
 28 31  1  0
  7  8  2  0
  8 12  1  0
 12 13  2  0
 13 14  1  0
 14 15  2  0
 15  7  1  0
 22 23  2  0
 23 24  1  0
 24 25  2  0
 25 26  1  0
 26 27  2  0
 27 22  1  0
  1  2  2  0
  2  3  1  0
  3  6  2  0
  6  5  1  0
  5  4  2  0
  4  1  1  0
M  END
$$$$
