No_3675-complexes_sdf/6BKW-FPZ/2024-09-17-14-21-01/
     RDKit          3D

 30 33  0  0  0  0  0  0  0  0999 V2000
   -7.9040    3.9820   27.1177 C   0  0  0  0  0  0  0  0  0  0  0  0
   -9.0711    4.3164   27.0630 C   0  0  0  0  0  0  0  0  0  0  0  0
   -9.5294    5.4517   27.7215 C   0  0  0  0  0  0  0  0  0  0  0  0
   -9.9845    3.5634   26.2189 C   0  0  0  0  0  0  0  0  0  0  0  0
   -9.6295    2.5733   25.6121 C   0  0  0  0  0  0  0  0  0  0  0  0
   -7.4279    2.5995   26.8424 C   0  0  0  0  0  0  0  0  0  0  0  0
   -8.3597    1.9436   25.9858 C   0  0  0  0  0  0  0  0  0  0  0  0
   -7.9353    0.6212   25.4813 C   0  0  0  0  0  0  0  0  0  0  0  0
   -8.5493   -0.2801   25.8577 O   0  0  0  0  0  0  0  0  0  0  0  0
   -7.0430    0.5344   24.6197 O   0  0  0  0  0  0  0  0  0  0  0  0
   -6.8053    4.7355   28.3430 Cl  0  0  0  0  0  0  0  0  0  0  0  0
   -6.8040   -0.8468   24.0725 C   0  0  2  0  0  0  0  0  0  0  0  0
   -5.7145   -1.5104   24.5684 C   0  0  2  0  0  0  0  0  0  0  0  0
   -5.0318   -0.8185   25.5427 C   0  0  0  0  0  0  0  0  0  0  0  0
   -4.6834   -1.5295   26.7871 C   0  0  0  0  0  0  0  0  0  0  0  0
   -3.8609   -1.4906   27.3568 C   0  0  0  0  0  0  0  0  0  0  0  0
   -3.6258   -2.1946   28.7129 C   0  0  0  0  0  0  0  0  0  0  0  0
   -4.7394   -2.7479   29.2847 C   0  0  0  0  0  0  0  0  0  0  0  0
   -5.9111   -2.3118   27.2684 C   0  0  0  0  0  0  0  0  0  0  0  0
   -5.8777   -2.7973   28.5521 C   0  0  0  0  0  0  0  0  0  0  0  0
   -6.7993   -0.5760   22.7503 C   0  0  0  0  0  0  0  0  0  0  0  0
   -7.8476   -1.1806   21.9738 C   0  0  0  0  0  0  0  0  0  0  0  0
   -8.7668   -1.8115   22.6941 C   0  0  0  0  0  0  0  0  0  0  0  0
   -9.9286   -2.1093   21.9476 C   0  0  0  0  0  0  0  0  0  0  0  0
  -11.0696   -2.6852   22.5450 C   0  0  0  0  0  0  0  0  0  0  0  0
  -10.9579   -2.9749   23.8919 C   0  0  0  0  0  0  0  0  0  0  0  0
   -9.8030   -2.7144   24.6104 C   0  0  0  0  0  0  0  0  0  0  0  0
   -8.7726   -2.1187   24.0378 C   0  0  0  0  0  0  0  0  0  0  0  0
   -7.6296   -1.6189   24.6867 N   0  0  0  0  0  0  0  0  0  0  0  0
   -5.1068   -2.6002   23.9840 C   0  0  0  0  0  0  0  0  0  0  0  0
  2  3  1  0
  7  8  1  0
  8  9  2  0
  8 10  1  0
  1 11  1  0
 12 10  1  1
 12 13  1  0
 13 14  1  0
 14 15  1  0
 12 21  1  0
 21 22  1  0
 12 29  1  0
 28 29  1  0
 13 30  1  6
 22 23  1  0
  1  2  2  0
  2  4  1  0
  4  5  2  0
  5  7  1  0
  7  6  2  0
  6  1  1  0
 23 24  2  0
 24 25  1  0
 25 26  2  0
 26 27  1  0
 27 28  2  0
 28 23  1  0
 15 16  2  0
 16 17  1  0
 17 18  2  0
 18 20  1  0
 20 19  2  0
 19 15  1  0
M  END
$$$$
