No_3034-complexes_sdf/6BKW-FPZ/2024-09-17-14-21-01/
     RDKit          3D

 28 31  0  0  0  0  0  0  0  0999 V2000
   -7.9040    3.9820   27.1177 C   0  0  0  0  0  0  0  0  0  0  0  0
   -9.0711    4.3164   27.0630 C   0  0  0  0  0  0  0  0  0  0  0  0
   -9.5182    5.5541   27.5777 C   0  0  0  0  0  0  0  0  0  0  0  0
   -7.4468    2.6843   26.6499 C   0  0  0  0  0  0  0  0  0  0  0  0
   -8.3856    1.7878   26.2216 C   0  0  0  0  0  0  0  0  0  0  0  0
   -9.6812    2.2328   26.0889 C   0  0  0  0  0  0  0  0  0  0  0  0
  -10.0147    3.4312   26.5259 C   0  0  0  0  0  0  0  0  0  0  0  0
   -7.9143    0.4677   25.8109 C   0  0  0  0  0  0  0  0  0  0  0  0
   -7.9163    0.1471   24.6808 O   0  0  0  0  0  0  0  0  0  0  0  0
   -7.4978   -0.3883   26.7373 O   0  0  0  0  0  0  0  0  0  0  0  0
   -8.5533    6.6628   27.4953 C   0  0  0  0  0  0  0  0  0  0  0  0
   -6.8312    4.8799   27.6451 C   0  0  0  0  0  0  0  0  0  0  0  0
   -7.2300    6.2122   27.8592 C   0  0  0  0  0  0  0  0  0  0  0  0
   -7.0505   -1.5747   26.5718 C   0  0  0  0  0  0  0  0  0  0  0  0
   -5.8917   -1.7374   26.5373 C   0  0  0  0  0  0  0  0  0  0  0  0
   -5.0127   -0.7257   27.1236 C   0  0  0  0  0  0  0  0  0  0  0  0
   -3.5370   -0.7783   26.9491 C   0  0  0  0  0  0  0  0  0  0  0  0
   -2.7217    0.2985   27.4468 C   0  0  0  0  0  0  0  0  0  0  0  0
   -3.3347    1.2966   28.2448 C   0  0  0  0  0  0  0  0  0  0  0  0
   -4.7358    1.2276   28.5078 C   0  0  0  0  0  0  0  0  0  0  0  0
   -5.4384    0.2930   27.9419 C   0  0  0  0  0  0  0  0  0  0  0  0
   -7.5704   -2.3234   27.9403 C   0  0  0  0  0  0  0  0  0  0  0  0
   -8.8561   -2.7351   27.8929 C   0  0  0  0  0  0  0  0  0  0  0  0
   -9.5539   -2.9626   27.0085 C   0  0  0  0  0  0  0  0  0  0  0  0
  -10.9917   -3.3663   27.0616 C   0  0  0  0  0  0  0  0  0  0  0  0
  -11.4637   -3.1248   27.9554 C   0  0  0  0  0  0  0  0  0  0  0  0
  -10.9790   -2.6497   29.2606 C   0  0  0  0  0  0  0  0  0  0  0  0
   -9.6231   -2.4007   29.2574 C   0  0  0  0  0  0  0  0  0  0  0  0
  5  8  1  0
  8  9  2  0
  8 10  1  0
 10 14  1  0
 14 15  2  3
 15 16  1  0
 14 22  1  0
 22 23  1  0
 23 24  2  0
 24 25  1  0
 25 26  2  0
 26 27  1  0
 27 28  2  0
 28 23  1  0
  2  3  2  0
  3 11  1  0
 11 13  2  0
 13 12  1  0
 12  1  2  0
  1  2  1  0
  2  7  1  0
  7  6  2  0
  6  5  1  0
  5  4  2  0
  4  1  1  0
 16 17  2  0
 17 18  1  0
 18 19  2  0
 19 20  1  0
 20 21  2  0
 21 16  1  0
M  END
$$$$
