No_3406-complexes_sdf/6BKW-FPZ/2024-09-17-14-21-01/
     RDKit          3D

 13 14  0  0  0  0  0  0  0  0999 V2000
   -7.9040    3.9820   27.1177 C   0  0  0  0  0  0  0  0  0  0  0  0
   -7.8663    4.8694   27.9238 C   0  0  0  0  0  0  0  0  0  0  0  0
   -9.0501    3.8017   26.2617 C   0  0  0  0  0  0  0  0  0  0  0  0
   -9.1826    2.7026   25.3575 C   0  0  0  0  0  0  0  0  0  0  0  0
   -8.6940    6.0131   27.8614 C   0  0  0  0  0  0  0  0  0  0  0  0
   -9.9755    4.8547   26.2361 C   0  0  0  0  0  0  0  0  0  0  0  0
   -9.7463    5.9398   27.0364 C   0  0  0  0  0  0  0  0  0  0  0  0
   -8.7003    1.4603   25.7663 C   0  0  0  0  0  0  0  0  0  0  0  0
   -8.8305    0.3583   24.9242 C   0  0  0  0  0  0  0  0  0  0  0  0
   -8.2859   -0.8541   25.2910 C   0  0  0  0  0  0  0  0  0  0  0  0
   -7.6025   -0.9843   26.5442 C   0  0  0  0  0  0  0  0  0  0  0  0
   -7.4958    0.0891   27.4019 C   0  0  0  0  0  0  0  0  0  0  0  0
   -7.9778    1.2887   27.0550 C   0  0  0  0  0  0  0  0  0  0  0  0
  3  4  1  0
  4  8  1  0
  8  9  2  0
  9 10  1  0
 10 11  2  0
 11 12  1  0
 12 13  2  0
 13  8  1  0
  1  2  2  0
  2  5  1  0
  5  7  2  0
  7  6  1  0
  6  3  2  0
  3  1  1  0
M  END
$$$$
