No_3439-complexes_sdf/6BKW-FPZ/2024-09-17-14-21-01/
     RDKit          3D

 40 44  0  0  0  0  0  0  0  0999 V2000
   -7.9040    3.9820   27.1177 C   0  0  0  0  0  0  0  0  0  0  0  0
   -8.2057    2.8231   26.8733 C   0  0  0  0  0  0  0  0  0  0  0  0
   -8.7463    4.9537   27.6708 C   0  0  0  0  0  0  0  0  0  0  0  0
  -10.0901    4.5164   28.0293 C   0  0  0  0  0  0  0  0  0  0  0  0
   -9.5729    2.3483   27.2382 C   0  0  0  0  0  0  0  0  0  0  0  0
   -9.9205    0.9854   27.0132 C   0  0  0  0  0  0  0  0  0  0  0  0
  -10.4168    3.2492   27.8398 C   0  0  0  0  0  0  0  0  0  0  0  0
   -9.0013    0.0711   26.9867 C   0  0  0  0  0  0  0  0  0  0  0  0
   -7.6367    0.4750   26.6588 C   0  0  0  0  0  0  0  0  0  0  0  0
   -7.2656    1.8161   26.7426 C   0  0  0  0  0  0  0  0  0  0  0  0
   -8.3209    6.6523   27.7681 Cl  0  0  0  0  0  0  0  0  0  0  0  0
   -6.7143   -0.6756   26.4585 C   0  0  0  0  0  0  0  0  0  0  0  0
   -5.5980   -0.6794   27.2382 C   0  0  0  0  0  0  0  0  0  0  0  0
   -5.5431   -0.4159   28.4859 C   0  0  0  0  0  0  0  0  0  0  0  0
   -4.2858   -0.3573   29.3159 C   0  0  0  0  0  0  0  0  0  0  0  0
   -3.1389   -0.5262   28.6432 C   0  0  0  0  0  0  0  0  0  0  0  0
   -3.1050   -0.7106   27.2768 C   0  0  0  0  0  0  0  0  0  0  0  0
   -4.3085   -0.7453   26.5509 C   0  0  0  0  0  0  0  0  0  0  0  0
   -4.3243   -0.1017   30.7726 C   0  0  0  0  0  0  0  0  0  0  0  0
   -3.3537    0.1604   31.4022 O   0  0  0  0  0  0  0  0  0  0  0  0
   -5.4945   -0.4228   31.3593 O   0  0  0  0  0  0  0  0  0  0  0  0
   -5.4011   -1.1335   32.5765 C   0  0  0  0  0  0  0  0  0  0  0  0
   -4.6326   -0.7918   33.5265 C   0  0  0  0  0  0  0  0  0  0  0  0
   -6.5551   -2.0330   32.6801 C   0  0  0  0  0  0  0  0  0  0  0  0
   -4.8145   -1.4321   34.8340 C   0  0  0  0  0  0  0  0  0  0  0  0
   -6.7166   -2.5771   34.0202 C   0  0  0  0  0  0  0  0  0  0  0  0
   -5.8469   -2.2622   35.0730 C   0  0  0  0  0  0  0  0  0  0  0  0
   -3.8476   -1.0403   35.9325 C   0  0  0  0  0  0  0  0  0  0  0  0
   -2.6198   -0.9788   35.7659 N   0  0  0  0  0  0  0  0  0  0  0  0
   -1.7664   -0.3936   36.5943 C   0  0  0  0  0  0  0  0  0  0  0  0
   -2.2832    0.2643   37.7174 C   0  0  0  0  0  0  0  0  0  0  0  0
   -4.3954   -0.3156   37.0639 C   0  0  0  0  0  0  0  0  0  0  0  0
   -3.6281    0.3327   37.9371 C   0  0  0  0  0  0  0  0  0  0  0  0
   -4.2082    1.0428   39.1153 C   0  0  0  0  0  0  0  0  0  0  0  0
   -4.2041    0.4488   40.1334 O   0  0  0  0  0  0  0  0  0  0  0  0
   -4.7383    2.2509   38.8811 O   0  0  0  0  0  0  0  0  0  0  0  0
   -0.4079   -0.2250   36.4407 N   0  0  0  0  0  0  0  0  0  0  0  0
    0.1486   -0.5014   35.1720 C   0  0  0  0  0  0  0  0  0  0  0  0
    1.1972   -1.4727   35.2331 C   0  0  0  0  0  0  0  0  0  0  0  0
    2.2490   -1.0057   35.4638 C   0  0  0  0  0  0  0  0  0  0  0  0
  3 11  1  0
  9 12  1  0
 12 13  1  0
 15 19  1  0
 19 20  2  0
 19 21  1  0
 21 22  1  0
 25 28  1  0
 33 34  1  0
 34 35  2  0
 34 36  1  0
 30 37  1  0
 37 38  1  0
 38 39  1  0
 39 40  1  0
 28 29  2  0
 29 30  1  0
 30 31  2  0
 31 33  1  0
 33 32  2  0
 32 28  1  0
  1  2  2  0
  5  7  2  0
  7  4  1  0
  4  3  2  0
  3  1  1  0
  2  5  1  0
  5  6  1  0
  6  8  2  0
  8  9  1  0
  9 10  2  0
 10  2  1  0
 13 14  2  0
 14 15  1  0
 15 16  2  0
 16 17  1  0
 17 18  2  0
 18 13  1  0
 22 23  2  0
 23 25  1  0
 25 27  2  0
 27 26  1  0
 26 24  2  0
 24 22  1  0
M  END
$$$$
