No_3982-complexes_sdf/6BKW-FPZ/2024-09-17-14-21-01/
     RDKit          3D

 25 28  0  0  0  0  0  0  0  0999 V2000
   -7.2496    3.8871   27.4508 C   0  0  0  0  0  0  0  0  0  0  0  0
   -7.9379    4.9063   27.8518 C   0  0  0  0  0  0  0  0  0  0  0  0
   -8.7729    5.5444   27.0168 C   0  0  0  0  0  0  0  0  0  0  0  0
   -6.2858    3.2138   28.3467 C   0  0  0  0  0  0  0  0  0  0  0  0
   -9.2459    4.9714   25.8185 C   0  0  0  0  0  0  0  0  0  0  0  0
   -8.7245    3.6550   25.5132 C   0  0  0  0  0  0  0  0  0  0  0  0
   -7.8326    3.1219   26.4052 C   0  0  0  0  0  0  0  0  0  0  0  0
   -5.6873    1.9697   27.9543 C   0  0  0  0  0  0  0  0  0  0  0  0
   -4.5740    1.4852   28.6364 C   0  0  0  0  0  0  0  0  0  0  0  0
   -4.2870    0.1180   28.6789 C   0  0  0  0  0  0  0  0  0  0  0  0
   -5.0506   -0.7098   27.7865 C   0  0  0  0  0  0  0  0  0  0  0  0
   -6.0942   -0.2347   27.0545 C   0  0  0  0  0  0  0  0  0  0  0  0
   -6.4902    1.0880   27.2073 C   0  0  0  0  0  0  0  0  0  0  0  0
   -7.4646    1.7476   26.2103 N   0  0  0  0  0  0  0  0  0  0  0  0
   -3.0839   -0.3714   29.3769 C   0  0  0  0  0  0  0  0  0  0  0  0
   -3.1047   -0.2898   30.6913 N   0  0  0  0  0  0  0  0  0  0  0  0
   -3.7727    0.2974   31.5129 C   0  0  0  0  0  0  0  0  0  0  0  0
   -1.9755   -1.1873   31.3137 C   0  0  0  0  0  0  0  0  0  0  0  0
   -2.1287   -0.6832   28.6788 O   0  0  0  0  0  0  0  0  0  0  0  0
   -8.1281    0.9014   25.3262 C   0  0  0  0  0  0  0  0  0  0  0  0
   -8.8710    0.1150   25.7346 C   0  0  0  0  0  0  0  0  0  0  0  0
   -9.6107   -0.6648   24.9177 C   0  0  0  0  0  0  0  0  0  0  0  0
   -9.4287   -0.4876   23.5360 C   0  0  0  0  0  0  0  0  0  0  0  0
   -8.5362    0.4902   23.0291 C   0  0  0  0  0  0  0  0  0  0  0  0
   -7.8502    1.2106   23.9941 C   0  0  0  0  0  0  0  0  0  0  0  0
  1  4  1  0
  7 14  1  0
 13 14  1  0
 10 15  1  0
 15 16  1  0
 16 17  1  0
 16 18  1  0
 15 19  2  0
 14 20  1  0
  4  8  1  0
  8  9  2  0
  9 10  1  0
 10 11  2  0
 11 12  1  0
 12 13  2  0
 13  8  1  0
 20 21  2  0
 21 22  1  0
 22 23  2  0
 23 24  1  0
 24 25  2  0
 25 20  1  0
  1  2  2  0
  2  3  1  0
  3  5  2  0
  5  6  1  0
  6  7  2  0
  7  1  1  0
M  END
$$$$
