No_3564-complexes_sdf/6BKW-FPZ/2024-09-17-14-21-01/
     RDKit          3D

  9  9  0  0  0  0  0  0  0  0999 V2000
   -7.9040    3.9820   27.1177 C   0  0  0  0  0  0  0  0  0  0  0  0
   -8.2057    2.8231   26.8733 C   0  0  0  0  0  0  0  0  0  0  0  0
   -8.7463    4.9537   27.6708 C   0  0  0  0  0  0  0  0  0  0  0  0
   -8.3921    6.3606   27.8466 C   0  0  0  0  0  0  0  0  0  0  0  0
   -7.2888    1.7783   26.5516 C   0  0  0  0  0  0  0  0  0  0  0  0
   -9.6147    2.4048   26.8259 C   0  0  0  0  0  0  0  0  0  0  0  0
  -10.0054    1.1529   26.5070 C   0  0  0  0  0  0  0  0  0  0  0  0
   -7.7099    0.4586   26.3430 C   0  0  0  0  0  0  0  0  0  0  0  0
   -9.0445    0.1619   26.3605 C   0  0  0  0  0  0  0  0  0  0  0  0
  1  2  1  0
  1  3  2  3
  3  4  1  0
  2  5  2  0
  5  8  1  0
  8  9  2  0
  9  7  1  0
  7  6  2  0
  6  2  1  0
M  END
$$$$
