No_3629-complexes_sdf/6BKW-FPZ/2024-09-17-14-21-01/
     RDKit          3D

 16 17  0  0  0  0  0  0  0  0999 V2000
   -7.7129    4.2099   27.0854 C   0  0  0  0  0  0  0  0  0  0  0  0
   -7.7814    5.1722   27.8972 C   0  0  0  0  0  0  0  0  0  0  0  0
   -8.8776    3.8408   26.3416 C   0  0  0  0  0  0  0  0  0  0  0  0
   -9.9844    4.6492   26.4743 C   0  0  0  0  0  0  0  0  0  0  0  0
   -8.7830    6.1594   27.8870 C   0  0  0  0  0  0  0  0  0  0  0  0
   -9.9269    5.8191   27.1183 C   0  0  0  0  0  0  0  0  0  0  0  0
   -8.8618    2.6242   25.5633 C   0  0  0  0  0  0  0  0  0  0  0  0
   -9.6731    1.7818   25.8368 N   0  0  0  0  0  0  0  0  0  0  0  0
   -9.6428    0.5926   25.4263 C   0  0  0  0  0  0  0  0  0  0  0  0
   -8.7274    0.2468   24.5597 C   0  0  0  0  0  0  0  0  0  0  0  0
   -8.0014   -0.8159   24.5271 C   0  0  0  0  0  0  0  0  0  0  0  0
   -6.8465   -0.9496   23.6395 C   0  0  0  0  0  0  0  0  0  0  0  0
   -6.8341   -0.1623   22.4864 C   0  0  0  0  0  0  0  0  0  0  0  0
   -7.7802    0.8101   22.3977 C   0  0  0  0  0  0  0  0  0  0  0  0
   -8.6580    1.0953   23.3575 C   0  0  0  0  0  0  0  0  0  0  0  0
  -10.5288   -0.2699   25.6815 O   0  0  0  0  0  0  0  0  0  0  0  0
  3  7  1  0
  7  8  1  0
  8  9  1  0
  9 10  1  0
  9 16  2  0
  1  2  2  0
  2  5  1  0
  5  6  2  0
  6  4  1  0
  4  3  2  0
  3  1  1  0
 10 11  2  0
 11 12  1  0
 12 13  2  0
 13 14  1  0
 14 15  2  0
 15 10  1  0
M  END
$$$$
