No_3896-complexes_sdf/6BKW-FPZ/2024-09-17-14-21-01/
     RDKit          3D

 11 11  0  0  0  0  0  0  0  0999 V2000
   -7.2496    3.8871   27.4508 C   0  0  0  0  0  0  0  0  0  0  0  0
   -7.6161    2.7143   27.1523 C   0  0  0  0  0  0  0  0  0  0  0  0
   -8.6212    2.2239   26.4073 C   0  0  0  0  0  0  0  0  0  0  0  0
   -8.2540    4.9237   27.1711 C   0  0  0  0  0  0  0  0  0  0  0  0
   -9.3729    4.5806   26.4433 C   0  0  0  0  0  0  0  0  0  0  0  0
   -9.5830    3.2969   26.1026 C   0  0  0  0  0  0  0  0  0  0  0  0
   -7.9303    6.3207   27.5389 C   0  0  0  0  0  0  0  0  0  0  0  0
   -7.6115    6.9675   26.7830 F   0  0  0  0  0  0  0  0  0  0  0  0
   -8.8937    0.8761   26.0625 C   0  0  0  0  0  0  0  0  0  0  0  0
   -9.2594    0.0434   27.0119 C   0  0  0  0  0  0  0  0  0  0  0  0
   -9.5113   -1.3587   26.8568 C   0  0  0  0  0  0  0  0  0  0  0  0
  4  7  1  0
  7  8  1  0
  3  9  1  0
  9 10  2  3
 10 11  1  0
  1  2  2  0
  2  3  1  0
  3  6  2  0
  6  5  1  0
  5  4  2  0
  4  1  1  0
M  END
$$$$
