No_3098-complexes_sdf/6BKW-FPZ/2024-09-17-14-21-01/
     RDKit          3D

 16 17  0  0  0  0  0  0  0  0999 V2000
   -7.7129    4.2099   27.0854 C   0  0  0  0  0  0  0  0  0  0  0  0
   -7.7814    5.1722   27.8972 C   0  0  0  0  0  0  0  0  0  0  0  0
   -7.3155    2.9699   27.6145 C   0  0  0  0  0  0  0  0  0  0  0  0
   -7.9010    1.7962   27.2023 C   0  0  0  0  0  0  0  0  0  0  0  0
   -8.9578    1.9047   26.2707 C   0  0  0  0  0  0  0  0  0  0  0  0
   -9.3989    3.1000   25.8096 C   0  0  0  0  0  0  0  0  0  0  0  0
   -8.8948    4.1615   26.3218 C   0  0  0  0  0  0  0  0  0  0  0  0
   -7.0802    5.2826   29.0290 N   0  0  0  0  0  0  0  0  0  0  0  0
   -8.2136    6.4517   27.5393 O   0  0  0  0  0  0  0  0  0  0  0  0
  -10.4693    3.1155   24.7777 C   0  0  0  0  0  0  0  0  0  0  0  0
  -10.3441    2.5408   23.5824 C   0  0  0  0  0  0  0  0  0  0  0  0
  -11.1311    2.8528   22.4951 C   0  0  0  0  0  0  0  0  0  0  0  0
  -12.1442    3.8444   22.6816 C   0  0  0  0  0  0  0  0  0  0  0  0
  -12.2726    4.4758   23.8932 C   0  0  0  0  0  0  0  0  0  0  0  0
  -11.4132    4.2480   24.9318 C   0  0  0  0  0  0  0  0  0  0  0  0
   -7.1992    0.2967   27.6584 Cl  0  0  0  0  0  0  0  0  0  0  0  0
  1  2  1  0
  2  8  1  0
  2  9  2  0
  6 10  1  0
  4 16  1  0
 10 11  2  0
 11 12  1  0
 12 13  2  0
 13 14  1  0
 14 15  2  0
 15 10  1  0
  1  3  2  0
  3  4  1  0
  4  5  2  0
  5  6  1  0
  6  7  2  0
  7  1  1  0
M  END
$$$$
