No_3253-complexes_sdf/6BKW-FPZ/2024-09-17-14-21-01/
     RDKit          3D

 16 17  0  0  0  0  0  0  0  0999 V2000
   -7.7129    4.2099   27.0854 C   0  0  0  0  0  0  0  0  0  0  0  0
   -7.7814    5.1722   27.8972 C   0  0  0  0  0  0  0  0  0  0  0  0
   -8.8998    3.8713   26.3707 C   0  0  0  0  0  0  0  0  0  0  0  0
   -9.9938    4.6774   26.5446 C   0  0  0  0  0  0  0  0  0  0  0  0
   -8.7789    6.1536   27.9256 C   0  0  0  0  0  0  0  0  0  0  0  0
   -9.9428    5.8398   27.2296 C   0  0  0  0  0  0  0  0  0  0  0  0
   -8.9061    2.7721   25.6348 F   0  0  0  0  0  0  0  0  0  0  0  0
  -11.1670    4.3362   25.7086 C   0  0  0  0  0  0  0  0  0  0  0  0
  -10.9644    4.0826   24.2961 C   0  0  0  0  0  0  0  0  0  0  0  0
  -12.0183    3.8625   23.4714 C   0  0  0  0  0  0  0  0  0  0  0  0
  -13.3041    3.9883   23.9460 C   0  0  0  0  0  0  0  0  0  0  0  0
  -13.5128    4.3156   25.3350 C   0  0  0  0  0  0  0  0  0  0  0  0
  -12.4023    4.5373   26.1987 C   0  0  0  0  0  0  0  0  0  0  0  0
  -14.8715    4.4574   25.8581 C   0  0  0  0  0  0  0  0  0  0  0  0
  -15.7115    5.0563   25.4396 N   0  0  0  0  0  0  0  0  0  0  0  0
  -16.9544    5.2672   26.0020 C   0  0  0  0  0  0  0  0  0  0  0  0
  3  7  1  0
  4  8  1  0
 12 14  1  0
 14 15  2  3
 15 16  1  0
  8  9  2  0
  9 10  1  0
 10 11  2  0
 11 12  1  0
 12 13  2  0
 13  8  1  0
  1  2  2  0
  2  5  1  0
  5  6  2  0
  6  4  1  0
  4  3  2  0
  3  1  1  0
M  END
$$$$
