No_3220-complexes_sdf/6BKW-FPZ/2024-09-17-14-21-01/
     RDKit          3D

 25 28  0  0  0  0  0  0  0  0999 V2000
   -7.7129    4.2099   27.0854 C   0  0  0  0  0  0  0  0  0  0  0  0
   -8.2112    3.0637   26.9225 C   0  0  0  0  0  0  0  0  0  0  0  0
   -8.5108    5.3904   26.9436 C   0  0  0  0  0  0  0  0  0  0  0  0
   -9.7256    5.1955   26.3518 C   0  0  0  0  0  0  0  0  0  0  0  0
   -9.4995    2.8258   26.4878 C   0  0  0  0  0  0  0  0  0  0  0  0
  -10.2542    3.9691   26.2055 C   0  0  0  0  0  0  0  0  0  0  0  0
   -7.9456    6.5695   27.1656 F   0  0  0  0  0  0  0  0  0  0  0  0
   -7.3632    1.8215   27.2517 C   0  0  0  0  0  0  0  0  0  0  0  0
   -7.7961    0.5274   27.0926 C   0  0  0  0  0  0  0  0  0  0  0  0
   -6.9365   -0.4780   27.3491 C   0  0  0  0  0  0  0  0  0  0  0  0
   -5.6514   -0.2280   27.8572 C   0  0  0  0  0  0  0  0  0  0  0  0
   -5.2254    1.0861   28.0539 C   0  0  0  0  0  0  0  0  0  0  0  0
   -5.9972    2.0906   27.7441 C   0  0  0  0  0  0  0  0  0  0  0  0
   -4.7524   -1.3699   28.2242 C   0  0  0  0  0  0  0  0  0  0  0  0
   -4.9758   -2.1702   29.0491 C   0  0  0  0  0  0  0  0  0  0  0  0
   -4.0217   -3.2140   29.4578 C   0  0  0  0  0  0  0  0  0  0  0  0
   -2.7848   -3.1865   28.8467 C   0  0  0  0  0  0  0  0  0  0  0  0
   -3.4243   -1.2357   27.6686 C   0  0  0  0  0  0  0  0  0  0  0  0
   -2.4605   -2.1687   27.9067 C   0  0  0  0  0  0  0  0  0  0  0  0
  -11.6117    3.8321   25.6190 C   0  0  0  0  0  0  0  0  0  0  0  0
  -12.6738    3.8338   26.4622 C   0  0  0  0  0  0  0  0  0  0  0  0
  -13.9790    3.9704   26.0189 C   0  0  0  0  0  0  0  0  0  0  0  0
  -14.1544    3.9315   24.6107 C   0  0  0  0  0  0  0  0  0  0  0  0
  -11.8474    3.9044   24.2469 C   0  0  0  0  0  0  0  0  0  0  0  0
  -13.0718    3.9911   23.7581 C   0  0  0  0  0  0  0  0  0  0  0  0
  3  7  1  0
  2  8  1  0
 11 14  1  0
  6 20  1  0
 20 21  2  0
 21 22  1  0
 22 23  2  0
 23 25  1  0
 25 24  2  0
 24 20  1  0
 14 15  2  0
 15 16  1  0
 16 17  2  0
 17 19  1  0
 19 18  2  0
 18 14  1  0
  8  9  2  0
  9 10  1  0
 10 11  2  0
 11 12  1  0
 12 13  2  0
 13  8  1  0
  1  2  2  0
  2  5  1  0
  5  6  2  0
  6  4  1  0
  4  3  2  0
  3  1  1  0
M  END
$$$$
