No_3542-complexes_sdf/6BKW-FPZ/2024-09-17-14-21-01/
     RDKit          3D

 30 32  0  0  0  0  0  0  0  0999 V2000
   -7.2496    3.8871   27.4508 C   0  0  0  0  0  0  0  0  0  0  0  0
   -7.9379    4.9063   27.8518 C   0  0  0  0  0  0  0  0  0  0  0  0
   -7.5112    6.1898   27.6280 C   0  0  0  0  0  0  0  0  0  0  0  0
   -7.8078    2.6331   27.2522 C   0  0  0  0  0  0  0  0  0  0  0  0
   -9.0519    2.5742   27.1375 C   0  0  0  0  0  0  0  0  0  0  0  0
   -9.6897    1.2369   26.9289 C   0  0  0  0  0  0  0  0  0  0  0  0
   -9.0503    0.3261   26.8678 C   0  0  0  0  0  0  0  0  0  0  0  0
   -7.6177    0.2400   26.9762 C   0  0  0  0  0  0  0  0  0  0  0  0
   -6.9899    1.3407   27.1476 C   0  0  0  0  0  0  0  0  0  0  0  0
   -9.3486    4.7382   28.2010 C   0  0  0  0  0  0  0  0  0  0  0  0
   -9.9427    3.5145   27.9046 C   0  0  1  0  0  0  0  0  0  0  0  0
  -11.3485    3.3320   28.1006 C   0  0  0  0  0  0  0  0  0  0  0  0
  -11.8129    2.4195   28.9120 C   0  0  0  0  0  0  0  0  0  0  0  0
  -13.1061    2.3388   29.1560 C   0  0  0  0  0  0  0  0  0  0  0  0
  -12.2259    4.2317   27.5601 C   0  0  0  0  0  0  0  0  0  0  0  0
  -13.5413    4.3364   27.8353 C   0  0  0  0  0  0  0  0  0  0  0  0
  -14.0320    3.3720   28.6728 C   0  0  0  0  0  0  0  0  0  0  0  0
  -15.6928    3.3189   29.0618 Cl  0  0  0  0  0  0  0  0  0  0  0  0
   -5.6554    1.4564   27.2909 O   0  0  0  0  0  0  0  0  0  0  0  0
   -5.0012    1.4877   28.4998 C   0  0  2  0  0  0  0  0  0  0  0  0
   -4.0114    0.2744   28.6100 C   0  0  0  0  0  0  0  0  0  0  0  0
   -3.3655   -0.0447   27.5335 C   0  0  0  0  0  0  0  0  0  0  0  0
   -3.9119   -0.3350   29.8135 C   0  0  0  0  0  0  0  0  0  0  0  0
   -4.3173   -1.1882   30.1516 C   0  0  0  0  0  0  0  0  0  0  0  0
   -4.3395   -1.7916   31.3251 C   0  0  0  0  0  0  0  0  0  0  0  0
   -4.1437   -1.2866   32.2410 C   0  0  0  0  0  0  0  0  0  0  0  0
   -3.3878    0.0532   32.2080 C   0  0  0  0  0  0  0  0  0  0  0  0
   -3.3351    0.5961   30.9936 C   0  0  0  0  0  0  0  0  0  0  0  0
   -2.6548   -0.7097   28.8931 P   0  0  0  0  0  0  0  0  0  0  0  0
   -5.2957    0.9209   30.1096 Cl  0  0  0  0  0  0  0  0  0  0  0  0
  1  2  1  0
  2  3  2  0
  1  4  1  0
  2 10  1  0
  5 11  1  0
 10 11  1  0
 11 12  1  6
 17 18  1  0
  9 19  1  0
 19 20  1  0
 20 21  1  0
 21 22  1  0
 21 23  1  0
 23 24  2  3
 24 25  1  0
 25 26  2  3
 26 27  1  0
 27 28  2  0
 22 29  1  0
 20 30  1  1
 12 13  2  0
 13 14  1  0
 14 17  2  0
 17 16  1  0
 16 15  2  0
 15 12  1  0
  4  5  2  0
  5  6  1  0
  6  7  2  0
  7  8  1  0
  8  9  2  0
  9  4  1  0
M  END
$$$$
