No_3699-complexes_sdf/6BKW-FPZ/2024-09-17-14-21-01/
     RDKit          3D

 39 44  0  0  0  0  0  0  0  0999 V2000
   -7.9040    3.9820   27.1177 C   0  0  0  0  0  0  0  0  0  0  0  0
   -7.8663    4.8694   27.9238 C   0  0  0  0  0  0  0  0  0  0  0  0
   -9.0501    3.8017   26.2617 C   0  0  0  0  0  0  0  0  0  0  0  0
   -9.1826    2.7026   25.3575 C   0  0  0  0  0  0  0  0  0  0  0  0
   -8.6940    6.0131   27.8614 C   0  0  0  0  0  0  0  0  0  0  0  0
   -9.9755    4.8547   26.2361 C   0  0  0  0  0  0  0  0  0  0  0  0
   -9.7463    5.9398   27.0364 C   0  0  0  0  0  0  0  0  0  0  0  0
  -10.1245    1.8871   25.7330 C   0  0  0  0  0  0  0  0  0  0  0  0
  -10.1275    0.7205   25.0793 C   0  0  0  0  0  0  0  0  0  0  0  0
   -9.7225    0.6319   24.0269 C   0  0  0  0  0  0  0  0  0  0  0  0
   -8.8559    1.5801   23.3235 C   0  0  0  0  0  0  0  0  0  0  0  0
   -8.5865    2.6691   24.1239 C   0  0  0  0  0  0  0  0  0  0  0  0
   -7.0136    2.8889   27.2471 N   0  0  0  0  0  0  0  0  0  0  0  0
   -5.7818    2.9858   27.6337 C   0  0  0  0  0  0  0  0  0  0  0  0
   -5.0634    1.8598   28.0559 N   0  0  0  0  0  0  0  0  0  0  0  0
   -5.1251    0.6545   27.6324 C   0  0  2  0  0  0  0  0  0  0  0  0
   -6.4105    0.1787   27.4454 C   0  0  1  0  0  0  0  0  0  0  0  0
   -7.4931    1.4545   27.0975 C   0  0  0  0  0  0  0  0  0  0  0  0
   -4.1663   -0.2875   27.9879 C   0  0  0  0  0  0  0  0  0  0  0  0
   -3.8935   -0.6703   29.2748 C   0  0  0  0  0  0  0  0  0  0  0  0
   -2.8398   -1.4752   29.6286 C   0  0  0  0  0  0  0  0  0  0  0  0
   -3.2790   -0.7381   26.9460 C   0  0  0  0  0  0  0  0  0  0  0  0
   -2.1724   -1.5845   27.2145 C   0  0  0  0  0  0  0  0  0  0  0  0
   -1.9324   -1.9514   28.5554 C   0  0  0  0  0  0  0  0  0  0  0  0
   -6.8693   -1.0379   27.1673 C   0  0  0  0  0  0  0  0  0  0  0  0
   -7.8424   -1.5659   27.9816 C   0  0  0  0  0  0  0  0  0  0  0  0
   -8.3517   -2.8348   27.7700 C   0  0  0  0  0  0  0  0  0  0  0  0
   -6.4458   -1.7377   26.0826 C   0  0  0  0  0  0  0  0  0  0  0  0
   -6.8969   -3.0324   25.7934 C   0  0  0  0  0  0  0  0  0  0  0  0
   -7.8676   -3.5476   26.6543 C   0  0  0  0  0  0  0  0  0  0  0  0
   -8.3908   -4.8838   26.3473 C   0  0  0  0  0  0  0  0  0  0  0  0
   -8.3596   -5.4933   25.4684 O   0  0  0  0  0  0  0  0  0  0  0  0
   -8.7940   -5.5670   27.4887 O   0  0  0  0  0  0  0  0  0  0  0  0
  -11.0913   -0.4260   25.6345 C   0  0  0  0  0  0  0  0  0  0  0  0
  -12.1882   -0.6268   25.3340 C   0  0  0  0  0  0  0  0  0  0  0  0
  -12.9140   -1.7406   25.8314 C   0  0  0  0  0  0  0  0  0  0  0  0
  -12.2896   -2.6261   26.7472 C   0  0  0  0  0  0  0  0  0  0  0  0
  -11.0064   -2.3611   27.1664 C   0  0  0  0  0  0  0  0  0  0  0  0
  -10.3021   -1.2802   26.6348 C   0  0  0  0  0  0  0  0  0  0  0  0
  3  4  1  0
  1 13  1  0
 13 14  1  0
 15 16  1  0
 16 17  1  0
 13 18  1  0
 17 18  1  0
 16 19  1  1
 17 25  1  6
 30 31  1  0
 31 32  2  0
 31 33  1  0
  9 34  1  0
 14 15  1  0
 25 26  2  0
 26 27  1  0
 27 30  2  0
 30 29  1  0
 29 28  2  0
 28 25  1  0
  4  8  2  0
  8  9  1  0
  9 10  2  0
 10 11  1  0
 11 12  2  0
 12  4  1  0
 34 35  2  0
 35 36  1  0
 36 37  2  0
 37 38  1  0
 38 39  2  0
 39 34  1  0
 19 20  2  0
 20 21  1  0
 21 24  2  0
 24 23  1  0
 23 22  2  0
 22 19  1  0
  1  2  2  0
  2  5  1  0
  5  7  2  0
  7  6  1  0
  6  3  2  0
  3  1  1  0
M  END
$$$$
