No_3729-complexes_sdf/6BKW-FPZ/2024-09-17-14-21-01/
     RDKit          3D

 17 18  0  0  0  0  0  0  0  0999 V2000
   -7.2496    3.8871   27.4508 C   0  0  0  0  0  0  0  0  0  0  0  0
   -8.5096    4.0291   27.2770 C   0  0  0  0  0  0  0  0  0  0  0  0
   -9.3451    2.8786   26.9046 C   0  0  0  0  0  0  0  0  0  0  0  0
   -6.6065    2.5680   27.5073 C   0  0  0  0  0  0  0  0  0  0  0  0
   -7.3970    1.4834   27.2271 C   0  0  0  0  0  0  0  0  0  0  0  0
   -8.7029    1.6398   26.9934 C   0  0  0  0  0  0  0  0  0  0  0  0
   -9.2878    5.2595   27.2401 C   0  0  0  0  0  0  0  0  0  0  0  0
   -8.6544    6.2080   26.6775 F   0  0  0  0  0  0  0  0  0  0  0  0
   -9.4495    5.7579   28.5978 F   0  0  0  0  0  0  0  0  0  0  0  0
  -10.5117    5.1938   26.7681 F   0  0  0  0  0  0  0  0  0  0  0  0
   -5.3130    2.5068   27.8116 N   0  0  0  0  0  0  0  0  0  0  0  0
   -6.5278    0.2660   27.2640 C   0  0  0  0  0  0  0  0  0  0  0  0
   -7.1529   -0.9579   26.7866 C   0  0  0  0  0  0  0  0  0  0  0  0
   -5.2055    0.2617   27.5429 C   0  0  0  0  0  0  0  0  0  0  0  0
   -4.6143    1.4868   27.8908 C   0  0  0  0  0  0  0  0  0  0  0  0
   -6.7997   -1.9793   27.0336 C   0  0  0  0  0  0  0  0  0  0  0  0
   -5.3248   -2.0851   27.4256 C   0  0  0  0  0  0  0  0  0  0  0  0
  2  7  1  0
  7  8  1  0
  7  9  1  0
  7 10  1  0
 12 13  1  0
 13 16  2  3
 16 17  1  0
  5 12  2  0
 12 14  1  0
 14 15  2  0
 15 11  1  0
 11  4  2  0
  1  2  2  0
  2  3  1  0
  3  6  2  0
  6  5  1  0
  5  4  1  0
  4  1  1  0
M  END
$$$$
