No_3932-complexes_sdf/6BKW-FPZ/2024-09-17-14-21-01/
     RDKit          3D

 14 15  0  0  0  0  0  0  0  0999 V2000
   -7.9040    3.9820   27.1177 C   0  0  0  0  0  0  0  0  0  0  0  0
   -9.0711    4.3164   27.0630 C   0  0  0  0  0  0  0  0  0  0  0  0
   -9.8698    3.9665   25.9495 C   0  0  0  0  0  0  0  0  0  0  0  0
   -7.4046    2.7946   26.4568 C   0  0  0  0  0  0  0  0  0  0  0  0
   -8.3659    2.1310   25.6816 C   0  0  0  0  0  0  0  0  0  0  0  0
   -9.5390    2.7825   25.4030 C   0  0  0  0  0  0  0  0  0  0  0  0
   -6.7904    4.6933   28.2959 Cl  0  0  0  0  0  0  0  0  0  0  0  0
  -10.3549    2.0012   24.4123 C   0  0  0  0  0  0  0  0  0  0  0  0
  -10.8957    2.5978   23.3889 C   0  0  0  0  0  0  0  0  0  0  0  0
  -11.3683    2.3825   22.4443 C   0  0  0  0  0  0  0  0  0  0  0  0
  -11.9404    3.2157   21.3140 C   0  0  0  0  0  0  0  0  0  0  0  0
  -11.8674    4.6167   21.5575 C   0  0  0  0  0  0  0  0  0  0  0  0
  -11.2793    5.0495   22.6784 C   0  0  0  0  0  0  0  0  0  0  0  0
  -10.7115    4.2204   23.6202 C   0  0  0  0  0  0  0  0  0  0  0  0
  1  7  1  0
  6  8  1  0
  8  9  1  0
  1  2  2  0
  2  3  1  0
  3  6  2  0
  6  5  1  0
  5  4  2  0
  4  1  1  0
  9 10  2  0
 10 11  1  0
 11 12  2  0
 12 13  1  0
 13 14  2  0
 14  9  1  0
M  END
$$$$
