No_3730-complexes_sdf/6BKW-FPZ/2024-09-17-14-21-01/
     RDKit          3D

 29 32  0  0  0  0  0  0  0  0999 V2000
   -7.7129    4.2099   27.0854 C   0  0  0  0  0  0  0  0  0  0  0  0
   -7.7814    5.1722   27.8972 C   0  0  0  0  0  0  0  0  0  0  0  0
   -8.8776    3.8408   26.3416 C   0  0  0  0  0  0  0  0  0  0  0  0
   -9.9844    4.6492   26.4743 C   0  0  0  0  0  0  0  0  0  0  0  0
   -8.8033    6.1375   27.8728 C   0  0  0  0  0  0  0  0  0  0  0  0
   -9.9554    5.8280   27.1737 C   0  0  0  0  0  0  0  0  0  0  0  0
   -8.8740    2.6184   25.5584 C   0  0  0  0  0  0  0  0  0  0  0  0
   -8.2606    1.4639   26.1340 C   0  0  0  0  0  0  0  0  0  0  0  0
   -8.8407    0.5168   26.3856 C   0  0  0  0  0  0  0  0  0  0  0  0
   -8.1721   -0.6719   27.0653 C   0  0  0  0  0  0  0  0  0  0  0  0
   -6.8593   -0.5005   27.4702 C   0  0  0  0  0  0  0  0  0  0  0  0
   -6.2281    0.7094   27.2597 C   0  0  0  0  0  0  0  0  0  0  0  0
   -6.8740    1.7379   26.7095 C   0  0  0  0  0  0  0  0  0  0  0  0
   -4.8722    0.8686   27.8631 C   0  0  0  0  0  0  0  0  0  0  0  0
   -4.0900    1.5368   27.6065 C   0  0  0  0  0  0  0  0  0  0  0  0
   -4.6319   -0.1302   28.9732 C   0  0  0  0  0  0  0  0  0  0  0  0
   -3.4817    0.0104   29.7599 C   0  0  0  0  0  0  0  0  0  0  0  0
   -2.7363    1.5544   28.1740 N   0  0  0  0  0  0  0  0  0  0  0  0
   -3.1536   -0.8381   30.8620 C   0  0  0  0  0  0  0  0  0  0  0  0
   -2.4580    0.8043   29.1518 C   0  0  0  0  0  0  0  0  0  0  0  0
   -3.9947   -1.6901   31.2976 N   0  0  0  0  0  0  0  0  0  0  0  0
   -4.5671   -2.0004   32.1366 C   0  0  0  0  0  0  0  0  0  0  0  0
   -4.2870   -1.3558   33.3341 C   0  0  0  0  0  0  0  0  0  0  0  0
   -3.6340   -1.7742   34.2186 C   0  0  0  0  0  0  0  0  0  0  0  0
   -3.3675   -2.7301   34.5363 C   0  0  0  0  0  0  0  0  0  0  0  0
   -3.9921   -3.8434   33.9668 C   0  0  0  0  0  0  0  0  0  0  0  0
   -4.5736   -4.1692   32.8226 C   0  0  0  0  0  0  0  0  0  0  0  0
   -5.1869   -3.1449   32.2236 C   0  0  0  0  0  0  0  0  0  0  0  0
   -2.2917   -0.4633   31.7768 O   0  0  0  0  0  0  0  0  0  0  0  0
  3  7  1  0
  7  8  1  0
 12 14  1  0
 17 19  1  0
 19 21  1  0
 21 22  1  0
 22 23  1  0
 23 24  1  0
 24 25  2  0
 25 26  1  0
 26 27  2  0
 22 28  1  0
 27 28  1  0
 19 29  2  0
 14 15  2  0
 15 18  1  0
 18 20  2  0
 20 17  1  0
 17 16  2  0
 16 14  1  0
  8  9  2  0
  9 10  1  0
 10 11  2  0
 11 12  1  0
 12 13  2  0
 13  8  1  0
  1  2  2  0
  2  5  1  0
  5  6  2  0
  6  4  1  0
  4  3  2  0
  3  1  1  0
M  END
$$$$
