No_3803-complexes_sdf/6BKW-FPZ/2024-09-17-14-21-01/
     RDKit          3D

 24 28  0  0  0  0  0  0  0  0999 V2000
   -7.9040    3.9820   27.1177 C   0  0  0  0  0  0  0  0  0  0  0  0
   -7.8663    4.8694   27.9238 C   0  0  0  0  0  0  0  0  0  0  0  0
   -7.4698    2.6989   27.4277 C   0  0  0  0  0  0  0  0  0  0  0  0
   -7.9683    1.5964   26.8266 C   0  0  0  0  0  0  0  0  0  0  0  0
   -8.9447    1.7923   25.8533 C   0  0  0  0  0  0  0  0  0  0  0  0
   -9.4405    2.9988   25.5757 C   0  0  0  0  0  0  0  0  0  0  0  0
   -8.9424    4.1117   26.2388 C   0  0  0  0  0  0  0  0  0  0  0  0
   -8.0991    6.0941   27.8047 N   0  0  0  0  0  0  0  0  0  0  0  0
   -7.4449    0.2821   27.0799 C   0  0  0  0  0  0  0  0  0  0  0  0
   -8.1098   -0.8000   26.8128 C   0  0  0  0  0  0  0  0  0  0  0  0
   -9.2122   -0.6319   25.8589 C   0  0  0  0  0  0  0  0  0  0  0  0
   -9.6395    0.5761   25.4014 C   0  0  0  0  0  0  0  0  0  0  0  0
   -9.4620    5.4031   25.9827 C   0  0  0  0  0  0  0  0  0  0  0  0
   -8.9473    6.4693   26.8171 C   0  0  0  0  0  0  0  0  0  0  0  0
   -9.8794   -1.8269   25.3292 C   0  0  0  0  0  0  0  0  0  0  0  0
  -10.6835   -1.8212   24.4773 C   0  0  0  0  0  0  0  0  0  0  0  0
  -10.5727    0.7029   24.4447 C   0  0  0  0  0  0  0  0  0  0  0  0
  -10.9320    2.0046   23.8101 C   0  0  0  0  0  0  0  0  0  0  0  0
  -11.1407   -0.4452   23.8613 C   0  0  0  0  0  0  0  0  0  0  0  0
  -10.4086    3.0757   24.4292 C   0  0  0  0  0  0  0  0  0  0  0  0
  -12.1652   -0.4057   22.8529 C   0  0  0  0  0  0  0  0  0  0  0  0
  -13.3288    0.1061   23.2914 C   0  0  0  0  0  0  0  0  0  0  0  0
  -13.8915   -0.0297   24.2855 C   0  0  0  0  0  0  0  0  0  0  0  0
  -15.1612    0.5689   24.6959 C   0  0  0  0  0  0  0  0  0  0  0  0
  4  9  1  0
  9 10  1  0
 10 11  1  0
  5 12  1  0
 17 18  1  0
  6 20  1  0
 18 20  1  0
 19 21  1  0
 21 22  1  0
 22 23  2  3
 23 24  1  0
  1  3  1  0
  3  4  2  0
  4  5  1  0
  5  6  2  0
  6  7  1  0
 11 12  2  0
 12 17  1  0
 17 19  2  0
 19 16  1  0
 16 15  2  0
 15 11  1  0
  1  2  2  0
  2  8  1  0
  8 14  2  0
 14 13  1  0
 13  7  2  0
  7  1  1  0
M  END
$$$$
