No_3567-complexes_sdf/6BKW-FPZ/2024-09-17-14-21-01/
     RDKit          3D

 23 25  0  0  0  0  0  0  0  0999 V2000
   -7.9040    3.9820   27.1177 C   0  0  0  0  0  0  0  0  0  0  0  0
   -8.2057    2.8231   26.8733 C   0  0  0  0  0  0  0  0  0  0  0  0
   -9.2962    2.4021   26.1155 C   0  0  0  0  0  0  0  0  0  0  0  0
   -8.7358    5.0662   26.5917 C   0  0  0  0  0  0  0  0  0  0  0  0
   -9.7618    4.7023   25.7546 C   0  0  0  0  0  0  0  0  0  0  0  0
  -10.0066    3.4105   25.4922 C   0  0  0  0  0  0  0  0  0  0  0  0
   -8.2002    6.4309   26.9312 C   0  0  0  0  0  0  0  0  0  0  0  0
   -7.3172    6.5413   27.8000 N   0  0  0  0  0  0  0  0  0  0  0  0
   -8.7630    7.5075   26.3673 N   0  0  0  0  0  0  0  0  0  0  0  0
   -7.3852    1.6307   27.4543 C   0  0  0  0  0  0  0  0  0  0  0  0
   -6.1450    1.8976   27.8515 N   0  0  0  0  0  0  0  0  0  0  0  0
   -5.3749    0.8225   28.3033 C   0  0  0  0  0  0  0  0  0  0  0  0
   -5.8822   -0.4254   28.2718 C   0  0  0  0  0  0  0  0  0  0  0  0
   -7.6590    0.2790   27.4557 C   0  0  0  0  0  0  0  0  0  0  0  0
   -7.0534   -0.6909   27.8924 C   0  0  0  0  0  0  0  0  0  0  0  0
   -4.0704    1.2263   28.7474 N   0  0  0  0  0  0  0  0  0  0  0  0
  -11.0251    3.1333   24.6566 O   0  0  0  0  0  0  0  0  0  0  0  0
  -10.8580    3.1281   23.3057 C   0  0  0  0  0  0  0  0  0  0  0  0
  -11.0459    4.2534   22.6447 C   0  0  0  0  0  0  0  0  0  0  0  0
  -10.6993    4.4724   21.2804 C   0  0  0  0  0  0  0  0  0  0  0  0
  -10.1586    3.3617   20.5942 C   0  0  0  0  0  0  0  0  0  0  0  0
  -10.2624    2.0550   22.6917 C   0  0  0  0  0  0  0  0  0  0  0  0
   -9.9074    2.1642   21.3115 C   0  0  0  0  0  0  0  0  0  0  0  0
  4  7  1  0
  7  8  2  0
  7  9  1  0
  2 10  1  0
 12 16  1  0
  6 17  1  0
 17 18  1  0
 18 19  2  0
 19 20  1  0
 20 21  2  0
 21 23  1  0
 23 22  2  0
 22 18  1  0
  1  2  2  0
  2  3  1  0
  3  6  2  0
  6  5  1  0
  5  4  2  0
  4  1  1  0
 10 11  2  0
 11 12  1  0
 12 13  2  0
 13 15  1  0
 15 14  2  0
 14 10  1  0
M  END
$$$$
