No_354-complexes_sdf/6BKW-FPZ/2024-09-17-14-21-01/
     RDKit          3D

 18 20  0  0  0  0  0  0  0  0999 V2000
   -7.9040    3.9820   27.1177 C   0  0  0  0  0  0  0  0  0  0  0  0
   -9.0711    4.3164   27.0630 C   0  0  0  0  0  0  0  0  0  0  0  0
   -9.5294    5.4517   27.7215 C   0  0  0  0  0  0  0  0  0  0  0  0
   -6.9328    4.7309   27.8881 C   0  0  0  0  0  0  0  0  0  0  0  0
   -7.3377    5.8421   28.5537 C   0  0  0  0  0  0  0  0  0  0  0  0
   -8.6411    6.2609   28.3972 C   0  0  0  0  0  0  0  0  0  0  0  0
  -10.0467    3.4917   26.2630 C   0  0  0  0  0  0  0  0  0  0  0  0
  -10.5865    3.7278   25.3547 C   0  0  0  0  0  0  0  0  0  0  0  0
  -11.4289    2.9431   24.4579 C   0  0  0  0  0  0  0  0  0  0  0  0
  -11.4990    1.6326   24.7978 C   0  0  0  0  0  0  0  0  0  0  0  0
  -10.0761    2.0621   26.4446 C   0  0  0  0  0  0  0  0  0  0  0  0
  -10.7477    1.1758   25.8126 C   0  0  0  0  0  0  0  0  0  0  0  0
  -12.3583    0.7447   23.9380 C   0  0  0  0  0  0  0  0  0  0  0  0
  -12.6348   -0.3599   24.1460 C   0  0  0  0  0  0  0  0  0  0  0  0
  -13.4776   -1.1704   23.2622 C   0  0  0  0  0  0  0  0  0  0  0  0
  -13.9381   -0.5351   22.1170 C   0  0  0  0  0  0  0  0  0  0  0  0
  -13.5924    0.7502   21.8403 C   0  0  0  0  0  0  0  0  0  0  0  0
  -12.7808    1.5087   22.6800 C   0  0  0  0  0  0  0  0  0  0  0  0
  2  7  1  0
 10 13  1  0
  7  8  2  0
  8  9  1  0
  9 10  2  0
 10 12  1  0
 12 11  2  0
 11  7  1  0
 13 14  2  0
 14 15  1  0
 15 16  2  0
 16 17  1  0
 17 18  2  0
 18 13  1  0
  1  2  2  0
  2  3  1  0
  3  6  2  0
  6  5  1  0
  5  4  2  0
  4  1  1  0
M  END
$$$$
