No_3310-complexes_sdf/6BKW-FPZ/2024-09-17-14-21-01/
     RDKit          3D

 25 28  0  0  0  0  0  0  0  0999 V2000
   -7.2496    3.8871   27.4508 C   0  0  0  0  0  0  0  0  0  0  0  0
   -7.6161    2.7143   27.1523 C   0  0  0  0  0  0  0  0  0  0  0  0
   -7.1618    1.8631   27.5232 C   0  0  0  0  0  0  0  0  0  0  0  0
   -5.9773    4.1572   28.0182 C   0  0  0  0  0  0  0  0  0  0  0  0
   -5.7613    1.7985   28.0431 C   0  0  0  0  0  0  0  0  0  0  0  0
   -5.0420    0.7273   28.3219 N   0  0  0  0  0  0  0  0  0  0  0  0
   -5.2343    3.1418   28.2838 C   0  0  0  0  0  0  0  0  0  0  0  0
   -5.4835   -0.5259   28.4463 C   0  0  0  0  0  0  0  0  0  0  0  0
   -6.4368   -1.0214   27.9390 C   0  0  0  0  0  0  0  0  0  0  0  0
   -7.5426   -0.2910   27.5774 C   0  0  0  0  0  0  0  0  0  0  0  0
   -7.8468    0.6247   27.3229 C   0  0  1  0  0  0  0  0  0  0  0  0
   -8.9746    1.3918   26.8369 N   0  0  0  0  0  0  0  0  0  0  0  0
   -8.9225    2.5296   26.6499 N   0  0  0  0  0  0  0  0  0  0  0  0
   -8.0788    5.1903   27.1342 C   0  0  0  0  0  0  0  0  0  0  0  0
   -7.9856    6.3705   27.9343 C   0  0  0  0  0  0  0  0  0  0  0  0
   -8.8832    5.1746   25.9818 C   0  0  0  0  0  0  0  0  0  0  0  0
  -10.2058    0.5910   26.4347 C   0  0  0  0  0  0  0  0  0  0  0  0
  -10.2794   -0.1974   25.4143 C   0  0  0  0  0  0  0  0  0  0  0  0
  -10.9815    0.0909   24.6577 C   0  0  0  0  0  0  0  0  0  0  0  0
  -12.2676    0.7987   24.8397 C   0  0  0  0  0  0  0  0  0  0  0  0
  -12.2977    1.5763   26.0264 C   0  0  0  0  0  0  0  0  0  0  0  0
  -11.2597    1.7692   26.5776 C   0  0  0  0  0  0  0  0  0  0  0  0
  -13.5193    2.2912   26.1235 O   0  0  0  0  0  0  0  0  0  0  0  0
  -14.0040    3.1292   25.6397 C   0  0  0  0  0  0  0  0  0  0  0  0
  -13.3619    4.3115   25.8149 C   0  0  0  0  0  0  0  0  0  0  0  0
  5  6  1  0
  6  8  1  0
  8  9  2  0
  9 10  1  0
  3 11  1  0
 11 10  1  1
 11 12  1  0
  2 13  1  0
 12 13  1  0
  1 14  1  0
 14 15  1  0
 14 16  1  0
 12 17  1  0
 21 23  1  0
 23 24  1  0
 24 25  2  0
 17 18  2  0
 18 19  1  0
 19 20  2  0
 20 21  1  0
 21 22  2  0
 22 17  1  0
  1  2  2  0
  2  3  1  0
  3  5  2  0
  5  7  1  0
  7  4  2  0
  4  1  1  0
M  END
$$$$
