No_3413-complexes_sdf/6BKW-FPZ/2024-09-17-14-21-01/
     RDKit          3D

 21 23  0  0  0  0  0  0  0  0999 V2000
   -7.2496    3.8871   27.4508 C   0  0  0  0  0  0  0  0  0  0  0  0
   -8.5096    4.0291   27.2770 C   0  0  0  0  0  0  0  0  0  0  0  0
   -9.3451    2.8786   26.9046 C   0  0  0  0  0  0  0  0  0  0  0  0
   -8.7138    1.7135   26.7541 C   0  0  0  0  0  0  0  0  0  0  0  0
   -6.6024    2.6286   27.4581 C   0  0  0  0  0  0  0  0  0  0  0  0
   -7.3557    1.5598   27.1381 C   0  0  0  0  0  0  0  0  0  0  0  0
   -9.3303    5.2521   27.3580 C   0  0  0  0  0  0  0  0  0  0  0  0
   -8.5733    6.4786   27.2894 C   0  0  0  0  0  0  0  0  0  0  0  0
   -6.6744    0.2609   27.0337 C   0  0  0  0  0  0  0  0  0  0  0  0
   -7.1189   -0.5929   27.7142 O   0  0  0  0  0  0  0  0  0  0  0  0
   -5.5948    0.1363   26.4147 O   0  0  0  0  0  0  0  0  0  0  0  0
   -8.9961    7.5999   26.4952 C   0  0  0  0  0  0  0  0  0  0  0  0
   -7.3025    6.5693   27.9688 C   0  0  0  0  0  0  0  0  0  0  0  0
   -6.4679    4.9927   27.8727 N   0  0  0  0  0  0  0  0  0  0  0  0
  -10.7451    2.9673   26.5919 C   0  0  0  0  0  0  0  0  0  0  0  0
  -11.6417    2.8161   27.6273 C   0  0  0  0  0  0  0  0  0  0  0  0
  -13.0226    2.9539   27.5784 C   0  0  0  0  0  0  0  0  0  0  0  0
  -13.7984    2.8427   28.6916 C   0  0  0  0  0  0  0  0  0  0  0  0
  -13.2321    2.3827   29.9358 C   0  0  0  0  0  0  0  0  0  0  0  0
  -11.8904    2.1931   29.9430 C   0  0  0  0  0  0  0  0  0  0  0  0
  -11.1070    2.3821   28.9640 C   0  0  0  0  0  0  0  0  0  0  0  0
  2  7  1  0
  7  8  1  0
  6  9  1  0
  9 10  2  0
  9 11  1  0
  8 12  2  0
  8 13  1  0
  1 14  1  0
 13 14  1  0
  3 15  1  0
 15 16  1  0
  1  2  2  0
  2  3  1  0
  3  4  2  0
  4  6  1  0
  6  5  2  0
  5  1  1  0
 16 17  2  0
 17 18  1  0
 18 19  2  0
 19 20  1  0
 20 21  2  0
 21 16  1  0
M  END
$$$$
