No_3327-complexes_sdf/6BKW-FPZ/2024-09-17-14-21-01/
     RDKit          3D

 33 35  0  0  0  0  0  0  0  0999 V2000
   -7.9040    3.9820   27.1177 C   0  0  0  0  0  0  0  0  0  0  0  0
   -7.8663    4.8694   27.9238 C   0  0  0  0  0  0  0  0  0  0  0  0
   -9.0491    3.8523   26.2542 C   0  0  0  0  0  0  0  0  0  0  0  0
   -8.7661    5.9491   27.9690 C   0  0  0  0  0  0  0  0  0  0  0  0
   -9.9295    4.8502   26.2323 C   0  0  0  0  0  0  0  0  0  0  0  0
   -9.8077    5.9288   27.0933 C   0  0  0  0  0  0  0  0  0  0  0  0
   -6.9606    2.7994   27.1981 C   0  0  0  0  0  0  0  0  0  0  0  0
   -7.3659    1.5557   26.7971 N   0  0  0  0  0  0  0  0  0  0  0  0
   -5.8729    2.9214   27.7546 O   0  0  0  0  0  0  0  0  0  0  0  0
   -6.5540    0.3634   26.9601 C   0  0  0  0  0  0  0  0  0  0  0  0
   -5.6096    0.3401   27.6192 C   0  0  0  0  0  0  0  0  0  0  0  0
   -4.8459   -0.9165   27.6757 C   0  0  0  0  0  0  0  0  0  0  0  0
   -5.3170   -1.9953   27.0172 C   0  0  0  0  0  0  0  0  0  0  0  0
   -7.0286   -0.7472   26.2825 C   0  0  0  0  0  0  0  0  0  0  0  0
   -6.4272   -1.8892   26.2774 C   0  0  0  0  0  0  0  0  0  0  0  0
  -11.3170    4.7594   24.9610 Br  0  0  0  0  0  0  0  0  0  0  0  0
   -3.5762   -0.9811   28.5651 C   0  0  1  0  0  0  0  0  0  0  0  0
   -2.4643   -0.7478   27.9955 C   0  0  0  0  0  0  0  0  0  0  0  0
   -3.7473   -1.2208   29.9636 C   0  0  0  0  0  0  0  0  0  0  0  0
   -4.6819   -0.7812   30.7520 C   0  0  0  0  0  0  0  0  0  0  0  0
   -4.7363   -0.9341   32.1832 C   0  0  0  0  0  0  0  0  0  0  0  0
   -5.7821   -0.5143   33.0201 C   0  0  0  0  0  0  0  0  0  0  0  0
   -3.5378   -1.5107   32.7984 C   0  0  0  0  0  0  0  0  0  0  0  0
   -2.4812   -1.9440   31.9923 C   0  0  0  0  0  0  0  0  0  0  0  0
   -2.4972   -1.7032   30.6221 C   0  0  0  0  0  0  0  0  0  0  0  0
   -6.5519    0.0946   32.6311 F   0  0  0  0  0  0  0  0  0  0  0  0
   -6.2968   -1.7824   33.5475 F   0  0  0  0  0  0  0  0  0  0  0  0
   -2.0594    0.5223   27.5126 C   0  0  0  0  0  0  0  0  0  0  0  0
   -1.4863   -1.8415   27.7740 C   0  0  0  0  0  0  0  0  0  0  0  0
   -5.2414    0.0360   34.2072 F   0  0  0  0  0  0  0  0  0  0  0  0
   -0.4034   -1.8166   28.4831 C   0  0  0  0  0  0  0  0  0  0  0  0
    0.5796   -2.8606   28.2268 C   0  0  0  0  0  0  0  0  0  0  0  0
    0.3835   -3.6893   27.2745 C   0  0  0  0  0  0  0  0  0  0  0  0
  1  7  1  0
  7  8  1  0
  7  9  2  0
  8 10  1  0
  5 16  1  0
 12 17  1  0
 17 18  1  1
 17 19  1  0
 21 22  1  0
 22 26  1  0
 22 27  1  0
 18 28  1  0
 18 29  1  0
 22 30  1  0
 29 31  2  3
 31 32  1  0
 32 33  2  0
  1  2  2  0
  2  4  1  0
  4  6  2  0
  6  5  1  0
  5  3  2  0
  3  1  1  0
 10 11  2  0
 11 12  1  0
 12 13  2  0
 13 15  1  0
 15 14  2  0
 14 10  1  0
 19 20  2  0
 20 21  1  0
 21 23  2  0
 23 24  1  0
 24 25  2  0
 25 19  1  0
M  END
$$$$
