No_3627-complexes_sdf/6BKW-FPZ/2024-09-17-14-21-01/
     RDKit          3D

 26 29  0  0  0  0  0  0  0  0999 V2000
   -7.9040    3.9820   27.1177 C   0  0  0  0  0  0  0  0  0  0  0  0
   -9.0711    4.3164   27.0630 C   0  0  0  0  0  0  0  0  0  0  0  0
   -9.8698    3.9665   25.9495 C   0  0  0  0  0  0  0  0  0  0  0  0
   -7.0332    4.5030   28.2025 C   0  0  0  0  0  0  0  0  0  0  0  0
  -10.9909    4.7237   25.5958 C   0  0  0  0  0  0  0  0  0  0  0  0
   -7.4989    5.5573   28.9524 C   0  0  0  0  0  0  0  0  0  0  0  0
  -11.7350    4.2316   24.5284 C   0  0  0  0  0  0  0  0  0  0  0  0
  -11.2838    3.2467   23.6902 C   0  0  0  0  0  0  0  0  0  0  0  0
  -10.1349    2.5964   24.0049 C   0  0  0  0  0  0  0  0  0  0  0  0
   -9.3929    2.9470   25.1474 C   0  0  0  0  0  0  0  0  0  0  0  0
   -9.4723    5.4338   27.9018 C   0  0  0  0  0  0  0  0  0  0  0  0
   -8.6890    5.9827   28.8022 N   0  0  0  0  0  0  0  0  0  0  0  0
   -9.6438    1.4491   23.1733 C   0  0  2  0  0  0  0  0  0  0  0  0
  -10.0520    0.4355   23.1934 N   0  0  0  0  0  0  0  0  0  0  0  0
   -9.8083   -0.5470   23.6697 C   0  0  0  0  0  0  0  0  0  0  0  0
   -8.4523   -0.8342   23.7644 C   0  0  0  0  0  0  0  0  0  0  0  0
   -7.5598    0.0389   23.2708 C   0  0  0  0  0  0  0  0  0  0  0  0
   -8.0458    1.3557   23.1873 C   0  0  0  0  0  0  0  0  0  0  0  0
  -11.1566    0.4446   22.0590 C   0  0  2  0  0  0  0  0  0  0  0  0
  -12.3515    0.1667   22.4630 C   0  0  0  0  0  0  0  0  0  0  0  0
  -10.6665   -0.3362   20.8375 C   0  0  0  0  0  0  0  0  0  0  0  0
  -13.2769    0.2794   21.9498 C   0  0  0  0  0  0  0  0  0  0  0  0
  -14.6482   -0.0925   22.3704 C   0  0  0  0  0  0  0  0  0  0  0  0
  -14.7759   -0.4508   23.7092 C   0  0  0  0  0  0  0  0  0  0  0  0
  -13.6613   -0.4798   24.5170 C   0  0  0  0  0  0  0  0  0  0  0  0
  -12.4879   -0.1970   24.0616 C   0  0  0  0  0  0  0  0  0  0  0  0
 13  9  1  1
 13 14  1  0
 14 15  1  0
 16 17  1  0
 13 18  1  0
 14 19  1  0
 19 20  1  0
 19 21  1  6
  3  2  1  0
 18 17  1  0
 16 15  1  0
  1  2  2  0
  2 11  1  0
 11 12  2  0
 12  6  1  0
  6  4  2  0
  4  1  1  0
  3  5  2  0
  5  7  1  0
  7  8  2  0
  8  9  1  0
  9 10  2  0
 10  3  1  0
 20 22  2  0
 22 23  1  0
 23 24  2  0
 24 25  1  0
 25 26  2  0
 26 20  1  0
M  END
$$$$
