No_345-complexes_sdf/6BKW-FPZ/2024-09-17-14-21-01/
     RDKit          3D

 17 19  0  0  0  0  0  0  0  0999 V2000
   -7.9040    3.9820   27.1177 C   0  0  0  0  0  0  0  0  0  0  0  0
   -8.2057    2.8231   26.8733 C   0  0  0  0  0  0  0  0  0  0  0  0
   -7.0130    4.3706   28.1140 C   0  0  0  0  0  0  0  0  0  0  0  0
   -9.4741    2.4344   26.3718 C   0  0  0  0  0  0  0  0  0  0  0  0
  -10.2665    3.4433   25.8839 C   0  0  0  0  0  0  0  0  0  0  0  0
   -9.8885    4.7893   26.0401 C   0  0  0  0  0  0  0  0  0  0  0  0
   -8.7136    5.0617   26.7279 C   0  0  0  0  0  0  0  0  0  0  0  0
   -8.6594    6.4030   26.9302 N   0  0  0  0  0  0  0  0  0  0  0  0
   -9.3399    7.4438   27.1066 C   0  0  0  0  0  0  0  0  0  0  0  0
   -7.1475    6.7254   27.0103 C   0  0  0  0  0  0  0  0  0  0  0  0
   -6.3947    6.0992   27.8059 N   0  0  0  0  0  0  0  0  0  0  0  0
   -7.3416    1.6529   27.4079 C   0  0  0  0  0  0  0  0  0  0  0  0
   -7.6545    0.3028   27.1789 C   0  0  0  0  0  0  0  0  0  0  0  0
   -6.6726   -0.5591   27.0588 C   0  0  0  0  0  0  0  0  0  0  0  0
   -5.3456   -0.2267   27.4632 C   0  0  0  0  0  0  0  0  0  0  0  0
   -5.0741    1.1154   27.8326 C   0  0  0  0  0  0  0  0  0  0  0  0
   -5.9607    2.0120   27.6329 C   0  0  0  0  0  0  0  0  0  0  0  0
  1  3  1  0
  7  8  1  0
  8  9  1  0
  8 10  1  0
  3 11  1  0
 10 11  1  0
  2 12  1  0
 12 13  2  0
 13 14  1  0
 14 15  2  0
 15 16  1  0
 16 17  2  0
 17 12  1  0
  1  2  2  0
  2  4  1  0
  4  5  2  0
  5  6  1  0
  6  7  2  0
  7  1  1  0
M  END
$$$$
