No_3419-complexes_sdf/6BKW-FPZ/2024-09-17-14-21-01/
     RDKit          3D

 22 23  0  0  0  0  0  0  0  0999 V2000
   -7.2496    3.8871   27.4508 C   0  0  0  0  0  0  0  0  0  0  0  0
   -8.5096    4.0291   27.2770 C   0  0  2  0  0  0  0  0  0  0  0  0
   -9.3451    2.8786   26.9046 C   0  0  0  0  0  0  0  0  0  0  0  0
  -10.6709    3.0505   26.6789 C   0  0  0  0  0  0  0  0  0  0  0  0
   -6.6727    2.6274   27.4797 N   0  0  0  0  0  0  0  0  0  0  0  0
   -7.3915    1.5417   27.2567 C   0  0  0  0  0  0  0  0  0  0  0  0
   -6.9136    0.3610   27.3012 N   0  0  0  0  0  0  0  0  0  0  0  0
   -8.7498    1.6963   27.0195 C   0  0  0  0  0  0  0  0  0  0  0  0
  -11.4161    2.1667   27.1143 C   0  0  0  0  0  0  0  0  0  0  0  0
  -12.8972    2.2170   27.1108 C   0  0  0  0  0  0  0  0  0  0  0  0
   -9.0834    5.3980   27.2588 C   0  0  0  0  0  0  0  0  0  0  0  0
   -8.2387    6.5131   27.0406 C   0  0  0  0  0  0  0  0  0  0  0  0
   -8.7091    7.8386   26.8971 C   0  0  0  0  0  0  0  0  0  0  0  0
  -13.7155    1.3106   27.7261 C   0  0  0  0  0  0  0  0  0  0  0  0
   -7.5808   -0.7661   27.0709 C   0  0  0  0  0  0  0  0  0  0  0  0
   -6.9977   -1.9816   27.2212 C   0  0  2  0  0  0  0  0  0  0  0  0
   -5.7028   -0.0353   28.0376 C   0  0  0  0  0  0  0  0  0  0  0  0
   -5.1157   -1.0925   28.2373 C   0  0  0  0  0  0  0  0  0  0  0  0
   -7.7780   -3.1999   26.7847 C   0  0  0  0  0  0  0  0  0  0  0  0
   -5.8340   -2.1826   27.8291 C   0  0  0  0  0  0  0  0  0  0  0  0
  -13.1135    0.1993   28.3828 C   0  0  0  0  0  0  0  0  0  0  0  0
  -11.7466    0.0578   28.4569 C   0  0  0  0  0  0  0  0  0  0  0  0
  1  2  1  0
  2  3  1  0
  3  4  2  3
  1  5  1  0
  5  6  1  0
  6  7  1  0
  3  8  1  0
  6  8  1  0
  4  9  1  0
  9 10  2  3
  2 11  1  6
 11 12  1  0
 12 13  2  0
 10 14  1  0
  7 15  1  0
  7 17  1  0
 16 19  1  1
 16 20  1  0
 18 20  1  0
 14 21  2  3
 21 22  1  0
 15 16  1  0
 18 17  1  0
M  END
$$$$
