No_3487-complexes_sdf/6BKW-FPZ/2024-09-17-14-21-01/
     RDKit          3D

 20 22  0  0  0  0  0  0  0  0999 V2000
   -7.7129    4.2099   27.0854 C   0  0  0  0  0  0  0  0  0  0  0  0
   -7.7814    5.1722   27.8972 C   0  0  0  0  0  0  0  0  0  0  0  0
   -8.8776    3.8408   26.3416 C   0  0  0  0  0  0  0  0  0  0  0  0
   -9.9844    4.6492   26.4743 C   0  0  0  0  0  0  0  0  0  0  0  0
   -8.7830    6.1594   27.8870 C   0  0  0  0  0  0  0  0  0  0  0  0
   -9.9269    5.8191   27.1183 C   0  0  0  0  0  0  0  0  0  0  0  0
   -8.8747    2.6048   25.5686 C   0  0  0  0  0  0  0  0  0  0  0  0
   -8.2811    1.4608   26.1787 C   0  0  0  0  0  0  0  0  0  0  0  0
   -8.2755    0.2485   25.5381 C   0  0  0  0  0  0  0  0  0  0  0  0
   -8.8388    0.2138   24.2664 C   0  0  0  0  0  0  0  0  0  0  0  0
   -9.4153    1.3350   23.6534 C   0  0  0  0  0  0  0  0  0  0  0  0
   -9.4104    2.5249   24.3360 C   0  0  0  0  0  0  0  0  0  0  0  0
   -9.9871    1.2556   22.3157 C   0  0  0  0  0  0  0  0  0  0  0  0
  -11.1746    1.0269   22.2374 N   0  0  0  0  0  0  0  0  0  0  0  0
  -11.9111    1.0092   21.2040 C   0  0  0  0  0  0  0  0  0  0  0  0
  -13.2610    1.0813   21.2447 C   0  0  0  0  0  0  0  0  0  0  0  0
  -13.6284    1.0237   22.5694 C   0  0  0  0  0  0  0  0  0  0  0  0
  -12.8525    1.0422   23.6024 C   0  0  0  0  0  0  0  0  0  0  0  0
  -11.6573    1.1440   23.5687 C   0  0  0  0  0  0  0  0  0  0  0  0
   -9.1128    1.2754   21.4118 O   0  0  0  0  0  0  0  0  0  0  0  0
  3  7  1  0
 11 13  1  0
 13 14  1  0
 14 15  1  0
 16 17  1  0
 14 19  1  0
 18 19  1  0
 13 20  2  0
 15 16  1  0
 17 18  1  0
  1  2  2  0
  2  5  1  0
  5  6  2  0
  6  4  1  0
  4  3  2  0
  3  1  1  0
  7  8  2  0
  8  9  1  0
  9 10  2  0
 10 11  1  0
 11 12  2  0
 12  7  1  0
M  END
$$$$
