No_3396-complexes_sdf/6BKW-FPZ/2024-09-17-14-21-01/
     RDKit          3D

 18 20  0  0  0  0  0  0  0  0999 V2000
   -7.9040    3.9820   27.1177 C   0  0  0  0  0  0  0  0  0  0  0  0
   -8.2057    2.8231   26.8733 C   0  0  0  0  0  0  0  0  0  0  0  0
   -7.0130    4.3706   28.1140 C   0  0  0  0  0  0  0  0  0  0  0  0
   -7.4093    1.7370   27.3857 C   0  0  0  0  0  0  0  0  0  0  0  0
   -7.7256    0.3814   27.1250 C   0  0  0  0  0  0  0  0  0  0  0  0
   -9.0139    0.1894   26.6369 C   0  0  0  0  0  0  0  0  0  0  0  0
   -9.8407    1.1500   26.1539 C   0  0  0  0  0  0  0  0  0  0  0  0
   -9.4239    2.4732   26.2724 C   0  0  0  0  0  0  0  0  0  0  0  0
   -8.7935    5.1067   26.6645 C   0  0  0  0  0  0  0  0  0  0  0  0
   -8.4707    6.4844   26.9701 C   0  0  0  0  0  0  0  0  0  0  0  0
   -6.8398    5.7882   28.5238 C   0  0  0  0  0  0  0  0  0  0  0  0
   -7.5516    6.7667   27.8714 C   0  0  0  0  0  0  0  0  0  0  0  0
   -9.7812    4.7729   25.7101 C   0  0  0  0  0  0  0  0  0  0  0  0
  -10.2170    3.4435   25.6215 C   0  0  1  0  0  0  0  0  0  0  0  0
  -11.2985    3.1603   24.7432 C   0  0  0  0  0  0  0  0  0  0  0  0
  -11.2262    3.6538   23.5016 C   0  0  0  0  0  0  0  0  0  0  0  0
  -12.0325    3.3720   22.4817 C   0  0  0  0  0  0  0  0  0  0  0  0
  -12.9651    2.5210   22.7108 C   0  0  0  0  0  0  0  0  0  0  0  0
  1  2  1  0
  9 13  1  0
  8 14  1  0
 13 14  1  0
 14 15  1  6
 15 16  1  0
 16 17  2  3
 17 18  1  0
  1  3  2  0
  3 11  1  0
 11 12  2  0
 12 10  1  0
 10  9  2  0
  9  1  1  0
  2  4  2  0
  4  5  1  0
  5  6  2  0
  6  7  1  0
  7  8  2  0
  8  2  1  0
M  END
$$$$
