No_3776-complexes_sdf/6BKW-FPZ/2024-09-17-14-21-01/
     RDKit          3D

 26 28  0  0  0  0  0  0  0  0999 V2000
   -7.7129    4.2099   27.0854 C   0  0  0  0  0  0  0  0  0  0  0  0
   -8.2112    3.0637   26.9225 C   0  0  0  0  0  0  0  0  0  0  0  0
   -7.5138    1.9223   27.4249 C   0  0  0  0  0  0  0  0  0  0  0  0
   -6.5434    4.4363   27.9024 C   0  0  0  0  0  0  0  0  0  0  0  0
   -6.2005    2.1121   27.9323 C   0  0  0  0  0  0  0  0  0  0  0  0
   -5.3761    1.0106   28.3668 C   0  0  0  0  0  0  0  0  0  0  0  0
   -5.7465    3.4540   28.2365 C   0  0  0  0  0  0  0  0  0  0  0  0
   -4.0767    1.1240   28.8230 C   0  0  0  0  0  0  0  0  0  0  0  0
   -3.3614    0.0171   29.2624 C   0  0  0  0  0  0  0  0  0  0  0  0
   -3.9585   -1.2217   29.2831 C   0  0  0  0  0  0  0  0  0  0  0  0
   -5.9162   -0.3313   28.3533 C   0  0  0  0  0  0  0  0  0  0  0  0
   -5.2476   -1.3829   28.8219 C   0  0  0  0  0  0  0  0  0  0  0  0
   -8.4035    5.5747   26.7924 C   0  0  0  0  0  0  0  0  0  0  0  0
   -8.1282    6.7512   27.3751 C   0  0  0  0  0  0  0  0  0  0  0  0
   -9.4410    5.4254   25.7744 C   0  0  0  0  0  0  0  0  0  0  0  0
   -8.8188    7.9146   26.9032 C   0  0  0  0  0  0  0  0  0  0  0  0
   -9.8484    4.2059   25.3302 C   0  0  0  0  0  0  0  0  0  0  0  0
   -9.2777    2.9498   25.9390 C   0  0  0  0  0  0  0  0  0  0  0  0
   -9.7008    1.6587   25.4140 C   0  0  0  0  0  0  0  0  0  0  0  0
  -10.5986    0.9439   26.1103 C   0  0  0  0  0  0  0  0  0  0  0  0
  -11.4272    1.3168   26.9273 C   0  0  0  0  0  0  0  0  0  0  0  0
  -12.1183    0.8979   27.7412 C   0  0  0  0  0  0  0  0  0  0  0  0
  -12.6172    0.8357   28.6425 C   0  0  0  0  0  0  0  0  0  0  0  0
  -13.3030    1.9478   29.3148 C   0  0  0  0  0  0  0  0  0  0  0  0
  -12.7969    3.1881   28.7033 C   0  0  0  0  0  0  0  0  0  0  0  0
  -12.0004    3.6109   27.7421 C   0  0  0  0  0  0  0  0  0  0  0  0
  5  6  1  0
 14 16  1  0
 18 19  1  0
 19 20  1  0
 20 21  2  3
 21 22  1  0
 22 23  1  0
 23 24  2  3
 24 25  1  0
 25 26  2  0
 14 13  1  0
  6  8  2  0
  8  9  1  0
  9 10  2  0
 10 12  1  0
 12 11  2  0
 11  6  1  0
  2 18  1  0
 18 17  2  0
 17 15  1  0
 15 13  2  0
 13  1  1  0
  1  2  1  0
  2  3  2  0
  3  5  1  0
  5  7  2  0
  7  4  1  0
  4  1  2  0
M  END
$$$$
