No_376-complexes_sdf/6BKW-FPZ/2024-09-17-14-21-01/
     RDKit          3D

 16 17  0  0  0  0  0  0  0  0999 V2000
   -7.9040    3.9820   27.1177 C   0  0  0  0  0  0  0  0  0  0  0  0
   -7.8663    4.8694   27.9238 C   0  0  0  0  0  0  0  0  0  0  0  0
   -9.0491    3.8523   26.2542 C   0  0  0  0  0  0  0  0  0  0  0  0
   -8.7661    5.9491   27.9690 C   0  0  0  0  0  0  0  0  0  0  0  0
   -9.9295    4.8502   26.2323 C   0  0  0  0  0  0  0  0  0  0  0  0
   -9.8077    5.9288   27.0933 C   0  0  0  0  0  0  0  0  0  0  0  0
   -7.0146    2.9513   27.1368 F   0  0  0  0  0  0  0  0  0  0  0  0
   -9.1015    2.7190   25.2776 C   0  0  0  0  0  0  0  0  0  0  0  0
   -8.7417    1.5910   25.6089 N   0  0  0  0  0  0  0  0  0  0  0  0
   -9.4343    3.0374   24.0516 O   0  0  0  0  0  0  0  0  0  0  0  0
   -8.7679    0.4491   24.7205 C   0  0  0  0  0  0  0  0  0  0  0  0
   -9.4718   -0.6166   25.2654 C   0  0  0  0  0  0  0  0  0  0  0  0
   -9.5785   -1.6267   24.6500 C   0  0  0  0  0  0  0  0  0  0  0  0
   -9.0239   -1.7747   23.2753 C   0  0  0  0  0  0  0  0  0  0  0  0
   -8.3525   -0.6691   22.7216 C   0  0  0  0  0  0  0  0  0  0  0  0
   -8.1924    0.4844   23.4842 C   0  0  0  0  0  0  0  0  0  0  0  0
  1  7  1  0
  3  8  1  0
  8  9  1  0
  8 10  2  0
  9 11  1  0
 11 12  2  0
 12 13  1  0
 13 14  2  0
 14 15  1  0
 15 16  2  0
 16 11  1  0
  1  2  2  0
  2  4  1  0
  4  6  2  0
  6  5  1  0
  5  3  2  0
  3  1  1  0
M  END
$$$$
