No_3642-complexes_sdf/6BKW-FPZ/2024-09-17-14-21-01/
     RDKit          3D

 10  9  0  0  0  0  0  0  0  0999 V2000
   -7.7129    4.2099   27.0854 C   0  0  0  0  0  0  0  0  0  0  0  0
   -8.9133    4.4736   27.0998 C   0  0  1  0  0  0  0  0  0  0  0  0
   -9.4643    5.5426   27.7628 C   0  0  0  0  0  0  0  0  0  0  0  0
   -9.8091    3.6358   26.2841 C   0  0  0  0  0  0  0  0  0  0  0  0
  -10.5514    4.0993   25.5100 C   0  0  0  0  0  0  0  0  0  0  0  0
   -7.1986    3.7486   28.2839 N   0  0  0  0  0  0  0  0  0  0  0  0
  -11.3881    3.2925   24.7310 C   0  0  0  0  0  0  0  0  0  0  0  0
  -11.2415    1.9780   24.7712 C   0  0  0  0  0  0  0  0  0  0  0  0
  -10.3222    1.4247   25.6592 C   0  0  0  0  0  0  0  0  0  0  0  0
   -9.5550    2.2674   26.4528 C   0  0  0  0  0  0  0  0  0  0  0  0
  1  2  1  0
  2  3  1  6
  2  4  1  0
  4  5  2  3
  1  6  1  0
  5  7  1  0
  7  8  2  3
  8  9  1  0
  9 10  2  0
M  END
$$$$
