No_3367-complexes_sdf/6BKW-FPZ/2024-09-17-14-21-01/
     RDKit          3D

 25 28  0  0  0  0  0  0  0  0999 V2000
   -7.2496    3.8871   27.4508 C   0  0  0  0  0  0  0  0  0  0  0  0
   -7.6161    2.7143   27.1523 C   0  0  0  0  0  0  0  0  0  0  0  0
   -6.9719    1.5838   27.5324 C   0  0  0  0  0  0  0  0  0  0  0  0
   -7.4590    0.2827   27.2615 C   0  0  0  0  0  0  0  0  0  0  0  0
   -8.7521    2.5117   26.3068 C   0  0  0  0  0  0  0  0  0  0  0  0
   -9.2100    1.2391   25.9794 C   0  0  0  0  0  0  0  0  0  0  0  0
   -8.5134    0.1313   26.5112 C   0  0  0  0  0  0  0  0  0  0  0  0
   -8.0343    5.0565   27.1688 C   0  0  0  0  0  0  0  0  0  0  0  0
   -7.6925    6.3666   27.7843 C   0  0  0  0  0  0  0  0  0  0  0  0
   -9.1505    5.0265   26.3637 C   0  0  0  0  0  0  0  0  0  0  0  0
   -9.5086    3.6765   25.9254 C   0  0  0  0  0  0  0  0  0  0  0  0
  -10.6196    3.6017   24.9627 C   0  0  0  0  0  0  0  0  0  0  0  0
  -11.8398    3.4062   25.4274 C   0  0  0  0  0  0  0  0  0  0  0  0
  -10.3343    3.6089   23.5817 C   0  0  0  0  0  0  0  0  0  0  0  0
  -11.2604    3.6059   22.6276 C   0  0  0  0  0  0  0  0  0  0  0  0
  -12.9335    3.4471   24.4976 C   0  0  0  0  0  0  0  0  0  0  0  0
  -12.6458    3.5673   23.1244 C   0  0  0  0  0  0  0  0  0  0  0  0
   -6.8404   -0.9569   27.7681 C   0  0  0  0  0  0  0  0  0  0  0  0
   -5.4922   -0.8706   28.2317 C   0  0  0  0  0  0  0  0  0  0  0  0
   -4.8672   -2.0061   28.8426 C   0  0  0  0  0  0  0  0  0  0  0  0
   -5.5835   -3.0908   28.9665 C   0  0  0  0  0  0  0  0  0  0  0  0
   -7.4264   -2.1338   28.0702 C   0  0  0  0  0  0  0  0  0  0  0  0
   -6.8754   -3.1822   28.6292 C   0  0  0  0  0  0  0  0  0  0  0  0
   -8.3588    7.4324   27.4095 O   0  0  0  0  0  0  0  0  0  0  0  0
   -6.6760    6.4397   28.5586 O   0  0  0  0  0  0  0  0  0  0  0  0
  8  9  1  0
 11 12  1  0
  4 18  1  0
  9 24  2  0
  9 25  1  0
 18 19  2  0
 19 20  1  0
 20 21  2  0
 21 23  1  0
 23 22  2  0
 22 18  1  0
  1  2  2  0
  5 11  2  0
 11 10  1  0
 10  8  2  0
  8  1  1  0
 12 13  2  0
 13 16  1  0
 16 17  2  0
 17 15  1  0
 15 14  2  0
 14 12  1  0
  2  3  1  0
  3  4  2  0
  4  7  1  0
  7  6  2  0
  6  5  1  0
  5  2  1  0
M  END
$$$$
