No_329-complexes_sdf/6BKW-FPZ/2024-09-17-14-21-01/
     RDKit          3D

 19 21  0  0  0  0  0  0  0  0999 V2000
   -7.9040    3.9820   27.1177 C   0  0  0  0  0  0  0  0  0  0  0  0
   -7.8663    4.8694   27.9238 C   0  0  0  0  0  0  0  0  0  0  0  0
   -9.0501    3.8017   26.2617 C   0  0  0  0  0  0  0  0  0  0  0  0
   -9.1826    2.7026   25.3575 C   0  0  0  0  0  0  0  0  0  0  0  0
   -8.6940    6.0131   27.8614 C   0  0  0  0  0  0  0  0  0  0  0  0
   -9.9755    4.8547   26.2361 C   0  0  0  0  0  0  0  0  0  0  0  0
   -9.7463    5.9398   27.0364 C   0  0  0  0  0  0  0  0  0  0  0  0
   -8.7094    1.4766   25.7702 C   0  0  0  0  0  0  0  0  0  0  0  0
   -9.8701    2.8497   24.1394 C   0  0  0  0  0  0  0  0  0  0  0  0
   -8.8286    0.4017   24.9127 C   0  0  0  0  0  0  0  0  0  0  0  0
   -9.9524    1.7536   23.3054 C   0  0  0  0  0  0  0  0  0  0  0  0
   -9.4143    0.5348   23.6888 C   0  0  0  0  0  0  0  0  0  0  0  0
  -10.5638    2.0947   22.1228 O   0  0  0  0  0  0  0  0  0  0  0  0
  -11.7632    2.5611   22.0346 C   0  0  0  0  0  0  0  0  0  0  0  0
  -11.9017    3.5693   21.2808 C   0  0  0  0  0  0  0  0  0  0  0  0
  -13.1373    4.3711   21.2329 C   0  0  0  0  0  0  0  0  0  0  0  0
  -14.1813    3.9658   22.0663 C   0  0  0  0  0  0  0  0  0  0  0  0
  -13.9201    2.9205   22.9397 C   0  0  0  0  0  0  0  0  0  0  0  0
  -12.6842    2.2375   23.0262 C   0  0  0  0  0  0  0  0  0  0  0  0
  3  4  1  0
 11 13  1  0
 13 14  1  0
 14 15  2  0
 15 16  1  0
 16 17  2  0
 17 18  1  0
 18 19  2  0
 19 14  1  0
  4  8  2  0
  8 10  1  0
 10 12  2  0
 12 11  1  0
 11  9  2  0
  9  4  1  0
  1  2  2  0
  2  5  1  0
  5  7  2  0
  7  6  1  0
  6  3  2  0
  3  1  1  0
M  END
$$$$
