No_3964-complexes_sdf/6BKW-FPZ/2024-09-17-14-21-01/
     RDKit          3D

 18 19  0  0  0  0  0  0  0  0999 V2000
   -7.9040    3.9820   27.1177 C   0  0  0  0  0  0  0  0  0  0  0  0
   -8.2057    2.8231   26.8733 C   0  0  0  0  0  0  0  0  0  0  0  0
   -7.0130    4.3706   28.1140 C   0  0  0  0  0  0  0  0  0  0  0  0
   -7.4093    1.7370   27.3857 C   0  0  0  0  0  0  0  0  0  0  0  0
   -7.7256    0.3814   27.1250 C   0  0  0  0  0  0  0  0  0  0  0  0
   -5.9453    3.4406   28.3256 C   0  0  0  0  0  0  0  0  0  0  0  0
   -6.2335    2.0841   28.0727 C   0  0  0  0  0  0  0  0  0  0  0  0
   -6.9839   -0.5775   27.4729 C   0  0  0  0  0  0  0  0  0  0  0  0
   -5.7323   -0.2636   28.0455 C   0  0  0  0  0  0  0  0  0  0  0  0
   -5.3416    1.0356   28.4175 C   0  0  0  0  0  0  0  0  0  0  0  0
   -8.9000    5.1243   26.6714 C   0  0  0  0  0  0  0  0  0  0  0  0
  -10.0566    5.5841   27.3109 P   0  0  2  0  0  0  0  0  0  0  0  0
  -10.1848    4.3758   28.3979 O   0  0  0  0  0  0  0  0  0  0  0  0
  -11.3233    5.3401   26.8558 O   0  0  0  0  0  0  0  0  0  0  0  0
   -9.8283    6.8393   28.0653 O   0  0  0  0  0  0  0  0  0  0  0  0
  -11.6571    4.6419   25.5786 Cl  0  0  0  0  0  0  0  0  0  0  0  0
   -4.2224    1.2970   28.9933 F   0  0  0  0  0  0  0  0  0  0  0  0
   -9.3812    0.0660   26.2849 Br  0  0  0  0  0  0  0  0  0  0  0  0
  1 11  1  0
 11 12  1  0
 12 13  1  1
 12 14  1  0
 12 15  2  0
 14 16  1  0
 10 17  1  0
  5 18  1  0
  1  2  2  0
  2  4  1  0
  7  6  1  0
  6  3  2  0
  3  1  1  0
  4  5  2  0
  5  8  1  0
  8  9  2  0
  9 10  1  0
 10  7  2  0
  7  4  1  0
M  END
$$$$
