No_3557-complexes_sdf/6BKW-FPZ/2024-09-17-14-21-01/
     RDKit          3D

 17 18  0  0  0  0  0  0  0  0999 V2000
   -7.7129    4.2099   27.0854 C   0  0  0  0  0  0  0  0  0  0  0  0
   -8.2112    3.0637   26.9225 C   0  0  0  0  0  0  0  0  0  0  0  0
   -9.4446    2.8304   26.1868 C   0  0  0  0  0  0  0  0  0  0  0  0
   -8.4697    5.3956   26.7238 C   0  0  0  0  0  0  0  0  0  0  0  0
   -9.6172    5.2111   25.9513 C   0  0  0  0  0  0  0  0  0  0  0  0
  -10.0424    3.9782   25.6873 C   0  0  0  0  0  0  0  0  0  0  0  0
   -7.9172    6.7181   27.0124 C   0  0  0  0  0  0  0  0  0  0  0  0
   -7.3707    6.8438   28.1449 N   0  0  0  0  0  0  0  0  0  0  0  0
   -8.1935    7.7806   26.2941 N   0  0  0  0  0  0  0  0  0  0  0  0
   -7.5025    1.8121   27.3857 C   0  0  0  0  0  0  0  0  0  0  0  0
   -6.8672    0.9959   26.6392 C   0  0  0  0  0  0  0  0  0  0  0  0
   -6.6733   -0.0560   27.0748 C   0  0  0  0  0  0  0  0  0  0  0  0
   -6.0140   -1.0305   26.5496 C   0  0  0  0  0  0  0  0  0  0  0  0
   -5.2352   -1.9852   27.1996 C   0  0  0  0  0  0  0  0  0  0  0  0
   -5.4613   -2.1635   28.5754 C   0  0  0  0  0  0  0  0  0  0  0  0
   -6.2068   -1.2308   29.2693 C   0  0  0  0  0  0  0  0  0  0  0  0
   -6.6660   -0.1803   28.6063 C   0  0  0  0  0  0  0  0  0  0  0  0
  4  7  1  0
  7  8  2  0
  7  9  1  0
  2 10  1  0
 10 11  1  0
 11 12  1  0
 12 13  2  0
 13 14  1  0
 14 15  2  0
 15 16  1  0
 16 17  2  0
 17 12  1  0
  1  2  2  0
  2  3  1  0
  3  6  2  0
  6  5  1  0
  5  4  2  0
  4  1  1  0
M  END
$$$$
