No_3960-complexes_sdf/6BKW-FPZ/2024-09-17-14-21-01/
     RDKit          3D

 18 20  0  0  0  0  0  0  0  0999 V2000
   -7.9040    3.9820   27.1177 C   0  0  0  0  0  0  0  0  0  0  0  0
   -9.0711    4.3164   27.0630 C   0  0  0  0  0  0  0  0  0  0  0  0
   -9.8698    3.9665   25.9495 C   0  0  0  0  0  0  0  0  0  0  0  0
   -7.0332    4.5030   28.2025 C   0  0  0  0  0  0  0  0  0  0  0  0
  -10.9909    4.7237   25.5958 C   0  0  0  0  0  0  0  0  0  0  0  0
   -7.4989    5.5573   28.9524 C   0  0  0  0  0  0  0  0  0  0  0  0
  -11.7350    4.2316   24.5284 C   0  0  0  0  0  0  0  0  0  0  0  0
  -11.2912    3.1970   23.7185 C   0  0  0  0  0  0  0  0  0  0  0  0
  -10.1586    2.5464   24.0389 C   0  0  0  0  0  0  0  0  0  0  0  0
   -9.3966    2.9844   25.1500 C   0  0  0  0  0  0  0  0  0  0  0  0
   -9.4387    5.4350   27.9141 C   0  0  0  0  0  0  0  0  0  0  0  0
   -8.6845    6.0138   28.8196 C   0  0  0  0  0  0  0  0  0  0  0  0
   -9.6648    1.3982   23.2237 C   0  0  0  0  0  0  0  0  0  0  0  0
   -8.7253    0.5594   23.7075 C   0  0  0  0  0  0  0  0  0  0  0  0
  -10.0884    1.2603   21.8903 C   0  0  0  0  0  0  0  0  0  0  0  0
   -8.2078   -0.5122   23.0052 C   0  0  0  0  0  0  0  0  0  0  0  0
   -8.8078   -0.8436   21.7721 C   0  0  0  0  0  0  0  0  0  0  0  0
   -9.7065    0.1120   21.2265 C   0  0  0  0  0  0  0  0  0  0  0  0
  9 13  1  0
  3  2  1  0
  1  2  2  0
  2 11  1  0
 11 12  2  0
 12  6  1  0
  6  4  2  0
  4  1  1  0
 13 14  2  0
 14 16  1  0
 16 17  2  0
 17 18  1  0
 18 15  2  0
 15 13  1  0
  3  5  2  0
  5  7  1  0
  7  8  2  0
  8  9  1  0
  9 10  2  0
 10  3  1  0
M  END
$$$$
