No_3071-complexes_sdf/6BKW-FPZ/2024-09-17-14-21-01/
     RDKit          3D

 28 31  0  0  0  0  0  0  0  0999 V2000
   -7.9040    3.9820   27.1177 C   0  0  0  0  0  0  0  0  0  0  0  0
   -9.0711    4.3164   27.0630 C   0  0  0  0  0  0  0  0  0  0  0  0
  -10.0395    3.8218   27.1938 C   0  0  0  0  0  0  0  0  0  0  0  0
   -7.6424    2.5858   27.3610 C   0  0  0  0  0  0  0  0  0  0  0  0
   -8.7741    1.7889   27.4566 C   0  0  0  0  0  0  0  0  0  0  0  0
  -10.0155    2.3581   27.4300 C   0  0  0  0  0  0  0  0  0  0  0  0
   -9.1463    5.9504   26.8742 C   0  0  0  0  0  0  0  0  0  0  0  0
   -9.1673    6.6942   27.8901 N   0  0  0  0  0  0  0  0  0  0  0  0
   -9.2627    6.3549   25.6783 O   0  0  0  0  0  0  0  0  0  0  0  0
   -6.3249    1.9805   27.3581 C   0  0  0  0  0  0  0  0  0  0  0  0
   -5.3444    2.6418   27.8127 O   0  0  0  0  0  0  0  0  0  0  0  0
   -6.0712    0.8877   26.6201 O   0  0  0  0  0  0  0  0  0  0  0  0
   -5.0843    0.0066   27.1651 C   0  0  0  0  0  0  0  0  0  0  0  0
   -5.4799   -1.1930   27.6767 C   0  0  0  0  0  0  0  0  0  0  0  0
   -6.6287   -1.6906   27.3243 C   0  0  0  0  0  0  0  0  0  0  0  0
   -7.3571   -2.4437   28.2607 C   0  0  0  0  0  0  0  0  0  0  0  0
   -6.8435   -2.7321   29.4668 C   0  0  0  0  0  0  0  0  0  0  0  0
   -5.6329   -2.1811   29.8947 C   0  0  0  0  0  0  0  0  0  0  0  0
   -4.9977   -1.3223   29.0658 C   0  0  0  0  0  0  0  0  0  0  0  0
   -3.7565   -0.6698   29.5289 C   0  0  0  0  0  0  0  0  0  0  0  0
   -3.2969    0.4330   29.2328 C   0  0  0  0  0  0  0  0  0  0  0  0
   -3.0081   -1.5917   30.3609 C   0  0  0  0  0  0  0  0  0  0  0  0
   -1.7282   -1.2548   30.7963 C   0  0  0  0  0  0  0  0  0  0  0  0
   -0.9670   -2.3461   31.1111 C   0  0  0  0  0  0  0  0  0  0  0  0
   -1.4506   -3.5102   31.4140 C   0  0  0  0  0  0  0  0  0  0  0  0
   -2.7420   -3.8084   31.0630 C   0  0  0  0  0  0  0  0  0  0  0  0
   -3.4742   -2.8576   30.4783 C   0  0  0  0  0  0  0  0  0  0  0  0
   -4.8215   -3.1026   30.2681 C   0  0  0  0  0  0  0  0  0  0  0  0
  2  7  1  0
  7  8  1  0
  7  9  2  0
  4 10  1  0
 10 11  2  0
 10 12  1  0
 12 13  1  0
 13 14  1  0
 19 20  1  0
 20 21  2  0
 20 22  1  0
 18 28  1  0
 27 28  1  0
 14 15  2  0
 15 16  1  0
 16 17  2  0
 17 18  1  0
 18 19  2  0
 19 14  1  0
 22 23  2  0
 23 24  1  0
 24 25  2  0
 25 26  1  0
 26 27  2  0
 27 22  1  0
  1  2  2  0
  2  3  1  0
  3  6  2  0
  6  5  1  0
  5  4  2  0
  4  1  1  0
M  END
$$$$
