No_3184-complexes_sdf/6BKW-FPZ/2024-09-17-14-21-01/
     RDKit          3D

 38 42  0  0  0  0  0  0  0  0999 V2000
   -7.9040    3.9820   27.1177 C   0  0  0  0  0  0  0  0  0  0  0  0
   -8.2057    2.8231   26.8733 C   0  0  0  0  0  0  0  0  0  0  0  0
   -8.7695    5.0740   26.7916 C   0  0  0  0  0  0  0  0  0  0  0  0
   -8.4337    6.4678   27.0913 C   0  0  0  0  0  0  0  0  0  0  0  0
   -9.1945    2.4408   26.4350 C   0  0  0  0  0  0  0  0  0  0  0  0
  -10.2047    3.3522   26.0527 C   0  0  0  0  0  0  0  0  0  0  0  0
   -9.9687    4.6754   26.2340 C   0  0  0  0  0  0  0  0  0  0  0  0
   -8.5288    6.8174   28.2163 F   0  0  0  0  0  0  0  0  0  0  0  0
   -7.1363    6.7623   26.6603 F   0  0  0  0  0  0  0  0  0  0  0  0
   -9.1768    7.2950   26.2472 F   0  0  0  0  0  0  0  0  0  0  0  0
   -7.0986    1.7670   27.3802 C   0  0  0  0  0  0  0  0  0  0  0  0
   -5.8277    2.1393   27.8379 C   0  0  0  0  0  0  0  0  0  0  0  0
   -4.8539    1.1631   28.2107 C   0  0  0  0  0  0  0  0  0  0  0  0
   -5.1779   -0.1749   28.1085 C   0  0  0  0  0  0  0  0  0  0  0  0
   -7.4477    0.3810   27.3870 C   0  0  0  0  0  0  0  0  0  0  0  0
   -6.4852   -0.5211   27.7668 C   0  0  0  0  0  0  0  0  0  0  0  0
   -4.2351   -1.1813   28.6136 C   0  0  1  0  0  0  0  0  0  0  0  0
   -4.0028   -1.3786   29.8964 C   0  0  0  0  0  0  0  0  0  0  0  0
   -4.6100   -0.7145   30.8749 C   0  0  0  0  0  0  0  0  0  0  0  0
   -4.3315   -0.8649   32.2928 C   0  0  0  0  0  0  0  0  0  0  0  0
   -5.1011   -0.2928   33.2917 C   0  0  0  0  0  0  0  0  0  0  0  0
   -3.0975   -1.5178   32.6446 C   0  0  0  0  0  0  0  0  0  0  0  0
   -2.3228   -2.1418   31.6522 C   0  0  0  0  0  0  0  0  0  0  0  0
   -2.7057   -1.9791   30.3103 C   0  0  0  0  0  0  0  0  0  0  0  0
   -3.6935   -1.9288   27.5324 C   0  0  0  0  0  0  0  0  0  0  0  0
   -4.9725   -0.7584   34.5407 N   0  0  0  0  0  0  0  0  0  0  0  0
   -5.3685   -0.9169   35.5233 C   0  0  0  0  0  0  0  0  0  0  0  0
   -4.5950   -1.3161   36.7864 C   0  0  0  0  0  0  0  0  0  0  0  0
   -4.9322   -1.9095   37.6881 C   0  0  0  0  0  0  0  0  0  0  0  0
   -6.3884   -2.2223   37.8767 C   0  0  0  0  0  0  0  0  0  0  0  0
   -7.1389   -2.1049   36.7748 C   0  0  0  0  0  0  0  0  0  0  0  0
   -6.6085   -1.6015   35.6825 N   0  0  0  0  0  0  0  0  0  0  0  0
   -3.8121   -2.9520   27.2178 C   0  0  0  0  0  0  0  0  0  0  0  0
   -4.8330   -3.8302   27.8956 C   0  0  0  0  0  0  0  0  0  0  0  0
   -5.0702   -5.1651   27.5147 C   0  0  0  0  0  0  0  0  0  0  0  0
   -4.3133   -5.5754   26.4362 C   0  0  0  0  0  0  0  0  0  0  0  0
   -3.4133   -4.8631   25.7176 C   0  0  0  0  0  0  0  0  0  0  0  0
   -3.1445   -3.5602   26.0908 C   0  0  0  0  0  0  0  0  0  0  0  0
  3  4  1  0
  4  8  1  0
  4  9  1  0
  4 10  1  0
  2 11  1  0
 14 17  1  0
 17 18  1  0
 20 21  1  0
 17 25  1  1
 21 26  1  0
 25 33  1  0
 26 27  1  0
 18 19  2  0
 19 20  1  0
 20 22  2  0
 22 23  1  0
 23 24  2  0
 24 18  1  0
  1  2  2  0
  2  5  1  0
  5  6  2  0
  6  7  1  0
  7  3  2  0
  3  1  1  0
 33 34  2  0
 34 35  1  0
 35 36  2  0
 36 37  1  0
 37 38  2  0
 38 33  1  0
 27 28  2  0
 28 29  1  0
 29 30  2  0
 30 31  1  0
 31 32  2  0
 32 27  1  0
 11 12  2  0
 12 13  1  0
 13 14  2  0
 14 16  1  0
 16 15  2  0
 15 11  1  0
M  END
$$$$
