No_3938-complexes_sdf/6BKW-FPZ/2024-09-17-14-21-01/
     RDKit          3D

 29 32  0  0  0  0  0  0  0  0999 V2000
   -7.2496    3.8871   27.4508 C   0  0  0  0  0  0  0  0  0  0  0  0
   -7.9379    4.9063   27.8518 C   0  0  0  0  0  0  0  0  0  0  0  0
   -9.3376    4.8647   27.7795 C   0  0  0  0  0  0  0  0  0  0  0  0
   -7.8544    2.6294   27.0414 C   0  0  0  0  0  0  0  0  0  0  0  0
   -9.2665    2.6175   27.0340 C   0  0  0  0  0  0  0  0  0  0  0  0
   -9.9836    3.7042   27.4150 C   0  0  0  0  0  0  0  0  0  0  0  0
   -6.9318    1.2933   26.7248 Cl  0  0  0  0  0  0  0  0  0  0  0  0
  -11.4546    3.6175   27.4549 C   0  0  0  0  0  0  0  0  0  0  0  0
  -11.9398    2.8976   28.3869 C   0  0  0  0  0  0  0  0  0  0  0  0
  -13.3802    2.7378   28.6535 C   0  0  0  0  0  0  0  0  0  0  0  0
  -14.1994    3.4970   27.8332 C   0  0  0  0  0  0  0  0  0  0  0  0
  -13.6508    4.3273   26.8790 C   0  0  0  0  0  0  0  0  0  0  0  0
  -12.2842    4.4899   26.7277 C   0  0  0  0  0  0  0  0  0  0  0  0
   -7.0360    6.5029   28.2977 Br  0  0  0  0  0  0  0  0  0  0  0  0
  -13.9009    1.7917   29.6716 C   0  0  0  0  0  0  0  0  0  0  0  0
  -13.8866    2.0554   30.7469 O   0  0  0  0  0  0  0  0  0  0  0  0
  -14.5657    0.8258   29.1476 O   0  0  0  0  0  0  0  0  0  0  0  0
  -14.6871   -0.2871   29.8456 C   0  0  0  0  0  0  0  0  0  0  0  0
  -13.7473   -1.2413   29.7014 C   0  0  0  0  0  0  0  0  0  0  0  0
  -13.3123   -1.8445   30.7007 C   0  0  0  0  0  0  0  0  0  0  0  0
  -14.0157   -1.9067   31.9831 C   0  0  0  0  0  0  0  0  0  0  0  0
  -15.0421   -0.9730   32.1102 C   0  0  0  0  0  0  0  0  0  0  0  0
  -15.3229   -0.0972   31.0856 C   0  0  0  0  0  0  0  0  0  0  0  0
  -12.9472   -1.2683   28.4684 C   0  0  0  0  0  0  0  0  0  0  0  0
  -13.1645   -1.0997   27.4056 C   0  0  0  0  0  0  0  0  0  0  0  0
  -12.3353   -1.1785   26.2733 C   0  0  0  0  0  0  0  0  0  0  0  0
  -11.0282   -1.5122   26.4550 C   0  0  0  0  0  0  0  0  0  0  0  0
  -10.5809   -1.7767   27.7447 C   0  0  0  0  0  0  0  0  0  0  0  0
  -11.4302   -1.6580   28.7779 C   0  0  0  0  0  0  0  0  0  0  0  0
  4  7  1  0
  6  8  1  0
  2 14  1  0
 10 15  1  0
 15 16  2  0
 15 17  1  0
 17 18  1  0
 19 24  1  0
 18 19  1  0
 19 20  2  0
 20 21  1  0
 21 22  2  0
 22 23  1  0
 23 18  2  0
 24 25  2  0
 25 26  1  0
 26 27  2  0
 27 28  1  0
 28 29  2  0
 29 24  1  0
  1  2  2  0
  2  3  1  0
  3  6  2  0
  6  5  1  0
  5  4  2  0
  4  1  1  0
  8  9  2  0
  9 10  1  0
 10 11  2  0
 11 12  1  0
 12 13  2  0
 13  8  1  0
M  END
$$$$
