No_3967-complexes_sdf/6BKW-FPZ/2024-09-17-14-21-01/
     RDKit          3D

 19 21  0  0  0  0  0  0  0  0999 V2000
   -7.9040    3.9820   27.1177 C   0  0  0  0  0  0  0  0  0  0  0  0
   -8.2057    2.8231   26.8733 C   0  0  0  0  0  0  0  0  0  0  0  0
   -9.2962    2.4021   26.1155 C   0  0  0  0  0  0  0  0  0  0  0  0
   -8.7358    5.0662   26.5917 C   0  0  0  0  0  0  0  0  0  0  0  0
   -9.7618    4.7023   25.7546 C   0  0  0  0  0  0  0  0  0  0  0  0
  -10.0066    3.4105   25.4922 C   0  0  0  0  0  0  0  0  0  0  0  0
   -8.3943    6.4760   26.8801 C   0  0  0  0  0  0  0  0  0  0  0  0
   -8.0394    6.8605   28.0789 N   0  0  0  0  0  0  0  0  0  0  0  0
   -8.3800    7.3307   25.9466 O   0  0  0  0  0  0  0  0  0  0  0  0
   -7.3592    1.6694   27.4989 C   0  0  0  0  0  0  0  0  0  0  0  0
   -7.7587    0.4019   27.3980 N   0  0  0  0  0  0  0  0  0  0  0  0
   -8.9009   -0.0008   27.4367 C   0  0  0  0  0  0  0  0  0  0  0  0
   -6.2114    1.9978   27.9870 O   0  0  0  0  0  0  0  0  0  0  0  0
   -9.2268   -1.0636   28.3391 C   0  0  0  0  0  0  0  0  0  0  0  0
  -10.0752   -1.7124   28.3718 C   0  0  0  0  0  0  0  0  0  0  0  0
  -11.3426   -1.2696   27.6735 C   0  0  0  0  0  0  0  0  0  0  0  0
  -11.2136   -0.2144   26.8393 C   0  0  0  0  0  0  0  0  0  0  0  0
  -10.0224    0.4123   26.6868 C   0  0  0  0  0  0  0  0  0  0  0  0
   -9.8724    1.1103   26.2215 C   0  0  0  0  0  0  0  0  0  0  0  0
  4  7  1  0
  7  8  1  0
  7  9  2  0
  2 10  1  0
 10 11  1  0
 11 12  1  0
 10 13  2  0
  3 19  1  0
 18 19  1  0
 12 14  2  0
 14 15  1  0
 15 16  2  0
 16 17  1  0
 17 18  2  0
 18 12  1  0
  1  2  2  0
  2  3  1  0
  3  6  2  0
  6  5  1  0
  5  4  2  0
  4  1  1  0
M  END
$$$$
