No_3949-complexes_sdf/6BKW-FPZ/2024-09-17-14-21-01/
     RDKit          3D

 15 17  0  0  0  0  0  0  0  0999 V2000
   -7.7129    4.2099   27.0854 C   0  0  0  0  0  0  0  0  0  0  0  0
   -7.7814    5.1722   27.8972 C   0  0  0  0  0  0  0  0  0  0  0  0
   -7.3155    2.9700   27.6145 C   0  0  0  0  0  0  0  0  0  0  0  0
   -7.6814    1.8188   26.9581 C   0  0  0  0  0  0  0  0  0  0  0  0
   -8.6377    1.9131   25.9324 C   0  0  0  0  0  0  0  0  0  0  0  0
   -9.0136    0.6482   25.3285 C   0  0  0  0  0  0  0  0  0  0  0  0
   -8.7885    4.0863   26.1558 C   0  0  0  0  0  0  0  0  0  0  0  0
   -9.3974    5.3442   25.8221 C   0  0  0  0  0  0  0  0  0  0  0  0
   -9.1280    3.0058   25.4707 C   0  0  0  0  0  0  0  0  0  0  0  0
   -9.3005    0.5226   24.1281 C   0  0  0  0  0  0  0  0  0  0  0  0
   -9.3717    1.6781   23.3098 C   0  0  0  0  0  0  0  0  0  0  0  0
   -9.5929    2.9743   24.0928 C   0  0  0  0  0  0  0  0  0  0  0  0
   -8.2974    6.4873   27.6257 N   0  0  0  0  0  0  0  0  0  0  0  0
   -9.1697    6.5455   26.5738 C   0  0  0  0  0  0  0  0  0  0  0  0
   -7.1327    0.6923   27.4140 F   0  0  0  0  0  0  0  0  0  0  0  0
  4 15  1  0
  5  6  2  0
  6 10  1  0
 10 11  2  0
 11 12  1  0
 12  9  2  0
  1  2  2  0
  2 13  1  0
 13 14  2  0
 14  8  1  0
  8  7  2  0
  1  3  1  0
  3  4  2  0
  4  5  1  0
  5  9  1  0
  9  7  1  0
  7  1  1  0
M  END
$$$$
