No_3930-complexes_sdf/6BKW-FPZ/2024-09-17-14-21-01/
     RDKit          3D

 27 29  0  0  0  0  0  0  0  0999 V2000
   -7.9040    3.9820   27.1177 C   0  0  0  0  0  0  0  0  0  0  0  0
   -8.2057    2.8231   26.8733 C   0  0  0  0  0  0  0  0  0  0  0  0
   -9.2962    2.4021   26.1155 C   0  0  0  0  0  0  0  0  0  0  0  0
   -6.8682    4.5169   28.0704 C   0  0  0  0  0  0  0  0  0  0  0  0
   -9.9626    3.2667   25.7716 C   0  0  0  0  0  0  0  0  0  0  0  0
   -9.7836    4.6878   25.9070 C   0  0  0  0  0  0  0  0  0  0  0  0
   -8.7061    5.0317   26.6249 C   0  0  0  0  0  0  0  0  0  0  0  0
   -8.4808    6.3357   26.9413 N   0  0  0  0  0  0  0  0  0  0  0  0
   -7.4485    6.7649   27.6743 C   0  0  0  0  0  0  0  0  0  0  0  0
   -6.7714    5.8380   28.2647 N   0  0  0  0  0  0  0  0  0  0  0  0
   -7.1306    1.4836   27.5156 Cl  0  0  0  0  0  0  0  0  0  0  0  0
  -11.2056    2.9818   24.7750 C   0  0  0  0  0  0  0  0  0  0  0  0
  -12.2915    2.5562   25.2247 N   0  0  0  0  0  0  0  0  0  0  0  0
  -12.4538    2.1246   26.3546 C   0  0  0  0  0  0  0  0  0  0  0  0
  -13.8384    1.7958   26.8144 C   0  0  0  0  0  0  0  0  0  0  0  0
  -13.5261    2.5546   24.3706 C   0  0  0  0  0  0  0  0  0  0  0  0
  -14.7042    2.2836   24.7736 C   0  0  0  0  0  0  0  0  0  0  0  0
  -14.8872    1.8651   26.0758 C   0  0  0  0  0  0  0  0  0  0  0  0
  -10.7997    2.8828   23.5380 O   0  0  0  0  0  0  0  0  0  0  0  0
  -16.2163    1.4498   26.5610 C   0  0  0  0  0  0  0  0  0  0  0  0
  -16.5084    1.7314   27.7530 N   0  0  0  0  0  0  0  0  0  0  0  0
  -16.2223    2.9040   28.2456 C   0  0  0  0  0  0  0  0  0  0  0  0
  -15.8337    3.3732   29.2317 C   0  0  0  0  0  0  0  0  0  0  0  0
  -15.4681    4.7739   29.6320 C   0  0  0  0  0  0  0  0  0  0  0  0
  -14.9648    5.2858   30.8362 C   0  0  0  0  0  0  0  0  0  0  0  0
  -14.6365    4.3802   31.8551 C   0  0  0  0  0  0  0  0  0  0  0  0
  -14.7757    2.9932   31.5910 C   0  0  0  0  0  0  0  0  0  0  0  0
  2 11  1  0
  5 12  1  0
 12 13  1  0
 13 14  1  0
 13 16  1  0
 15 18  1  0
 17 18  1  0
 12 19  2  0
 18 20  1  0
 20 21  1  0
 21 22  1  0
 22 23  2  3
 23 24  1  0
 24 25  2  3
 25 26  1  0
 26 27  2  0
 14 15  1  0
 17 16  1  0
  1  4  1  0
  4 10  2  0
 10  9  1  0
  9  8  2  0
  8  7  1  0
  1  2  2  0
  2  3  1  0
  3  5  2  0
  5  6  1  0
  6  7  2  0
  7  1  1  0
M  END
$$$$
