No_3728-complexes_sdf/6BKW-FPZ/2024-09-17-14-21-01/
     RDKit          3D

 14 15  0  0  0  0  0  0  0  0999 V2000
   -7.2496    3.8871   27.4508 C   0  0  0  0  0  0  0  0  0  0  0  0
   -7.9379    4.9063   27.8518 C   0  0  0  0  0  0  0  0  0  0  0  0
   -9.3376    4.8647   27.7795 C   0  0  0  0  0  0  0  0  0  0  0  0
   -7.8544    2.6294   27.0414 C   0  0  0  0  0  0  0  0  0  0  0  0
   -9.2665    2.6175   27.0340 C   0  0  0  0  0  0  0  0  0  0  0  0
   -9.9836    3.7042   27.4150 C   0  0  0  0  0  0  0  0  0  0  0  0
   -7.1365    1.6095   26.7726 F   0  0  0  0  0  0  0  0  0  0  0  0
  -11.4637    3.6187   27.4650 C   0  0  0  0  0  0  0  0  0  0  0  0
  -12.1651    4.1198   26.6526 C   0  0  0  0  0  0  0  0  0  0  0  0
  -13.6077    4.2465   26.7691 C   0  0  0  0  0  0  0  0  0  0  0  0
  -14.2185    3.7521   27.8844 C   0  0  0  0  0  0  0  0  0  0  0  0
  -12.0828    3.1313   28.7568 C   0  0  0  0  0  0  0  0  0  0  0  0
  -13.4094    3.1607   28.9384 C   0  0  0  0  0  0  0  0  0  0  0  0
   -7.3007    6.0586   28.1807 O   0  0  0  0  0  0  0  0  0  0  0  0
  4  7  1  0
  6  8  1  0
  2 14  1  0
  1  2  2  0
  2  3  1  0
  3  6  2  0
  6  5  1  0
  5  4  2  0
  4  1  1  0
  8  9  2  0
  9 10  1  0
 10 11  2  0
 11 13  1  0
 13 12  2  0
 12  8  1  0
M  END
$$$$
