No_3187-complexes_sdf/6BKW-FPZ/2024-09-17-14-21-01/
     RDKit          3D

 25 26  0  0  0  0  0  0  0  0999 V2000
   -7.9040    3.9820   27.1177 C   0  0  0  0  0  0  0  0  0  0  0  0
   -7.8663    4.8694   27.9238 C   0  0  0  0  0  0  0  0  0  0  0  0
   -7.4547    2.7080   27.4594 C   0  0  0  0  0  0  0  0  0  0  0  0
   -7.9337    1.5946   26.8372 C   0  0  0  0  0  0  0  0  0  0  0  0
   -8.9032    1.7881   25.8510 C   0  0  0  0  0  0  0  0  0  0  0  0
   -9.3787    2.9871   25.5530 C   0  0  0  0  0  0  0  0  0  0  0  0
   -8.9781    4.0300   26.2200 C   0  0  0  0  0  0  0  0  0  0  0  0
   -8.0014    6.0716   27.8481 N   0  0  0  0  0  0  0  0  0  0  0  0
  -10.3917    3.1448   24.4429 C   0  0  0  0  0  0  0  0  0  0  0  0
  -10.4051    2.4028   23.3389 C   0  0  0  0  0  0  0  0  0  0  0  0
  -11.2569    2.6437   22.2391 C   0  0  0  0  0  0  0  0  0  0  0  0
  -12.0867    3.7973   22.3018 C   0  0  0  0  0  0  0  0  0  0  0  0
  -12.0598    4.5951   23.4458 C   0  0  0  0  0  0  0  0  0  0  0  0
  -11.2048    4.3888   24.4748 C   0  0  0  0  0  0  0  0  0  0  0  0
   -8.2756    6.7609   26.7097 C   0  0  0  0  0  0  0  0  0  0  0  0
   -8.2932    8.2596   26.9205 C   0  0  0  0  0  0  0  0  0  0  0  0
   -8.8261    6.2859   25.7650 O   0  0  0  0  0  0  0  0  0  0  0  0
   -7.3664    0.2382   27.1119 C   0  0  0  0  0  0  0  0  0  0  0  0
   -7.9388   -0.7564   27.1471 O   0  0  0  0  0  0  0  0  0  0  0  0
   -6.0633    0.2655   27.4999 O   0  0  0  0  0  0  0  0  0  0  0  0
   -5.4076   -0.7691   28.0053 C   0  0  0  0  0  0  0  0  0  0  0  0
   -3.9968   -0.5634   27.9304 C   0  0  0  0  0  0  0  0  0  0  0  0
   -3.6104    0.6861   27.5764 C   0  0  0  0  0  0  0  0  0  0  0  0
   -2.8373    0.8574   26.4837 O   0  0  0  0  0  0  0  0  0  0  0  0
   -4.0102    1.7574   28.1794 O   0  0  0  0  0  0  0  0  0  0  0  0
  1  2  1  0
  2  8  2  3
  6  9  1  0
  8 15  1  0
 15 16  1  0
 15 17  2  0
  4 18  1  0
 18 19  2  0
 18 20  1  0
 20 21  1  0
 21 22  1  0
 22 23  1  0
 23 24  2  0
 23 25  1  0
  9 10  2  0
 10 11  1  0
 11 12  2  0
 12 13  1  0
 13 14  2  0
 14  9  1  0
  1  3  2  0
  3  4  1  0
  4  5  2  0
  5  6  1  0
  6  7  2  0
  7  1  1  0
M  END
$$$$
