No_3806-complexes_sdf/6BKW-FPZ/2024-09-17-14-21-01/
     RDKit          3D

 25 27  0  0  0  0  0  0  0  0999 V2000
   -7.9040    3.9820   27.1177 C   0  0  0  0  0  0  0  0  0  0  0  0
   -8.2057    2.8231   26.8733 C   0  0  0  0  0  0  0  0  0  0  0  0
   -8.7695    5.0740   26.7916 C   0  0  0  0  0  0  0  0  0  0  0  0
   -9.9618    4.7598   26.1630 C   0  0  0  0  0  0  0  0  0  0  0  0
   -9.4200    2.4524   26.2850 C   0  0  0  0  0  0  0  0  0  0  0  0
  -10.2590    3.4815   25.9250 C   0  0  0  0  0  0  0  0  0  0  0  0
   -8.3840    6.4693   27.0829 C   0  0  0  0  0  0  0  0  0  0  0  0
   -7.7493    6.7880   28.2320 C   0  0  0  0  0  0  0  0  0  0  0  0
   -8.7281    7.4896   26.1794 C   0  0  0  0  0  0  0  0  0  0  0  0
   -7.2861    1.6604   27.2858 C   0  0  0  0  0  0  0  0  0  0  0  0
   -6.0354    1.9722   27.8551 C   0  0  0  0  0  0  0  0  0  0  0  0
   -5.1332    0.8993   28.1984 C   0  0  0  0  0  0  0  0  0  0  0  0
   -5.5123   -0.3930   28.0558 C   0  0  0  0  0  0  0  0  0  0  0  0
   -7.7148    0.3193   27.1814 C   0  0  0  0  0  0  0  0  0  0  0  0
   -6.8146   -0.6445   27.6196 C   0  0  0  0  0  0  0  0  0  0  0  0
   -3.8875    1.1268   28.7327 O   0  0  0  0  0  0  0  0  0  0  0  0
   -7.3901    5.8067   29.0382 N   0  0  0  0  0  0  0  0  0  0  0  0
  -11.5047    3.1844   25.1380 C   0  0  0  0  0  0  0  0  0  0  0  0
  -11.7150    3.9155   23.9747 C   0  0  0  0  0  0  0  0  0  0  0  0
  -12.8399    3.6979   23.1552 C   0  0  0  0  0  0  0  0  0  0  0  0
  -13.8001    2.9531   23.5668 C   0  0  0  0  0  0  0  0  0  0  0  0
  -12.4313    2.2892   25.5729 C   0  0  0  0  0  0  0  0  0  0  0  0
  -13.6292    2.1957   24.7870 C   0  0  0  0  0  0  0  0  0  0  0  0
  -14.6017    1.3553   25.1393 F   0  0  0  0  0  0  0  0  0  0  0  0
   -3.0612   -0.0121   28.8684 C   0  0  0  0  0  0  0  0  0  0  0  0
  3  7  1  0
  7  8  2  3
  7  9  1  0
  2 10  1  0
 12 16  1  0
  8 17  1  0
  6 18  1  0
 23 24  1  0
 16 25  1  0
 10 11  2  0
 11 12  1  0
 12 13  2  0
 13 15  1  0
 15 14  2  0
 14 10  1  0
 18 19  2  0
 19 20  1  0
 20 21  2  0
 21 23  1  0
 23 22  2  0
 22 18  1  0
  1  2  2  0
  2  5  1  0
  5  6  2  0
  6  4  1  0
  4  3  2  0
  3  1  1  0
M  END
$$$$
