No_3959-complexes_sdf/6BKW-FPZ/2024-09-17-14-21-01/
     RDKit          3D

 17 16  0  0  0  0  0  0  0  0999 V2000
   -7.7129    4.2099   27.0854 C   0  0  0  0  0  0  0  0  0  0  0  0
   -7.7814    5.1722   27.8972 C   0  0  0  0  0  0  0  0  0  0  0  0
   -8.7889    3.2468   27.2220 C   0  0  0  0  0  0  0  0  0  0  0  0
   -9.8927    3.4443   27.8449 C   0  0  0  0  0  0  0  0  0  0  0  0
  -10.8580    4.0567   27.3000 C   0  0  0  0  0  0  0  0  0  0  0  0
  -11.9118    3.2220   26.8560 C   0  0  0  0  0  0  0  0  0  0  0  0
  -12.2158    2.1636   27.5476 C   0  0  0  0  0  0  0  0  0  0  0  0
  -12.7759    1.3345   27.7040 C   0  0  0  0  0  0  0  0  0  0  0  0
   -8.6280    1.8907   26.6288 C   0  0  2  0  0  0  0  0  0  0  0  0
   -7.4334    0.7840   27.3372 Cl  0  0  0  0  0  0  0  0  0  0  0  0
  -14.0059    1.2620   27.0450 C   0  0  0  0  0  0  0  0  0  0  0  0
  -14.8200    0.4413   26.9251 C   0  0  0  0  0  0  0  0  0  0  0  0
   -9.2856    1.4459   25.5061 C   0  0  0  0  0  0  0  0  0  0  0  0
   -9.7249    0.5096   25.2153 C   0  0  0  0  0  0  0  0  0  0  0  0
  -10.4353    0.2313   23.9313 C   0  0  0  0  0  0  0  0  0  0  0  0
  -10.6364    1.3300   23.1230 C   0  0  0  0  0  0  0  0  0  0  0  0
  -10.0811    2.5817   23.4544 C   0  0  0  0  0  0  0  0  0  0  0  0
  1  2  1  0
  1  3  1  0
  3  4  1  0
  4  5  1  0
  5  6  1  0
  6  7  1  0
  7  8  3  0
  3  9  1  0
  9 10  1  6
  8 11  1  0
 11 12  2  0
  9 13  1  0
 13 14  2  3
 14 15  1  0
 15 16  2  3
 16 17  1  0
M  END
$$$$
