No_394-complexes_sdf/6BKW-FPZ/2024-09-17-14-21-01/
     RDKit          3D

 31 34  0  0  0  0  0  0  0  0999 V2000
   -7.7129    4.2099   27.0854 C   0  0  0  0  0  0  0  0  0  0  0  0
   -8.2112    3.0637   26.9225 C   0  0  0  0  0  0  0  0  0  0  0  0
   -7.0021    4.5281   28.2396 C   0  0  0  0  0  0  0  0  0  0  0  0
   -7.5497    1.9016   27.4549 C   0  0  0  0  0  0  0  0  0  0  0  0
   -8.0831    0.6050   27.2852 C   0  0  0  0  0  0  0  0  0  0  0  0
   -9.3847    0.5379   26.8015 C   0  0  0  0  0  0  0  0  0  0  0  0
  -10.0898    1.6195   26.3689 C   0  0  0  0  0  0  0  0  0  0  0  0
   -9.4935    2.8855   26.3990 C   0  0  0  0  0  0  0  0  0  0  0  0
   -6.5987    5.4207   28.5750 C   0  0  0  0  0  0  0  0  0  0  0  0
   -7.0686    6.7614   27.9988 C   0  0  0  0  0  0  0  0  0  0  0  0
   -8.3707    5.3690   26.5684 C   0  0  0  0  0  0  0  0  0  0  0  0
   -7.9945    6.6469   26.9812 C   0  0  0  0  0  0  0  0  0  0  0  0
   -8.5705    7.8645   26.4139 C   0  0  0  0  0  0  0  0  0  0  0  0
   -7.3896   -0.5526   27.8390 C   0  0  2  0  0  0  0  0  0  0  0  0
   -6.0266   -0.4842   28.0727 C   0  0  0  0  0  0  0  0  0  0  0  0
   -5.1912    0.4452   27.4714 C   0  0  0  0  0  0  0  0  0  0  0  0
   -3.7961    0.2626   27.8686 C   0  0  0  0  0  0  0  0  0  0  0  0
   -3.4074   -0.5817   28.8304 C   0  0  0  0  0  0  0  0  0  0  0  0
   -4.2825   -1.4116   29.4472 C   0  0  0  0  0  0  0  0  0  0  0  0
   -5.6063   -1.3443   29.1157 C   0  0  0  0  0  0  0  0  0  0  0  0
   -8.1337   -1.7448   27.9576 C   0  0  0  0  0  0  0  0  0  0  0  0
   -7.9391   -2.7416   27.0546 C   0  0  0  0  0  0  0  0  0  0  0  0
   -7.1475   -2.6372   25.9548 C   0  0  0  0  0  0  0  0  0  0  0  0
   -6.6362   -1.6369   25.4905 C   0  0  0  0  0  0  0  0  0  0  0  0
   -5.7815   -1.7255   24.1850 C   0  0  0  0  0  0  0  0  0  0  0  0
   -5.6070   -2.9333   23.7463 C   0  0  0  0  0  0  0  0  0  0  0  0
   -6.8525   -3.8279   25.1588 C   0  0  0  0  0  0  0  0  0  0  0  0
   -6.1896   -3.9991   24.1667 C   0  0  0  0  0  0  0  0  0  0  0  0
   -8.7248   -3.9831   27.3052 C   0  0  0  0  0  0  0  0  0  0  0  0
   -9.1140   -4.2778   28.2653 O   0  0  0  0  0  0  0  0  0  0  0  0
   -8.5813   -5.0144   26.4592 O   0  0  0  0  0  0  0  0  0  0  0  0
  1  2  1  0
 12 13  1  0
 14  5  1  6
 14 15  1  0
 14 21  1  0
 21 22  2  3
 22 23  1  0
 22 29  1  0
 29 30  2  0
 29 31  1  0
 15 16  2  0
 16 17  1  0
 17 18  2  0
 18 19  1  0
 19 20  2  0
 20 15  1  0
 23 24  2  0
 24 25  1  0
 25 26  2  0
 26 28  1  0
 28 27  2  0
 27 23  1  0
  1  3  2  0
  3  9  1  0
  9 10  2  0
 10 12  1  0
 12 11  2  0
 11  1  1  0
  2  4  2  0
  4  5  1  0
  5  6  2  0
  6  7  1  0
  7  8  2  0
  8  2  1  0
M  END
$$$$
