No_3848-complexes_sdf/6BKW-FPZ/2024-09-17-14-21-01/
     RDKit          3D

 25 28  0  0  0  0  0  0  0  0999 V2000
   -7.9040    3.9820   27.1177 C   0  0  0  0  0  0  0  0  0  0  0  0
   -8.2057    2.8231   26.8733 C   0  0  0  0  0  0  0  0  0  0  0  0
   -9.2962    2.4021   26.1155 C   0  0  0  0  0  0  0  0  0  0  0  0
   -6.8682    4.5169   28.0704 C   0  0  0  0  0  0  0  0  0  0  0  0
  -10.0578    3.3688   25.5520 C   0  0  0  0  0  0  0  0  0  0  0  0
   -9.6997    4.7480   25.6981 C   0  0  0  0  0  0  0  0  0  0  0  0
   -8.6783    5.1111   26.5262 C   0  0  0  0  0  0  0  0  0  0  0  0
  -11.1704    3.0677   24.6150 C   0  0  0  0  0  0  0  0  0  0  0  0
  -10.9735    2.1193   23.6765 C   0  0  0  0  0  0  0  0  0  0  0  0
  -10.8140    1.0025   23.8570 C   0  0  0  0  0  0  0  0  0  0  0  0
  -10.5940   -0.0182   22.7402 C   0  0  0  0  0  0  0  0  0  0  0  0
  -10.2505   -1.3279   22.9051 C   0  0  0  0  0  0  0  0  0  0  0  0
  -10.9523    2.6008   22.2500 C   0  0  0  0  0  0  0  0  0  0  0  0
  -11.2058    4.0441   21.9451 C   0  0  0  0  0  0  0  0  0  0  0  0
  -10.5906    0.5165   21.3686 C   0  0  0  0  0  0  0  0  0  0  0  0
  -10.7474    1.7945   21.1719 C   0  0  0  0  0  0  0  0  0  0  0  0
   -7.0272    5.6333   28.6875 N   0  0  0  0  0  0  0  0  0  0  0  0
   -5.7240    3.8363   27.9572 N   0  0  0  0  0  0  0  0  0  0  0  0
  -10.0187   -1.7351   24.1575 C   0  0  0  0  0  0  0  0  0  0  0  0
  -10.4462   -1.0414   25.2755 C   0  0  0  0  0  0  0  0  0  0  0  0
  -10.6627    0.2669   25.1613 C   0  0  0  0  0  0  0  0  0  0  0  0
  -10.3030   -1.5719   26.6538 C   0  0  0  0  0  0  0  0  0  0  0  0
  -10.9179   -1.0014   27.6429 N   0  0  0  0  0  0  0  0  0  0  0  0
  -11.1051    0.2360   27.6934 C   0  0  0  0  0  0  0  0  0  0  0  0
  -11.3029    0.9932   26.4098 C   0  0  0  0  0  0  0  0  0  0  0  0
  1  4  1  0
  5  8  1  0
  8  9  1  0
 13 14  1  0
  4 17  1  0
  4 18  2  0
 21 25  1  0
 25 24  2  0
 24 23  1  0
 23 22  2  0
 22 20  1  0
  9 10  1  0
 11 15  1  0
 15 16  2  0
 16 13  1  0
 13  9  2  0
 10 11  1  0
 11 12  2  0
 12 19  1  0
 19 20  2  0
 20 21  1  0
 21 10  2  0
  1  2  2  0
  2  3  1  0
  3  5  2  0
  5  6  1  0
  6  7  2  0
  7  1  1  0
M  END
$$$$
