No_3298-complexes_sdf/6BKW-FPZ/2024-09-17-14-21-01/
     RDKit          3D

 27 31  0  0  0  0  0  0  0  0999 V2000
   -7.9040    3.9820   27.1177 C   0  0  0  0  0  0  0  0  0  0  0  0
   -8.2057    2.8231   26.8733 C   0  0  0  0  0  0  0  0  0  0  0  0
   -9.2962    2.4021   26.1155 C   0  0  0  0  0  0  0  0  0  0  0  0
   -8.7358    5.0662   26.5917 C   0  0  0  0  0  0  0  0  0  0  0  0
   -9.7618    4.7023   25.7546 C   0  0  0  0  0  0  0  0  0  0  0  0
  -10.0066    3.4105   25.4922 C   0  0  0  0  0  0  0  0  0  0  0  0
   -8.3936    6.4769   26.8843 C   0  0  0  0  0  0  0  0  0  0  0  0
   -8.0660    7.5190   27.0318 N   0  0  0  0  0  0  0  0  0  0  0  0
   -9.5373    0.9624   25.8652 C   0  0  0  0  0  0  0  0  0  0  0  0
   -8.6773    0.1949   25.4962 C   0  0  0  0  0  0  0  0  0  0  0  0
   -8.8758   -1.2092   25.2644 C   0  0  0  0  0  0  0  0  0  0  0  0
  -10.1645   -1.6558   25.4252 C   0  0  0  0  0  0  0  0  0  0  0  0
  -10.8323    0.4208   26.0023 C   0  0  0  0  0  0  0  0  0  0  0  0
  -11.8864    1.4308   26.5317 C   0  0  0  0  0  0  0  0  0  0  0  0
  -11.1476   -0.8632   25.9042 C   0  0  0  0  0  0  0  0  0  0  0  0
  -12.9983    0.9777   27.0740 C   0  0  0  0  0  0  0  0  0  0  0  0
  -13.9957    1.8645   27.5860 C   0  0  0  0  0  0  0  0  0  0  0  0
  -13.7412    3.2340   27.5813 C   0  0  0  0  0  0  0  0  0  0  0  0
  -12.5539    3.7350   27.0638 C   0  0  0  0  0  0  0  0  0  0  0  0
  -11.6436    2.8885   26.5943 C   0  0  0  0  0  0  0  0  0  0  0  0
  -10.8868    3.6021   25.8673 N   0  0  0  0  0  0  0  0  0  0  0  0
  -11.9963    4.3121   24.7812 C   0  0  0  0  0  0  0  0  0  0  0  0
  -12.5319    3.5970   23.8344 C   0  0  0  0  0  0  0  0  0  0  0  0
  -13.5617    4.0035   23.1684 C   0  0  0  0  0  0  0  0  0  0  0  0
  -14.0552    5.3340   23.4098 C   0  0  0  0  0  0  0  0  0  0  0  0
  -13.6771    6.0053   24.5680 C   0  0  0  0  0  0  0  0  0  0  0  0
  -12.7915    5.2897   25.5412 C   0  0  0  0  0  0  0  0  0  0  0  0
  4  7  1  0
  7  8  3  0
  3  9  1  0
 13 14  1  0
  6 21  1  0
 20 21  1  0
 21 22  1  0
  9 10  2  0
 10 11  1  0
 11 12  2  0
 12 15  1  0
 15 13  2  0
 13  9  1  0
 14 16  2  0
 16 17  1  0
 17 18  2  0
 18 19  1  0
 19 20  2  0
 20 14  1  0
  1  2  2  0
  2  3  1  0
  3  6  2  0
  6  5  1  0
  5  4  2  0
  4  1  1  0
 22 23  2  0
 23 24  1  0
 24 25  2  0
 25 26  1  0
 26 27  2  0
 27 22  1  0
M  END
$$$$
