No_3390-complexes_sdf/6BKW-FPZ/2024-09-17-14-21-01/
     RDKit          3D

 21 22  0  0  0  0  0  0  0  0999 V2000
   -7.2496    3.8871   27.4508 C   0  0  0  0  0  0  0  0  0  0  0  0
   -7.6161    2.7143   27.1523 C   0  0  0  0  0  0  0  0  0  0  0  0
   -8.8302    2.4659   26.5056 C   0  0  0  0  0  0  0  0  0  0  0  0
   -8.1584    5.0090   27.3234 C   0  0  0  0  0  0  0  0  0  0  0  0
   -9.3788    4.7965   26.7695 C   0  0  0  0  0  0  0  0  0  0  0  0
   -9.7028    3.5649   26.3276 C   0  0  0  0  0  0  0  0  0  0  0  0
   -6.7182    1.5519   27.3631 C   0  0  0  0  0  0  0  0  0  0  0  0
   -5.4694    1.7365   28.0694 C   0  0  0  0  0  0  0  0  0  0  0  0
   -4.5986    0.6519   28.2611 C   0  0  0  0  0  0  0  0  0  0  0  0
   -5.0102   -0.6262   27.9715 C   0  0  0  0  0  0  0  0  0  0  0  0
   -7.0481    0.2248   27.1396 C   0  0  0  0  0  0  0  0  0  0  0  0
   -6.2697   -0.8020   27.4256 C   0  0  0  0  0  0  0  0  0  0  0  0
   -7.6988    6.3661   27.7798 C   0  0  0  0  0  0  0  0  0  0  0  0
   -3.0637    0.9820   28.9958 Cl  0  0  0  0  0  0  0  0  0  0  0  0
  -10.9884    3.1682   25.7327 C   0  0  2  0  0  0  0  0  0  0  0  0
  -12.0003    2.7108   26.4274 C   0  0  0  0  0  0  0  0  0  0  0  0
  -12.0405    2.6684   27.6646 C   0  0  0  0  0  0  0  0  0  0  0  0
  -13.0806    2.0437   28.5466 C   0  0  0  0  0  0  0  0  0  0  0  0
  -12.9474    1.9708   29.9419 C   0  0  0  0  0  0  0  0  0  0  0  0
  -10.8842    3.0276   24.2976 C   0  0  0  0  0  0  0  0  0  0  0  0
  -10.1768    3.2481   23.5448 C   0  0  0  0  0  0  0  0  0  0  0  0
  2  7  1  0
  4 13  1  0
  9 14  1  0
  6 15  1  0
 15 16  1  1
 16 17  1  0
 17 18  2  3
 18 19  1  0
 15 20  1  0
 20 21  1  0
  7  8  2  0
  8  9  1  0
  9 10  2  0
 10 12  1  0
 12 11  2  0
 11  7  1  0
  1  2  2  0
  2  3  1  0
  3  6  2  0
  6  5  1  0
  5  4  2  0
  4  1  1  0
M  END
$$$$
