No_3407-complexes_sdf/6BKW-FPZ/2024-09-17-14-21-01/
     RDKit          3D

 36 42  0  0  0  0  0  0  0  0999 V2000
   -7.7129    4.2099   27.0854 C   0  0  0  0  0  0  0  0  0  0  0  0
   -8.9133    4.4736   27.0998 C   0  0  0  0  0  0  0  0  0  0  0  0
   -9.8363    3.8127   27.2418 C   0  0  0  0  0  0  0  0  0  0  0  0
   -7.2995    2.8520   27.3808 C   0  0  0  0  0  0  0  0  0  0  0  0
   -8.3404    1.9507   27.4989 C   0  0  0  0  0  0  0  0  0  0  0  0
   -9.6166    2.3791   27.4719 C   0  0  0  0  0  0  0  0  0  0  0  0
   -9.1609    5.8859   26.9307 F   0  0  0  0  0  0  0  0  0  0  0  0
   -8.0302    0.5085   27.7089 C   0  0  0  0  0  0  0  0  0  0  0  0
   -9.0494   -0.4545   27.6949 C   0  0  0  0  0  0  0  0  0  0  0  0
  -10.3919    0.0936   27.7588 C   0  0  0  0  0  0  0  0  0  0  0  0
  -10.6594    1.4170   27.6673 C   0  0  0  0  0  0  0  0  0  0  0  0
   -6.6361    0.0081   27.6478 C   0  0  0  0  0  0  0  0  0  0  0  0
   -6.2595   -1.0805   28.1586 C   0  0  0  0  0  0  0  0  0  0  0  0
   -4.9220   -1.3891   28.3274 C   0  0  0  0  0  0  0  0  0  0  0  0
   -4.4129   -2.4735   29.0160 C   0  0  0  0  0  0  0  0  0  0  0  0
   -3.0436   -2.5675   29.2852 C   0  0  0  0  0  0  0  0  0  0  0  0
   -2.1334   -1.5820   28.7849 C   0  0  0  0  0  0  0  0  0  0  0  0
   -2.6473   -0.4781   28.1019 C   0  0  0  0  0  0  0  0  0  0  0  0
   -4.0012   -0.2851   27.9053 C   0  0  0  0  0  0  0  0  0  0  0  0
   -5.5554    0.9611   27.3479 C   0  0  0  0  0  0  0  0  0  0  0  0
   -4.4345    0.9069   27.4041 C   0  0  0  0  0  0  0  0  0  0  0  0
   -6.1902    2.3691   27.0989 N   0  0  0  0  0  0  0  0  0  0  0  0
   -5.2661   -3.5198   29.4959 C   0  0  0  0  0  0  0  0  0  0  0  0
   -6.0373   -3.3246   30.6117 C   0  0  0  0  0  0  0  0  0  0  0  0
   -7.1187   -4.1298   30.9874 C   0  0  0  0  0  0  0  0  0  0  0  0
   -7.3265   -5.2544   30.2065 C   0  0  0  0  0  0  0  0  0  0  0  0
   -5.5768   -4.5718   28.6899 C   0  0  0  0  0  0  0  0  0  0  0  0
   -4.8438   -4.8273   27.4694 C   0  0  2  0  0  0  0  0  0  0  0  0
   -6.5933   -5.4938   29.0648 C   0  0  0  0  0  0  0  0  0  0  0  0
   -3.4257   -5.6377   27.5764 Cl  0  0  0  0  0  0  0  0  0  0  0  0
   -5.2627   -4.3345   26.2046 C   0  0  0  0  0  0  0  0  0  0  0  0
   -4.3697   -3.9887   25.2384 C   0  0  0  0  0  0  0  0  0  0  0  0
   -4.8043   -3.0838   24.2270 C   0  0  0  0  0  0  0  0  0  0  0  0
   -6.1329   -2.6446   24.2345 C   0  0  0  0  0  0  0  0  0  0  0  0
   -7.0410   -3.0670   25.2507 C   0  0  0  0  0  0  0  0  0  0  0  0
   -6.5746   -3.8180   26.2731 C   0  0  0  0  0  0  0  0  0  0  0  0
  2  7  1  0
  8 12  1  0
  4 22  1  0
 20 22  1  0
 15 23  1  0
 27 28  1  0
 28 30  1  1
 28 31  1  0
 23 24  2  0
 24 25  1  0
 25 26  2  0
 26 29  1  0
 29 27  2  0
 27 23  1  0
  1  2  2  0
  2  3  1  0
  3  6  2  0
  5  4  2  0
  4  1  1  0
 31 32  2  0
 32 33  1  0
 33 34  2  0
 34 35  1  0
 35 36  2  0
 36 31  1  0
 12 13  2  0
 13 14  1  0
 19 21  1  0
 21 20  2  0
 20 12  1  0
  5  6  1  0
  6 11  1  0
 11 10  2  0
 10  9  1  0
  9  8  2  0
  8  5  1  0
 14 15  2  0
 15 16  1  0
 16 17  2  0
 17 18  1  0
 18 19  2  0
 19 14  1  0
M  END
$$$$
