No_38-complexes_sdf/6BKW-FPZ/2024-09-17-14-21-01/
     RDKit          3D

 12 13  0  0  0  0  0  0  0  0999 V2000
   -7.2496    3.8871   27.4508 C   0  0  0  0  0  0  0  0  0  0  0  0
   -8.5096    4.0291   27.2770 C   0  0  0  0  0  0  0  0  0  0  0  0
   -9.2677    5.1714   27.5773 C   0  0  0  0  0  0  0  0  0  0  0  0
   -6.5550    4.9883   28.1029 C   0  0  0  0  0  0  0  0  0  0  0  0
   -8.5395    6.2425   28.0724 C   0  0  0  0  0  0  0  0  0  0  0  0
   -7.1794    6.1173   28.2629 C   0  0  0  0  0  0  0  0  0  0  0  0
   -9.2948    2.8101   26.7696 C   0  0  0  0  0  0  0  0  0  0  0  0
   -9.8443    1.9916   27.2895 C   0  0  0  0  0  0  0  0  0  0  0  0
  -10.5098    0.7904   26.8154 C   0  0  0  0  0  0  0  0  0  0  0  0
   -9.2490    2.6879   25.2925 C   0  0  0  0  0  0  0  0  0  0  0  0
   -9.8048    1.6725   24.6586 C   0  0  0  0  0  0  0  0  0  0  0  0
  -10.4752    0.7040   25.4479 C   0  0  0  0  0  0  0  0  0  0  0  0
  2  7  1  0
  1  2  2  0
  2  3  1  0
  3  5  2  0
  5  6  1  0
  6  4  2  0
  4  1  1  0
  7  8  2  0
  8  9  1  0
  9 12  2  0
 12 11  1  0
 11 10  2  0
 10  7  1  0
M  END
$$$$
