No_3792-complexes_sdf/6BKW-FPZ/2024-09-17-14-21-01/
     RDKit          3D

 25 27  0  0  0  0  0  0  0  0999 V2000
   -7.7129    4.2099   27.0854 C   0  0  0  0  0  0  0  0  0  0  0  0
   -7.7814    5.1722   27.8972 C   0  0  0  0  0  0  0  0  0  0  0  0
   -8.8776    3.8408   26.3416 C   0  0  0  0  0  0  0  0  0  0  0  0
   -9.9844    4.6492   26.4743 C   0  0  0  0  0  0  0  0  0  0  0  0
   -8.8033    6.1375   27.8728 C   0  0  0  0  0  0  0  0  0  0  0  0
   -9.9554    5.8280   27.1737 C   0  0  0  0  0  0  0  0  0  0  0  0
   -8.8752    2.6155   25.5663 C   0  0  0  0  0  0  0  0  0  0  0  0
   -9.6955    2.5129   24.5453 N   0  0  0  0  0  0  0  0  0  0  0  0
   -9.7049    1.4540   23.7076 C   0  0  0  0  0  0  0  0  0  0  0  0
   -8.1156    1.7082   25.8400 O   0  0  0  0  0  0  0  0  0  0  0  0
  -10.2200    1.6598   22.4390 C   0  0  0  0  0  0  0  0  0  0  0  0
  -10.1425    0.6123   21.4562 C   0  0  0  0  0  0  0  0  0  0  0  0
   -9.5301   -0.6266   21.8003 C   0  0  0  0  0  0  0  0  0  0  0  0
   -8.9413   -0.7472   23.0755 C   0  0  0  0  0  0  0  0  0  0  0  0
   -9.0030    0.2507   24.0008 C   0  0  0  0  0  0  0  0  0  0  0  0
   -9.5241   -1.6650   20.7671 C   0  0  0  0  0  0  0  0  0  0  0  0
  -10.1756   -1.5904   19.7084 N   0  0  0  0  0  0  0  0  0  0  0  0
   -9.9016   -2.4669   18.6603 C   0  0  0  0  0  0  0  0  0  0  0  0
   -8.9171   -3.3865   18.8930 C   0  0  0  0  0  0  0  0  0  0  0  0
   -8.5436   -2.7536   20.6435 C   0  0  0  0  0  0  0  0  0  0  0  0
   -8.2762   -4.4238   18.5105 C   0  0  0  0  0  0  0  0  0  0  0  0
   -7.7844   -5.1308   19.2858 F   0  0  0  0  0  0  0  0  0  0  0  0
   -9.1788   -5.1548   17.7510 F   0  0  0  0  0  0  0  0  0  0  0  0
   -7.3750   -3.8938   17.6073 F   0  0  0  0  0  0  0  0  0  0  0  0
   -6.6648    5.5864   28.6281 O   0  0  0  0  0  0  0  0  0  0  0  0
  3  7  1  0
  7  8  1  0
  8  9  1  0
  7 10  2  0
 13 16  1  0
 16 17  2  0
 17 18  1  0
 18 19  2  0
 16 20  1  0
 19 20  1  0
 19 21  1  0
 21 22  1  0
 21 23  1  0
 21 24  1  0
  2 25  1  0
  1  2  2  0
  2  5  1  0
  5  6  2  0
  6  4  1  0
  4  3  2  0
  3  1  1  0
  9 11  2  0
 11 12  1  0
 12 13  2  0
 13 14  1  0
 14 15  2  0
 15  9  1  0
M  END
$$$$
