No_3662-complexes_sdf/6BKW-FPZ/2024-09-17-14-21-01/
     RDKit          3D

 17 18  0  0  0  0  0  0  0  0999 V2000
   -7.2496    3.8871   27.4508 C   0  0  0  0  0  0  0  0  0  0  0  0
   -7.6161    2.7143   27.1523 C   0  0  0  0  0  0  0  0  0  0  0  0
   -8.6212    2.2239   26.4074 C   0  0  0  0  0  0  0  0  0  0  0  0
   -8.2540    4.9237   27.1711 C   0  0  0  0  0  0  0  0  0  0  0  0
   -9.3709    4.6019   26.4511 C   0  0  0  0  0  0  0  0  0  0  0  0
   -9.5922    3.3274   26.0949 C   0  0  0  0  0  0  0  0  0  0  0  0
   -7.9189    6.3259   27.5672 C   0  0  0  0  0  0  0  0  0  0  0  0
   -8.1952    7.3338   26.6096 C   0  0  0  0  0  0  0  0  0  0  0  0
   -8.8996    0.9032   26.0569 C   0  0  0  0  0  0  0  0  0  0  0  0
   -8.9173    0.4821   25.0417 N   0  0  0  0  0  0  0  0  0  0  0  0
   -8.8895    1.2600   23.9600 C   0  0  0  0  0  0  0  0  0  0  0  0
   -9.7573    0.9763   22.9186 C   0  0  0  0  0  0  0  0  0  0  0  0
  -11.0489    1.4677   22.9416 C   0  0  0  0  0  0  0  0  0  0  0  0
  -11.8631    1.1807   21.8169 C   0  0  0  0  0  0  0  0  0  0  0  0
  -11.3564    0.4669   20.7037 C   0  0  0  0  0  0  0  0  0  0  0  0
  -10.0506    0.0237   20.7014 C   0  0  0  0  0  0  0  0  0  0  0  0
   -9.2065    0.2782   21.7896 C   0  0  0  0  0  0  0  0  0  0  0  0
  4  7  1  0
  7  8  1  0
  3  9  1  0
  9 10  2  3
 10 11  1  0
 11 12  1  0
 12 13  2  0
 13 14  1  0
 14 15  2  0
 15 16  1  0
 16 17  2  0
 17 12  1  0
  1  2  2  0
  2  3  1  0
  3  6  2  0
  6  5  1  0
  5  4  2  0
  4  1  1  0
M  END
$$$$
