No_3719-complexes_sdf/6BKW-FPZ/2024-09-17-14-21-01/
     RDKit          3D

 15 16  0  0  0  0  0  0  0  0999 V2000
   -7.7129    4.2099   27.0854 C   0  0  0  0  0  0  0  0  0  0  0  0
   -8.2112    3.0637   26.9225 C   0  0  0  0  0  0  0  0  0  0  0  0
   -8.8911    2.3657   26.0965 C   0  0  0  0  0  0  0  0  0  0  0  0
   -8.4991    5.2195   26.3997 C   0  0  0  0  0  0  0  0  0  0  0  0
   -9.5170    4.7357   25.4962 C   0  0  0  0  0  0  0  0  0  0  0  0
   -9.6818    3.3875   25.3323 C   0  0  0  0  0  0  0  0  0  0  0  0
   -8.3239    6.6497   26.7040 C   0  0  0  0  0  0  0  0  0  0  0  0
   -8.2514    7.0554   28.0114 N   0  0  0  0  0  0  0  0  0  0  0  0
   -8.4796    7.4997   25.8036 O   0  0  0  0  0  0  0  0  0  0  0  0
   -9.1198    1.0202   25.8734 C   0  0  0  0  0  0  0  0  0  0  0  0
   -9.1495    0.4696   24.8321 C   0  0  0  0  0  0  0  0  0  0  0  0
   -9.2639   -0.9597   24.5606 C   0  0  0  0  0  0  0  0  0  0  0  0
   -9.3468   -1.7549   25.6843 C   0  0  0  0  0  0  0  0  0  0  0  0
   -9.1000    0.1113   27.0835 C   0  0  0  0  0  0  0  0  0  0  0  0
   -9.2647   -1.1993   27.0084 C   0  0  0  0  0  0  0  0  0  0  0  0
  4  7  1  0
  7  8  1  0
  7  9  2  0
  3 10  1  0
  1  2  2  0
  2  3  1  0
  3  6  2  0
  6  5  1  0
  5  4  2  0
  4  1  1  0
 10 11  2  0
 11 12  1  0
 12 13  2  0
 13 15  1  0
 15 14  2  0
 14 10  1  0
M  END
$$$$
