No_3085-complexes_sdf/6BKW-FPZ/2024-09-17-14-21-01/
     RDKit          3D

 25 28  0  0  0  0  0  0  0  0999 V2000
   -7.9040    3.9820   27.1177 C   0  0  0  0  0  0  0  0  0  0  0  0
   -7.8663    4.8694   27.9238 C   0  0  0  0  0  0  0  0  0  0  0  0
   -9.0501    3.8017   26.2617 C   0  0  0  0  0  0  0  0  0  0  0  0
  -10.0189    4.7608   26.3707 C   0  0  0  0  0  0  0  0  0  0  0  0
   -8.6973    5.9722   27.8968 C   0  0  0  0  0  0  0  0  0  0  0  0
   -9.8216    5.8946   27.1241 C   0  0  0  0  0  0  0  0  0  0  0  0
   -9.1437    2.6293   25.4175 C   0  0  0  0  0  0  0  0  0  0  0  0
   -9.9828    2.7153   24.2925 C   0  0  0  0  0  0  0  0  0  0  0  0
  -10.1268    1.6091   23.5189 C   0  0  0  0  0  0  0  0  0  0  0  0
   -9.3057    0.4350   23.7675 C   0  0  0  0  0  0  0  0  0  0  0  0
   -8.4257    1.4363   25.5742 C   0  0  0  0  0  0  0  0  0  0  0  0
   -9.4258   -0.7069   22.8809 C   0  0  0  0  0  0  0  0  0  0  0  0
   -8.4417    0.4207   24.7717 C   0  0  0  0  0  0  0  0  0  0  0  0
  -10.4009   -1.6333   23.1811 C   0  0  0  0  0  0  0  0  0  0  0  0
  -11.0012   -1.9018   23.9704 C   0  0  0  0  0  0  0  0  0  0  0  0
  -10.8894   -1.1753   25.2609 C   0  0  1  0  0  0  0  0  0  0  0  0
  -11.9335   -1.5391   26.3772 C   0  0  0  0  0  0  0  0  0  0  0  0
  -11.7180   -0.8669   27.5958 C   0  0  0  0  0  0  0  0  0  0  0  0
  -10.6604    0.0889   27.8096 C   0  0  0  0  0  0  0  0  0  0  0  0
   -9.7299    0.2471   26.8525 C   0  0  0  0  0  0  0  0  0  0  0  0
   -9.8532   -0.5022   25.6726 C   0  0  1  0  0  0  0  0  0  0  0  0
   -8.9653   -1.6802   26.0996 C   0  0  0  0  0  0  0  0  0  0  0  0
   -7.1036   -0.0114   24.4664 C   0  0  0  0  0  0  0  0  0  0  0  0
   -8.7118    1.1785   27.2604 C   0  0  0  0  0  0  0  0  0  0  0  0
  -10.3868    0.5879   25.4690 O   0  0  0  0  0  0  0  0  0  0  0  0
  3  7  1  0
 10 12  1  0
 12 14  1  0
 14 15  2  3
 15 16  1  0
 17 18  1  0
 19 20  1  0
 16 21  1  0
 20 21  1  0
 21 22  1  6
 13 23  1  0
 11 24  1  0
 20 24  1  0
 21 25  1  0
 16 17  1  1
 18 19  1  0
  7  8  2  0
  8  9  1  0
  9 10  2  0
 10 13  1  0
 13 11  2  0
 11  7  1  0
  1  2  2  0
  2  5  1  0
  5  6  2  0
  6  4  1  0
  4  3  2  0
  3  1  1  0
M  END
$$$$
