No_3007-complexes_sdf/6BKW-FPZ/2024-09-17-14-21-01/
     RDKit          3D

 22 25  0  0  0  0  0  0  0  0999 V2000
   -7.9040    3.9820   27.1177 C   0  0  0  0  0  0  0  0  0  0  0  0
   -7.8663    4.8694   27.9238 C   0  0  0  0  0  0  0  0  0  0  0  0
   -9.0501    3.8017   26.2617 C   0  0  0  0  0  0  0  0  0  0  0  0
  -10.0189    4.7608   26.3707 C   0  0  0  0  0  0  0  0  0  0  0  0
   -8.6973    5.9722   27.8968 C   0  0  0  0  0  0  0  0  0  0  0  0
   -9.8216    5.8946   27.1241 C   0  0  0  0  0  0  0  0  0  0  0  0
   -9.1437    2.6293   25.4175 C   0  0  0  0  0  0  0  0  0  0  0  0
   -8.6170    1.4258   25.8177 C   0  0  0  0  0  0  0  0  0  0  0  0
   -8.5364    0.3667   24.9514 C   0  0  0  0  0  0  0  0  0  0  0  0
   -9.1729    0.5165   23.6906 C   0  0  0  0  0  0  0  0  0  0  0  0
   -9.7511    1.5985   23.3891 C   0  0  0  0  0  0  0  0  0  0  0  0
   -9.6973    2.8699   24.1417 C   0  0  0  0  0  0  0  0  0  0  0  0
  -10.3601    1.7987   21.9938 C   0  0  0  0  0  0  0  0  0  0  0  0
  -10.6786    0.7793   21.2554 C   0  0  0  0  0  0  0  0  0  0  0  0
   -9.9895   -0.4842   21.6257 C   0  0  0  0  0  0  0  0  0  0  0  0
   -9.2830   -0.6003   22.8070 C   0  0  0  0  0  0  0  0  0  0  0  0
  -10.1421   -1.6235   20.6627 C   0  0  0  0  0  0  0  0  0  0  0  0
  -11.1588   -1.7274   19.8825 C   0  0  0  0  0  0  0  0  0  0  0  0
   -9.0595   -2.5653   20.6040 C   0  0  0  0  0  0  0  0  0  0  0  0
   -8.9425   -3.3966   19.5882 C   0  0  0  0  0  0  0  0  0  0  0  0
  -11.1394   -2.6982   18.8124 C   0  0  0  0  0  0  0  0  0  0  0  0
  -10.0420   -3.5279   18.7239 C   0  0  0  0  0  0  0  0  0  0  0  0
  3  7  1  0
 15 17  1  0
 11 13  1  0
 13 14  2  0
 14 15  1  0
 15 16  2  0
 16 10  1  0
 17 18  2  0
 18 21  1  0
 21 22  2  0
 22 20  1  0
 20 19  2  0
 19 17  1  0
  1  2  2  0
  2  5  1  0
  5  6  2  0
  6  4  1  0
  4  3  2  0
  3  1  1  0
  7  8  2  0
  8  9  1  0
  9 10  2  0
 10 11  1  0
 11 12  2  0
 12  7  1  0
M  END
$$$$
