No_3073-complexes_sdf/6BKW-FPZ/2024-09-17-14-21-01/
     RDKit          3D

 40 43  0  0  0  0  0  0  0  0999 V2000
   -7.9040    3.9820   27.1177 C   0  0  0  0  0  0  0  0  0  0  0  0
   -8.2057    2.8231   26.8733 C   0  0  0  0  0  0  0  0  0  0  0  0
   -8.7695    5.0740   26.7916 C   0  0  0  0  0  0  0  0  0  0  0  0
   -9.9618    4.7598   26.1630 C   0  0  0  0  0  0  0  0  0  0  0  0
   -9.4200    2.4524   26.2849 C   0  0  0  0  0  0  0  0  0  0  0  0
  -10.2590    3.4815   25.9250 C   0  0  0  0  0  0  0  0  0  0  0  0
   -8.3840    6.4693   27.0829 C   0  0  0  0  0  0  0  0  0  0  0  0
   -8.3637    6.7809   28.2310 F   0  0  0  0  0  0  0  0  0  0  0  0
   -7.1634    6.7737   26.4746 F   0  0  0  0  0  0  0  0  0  0  0  0
   -9.2124    7.3719   26.3463 F   0  0  0  0  0  0  0  0  0  0  0  0
   -7.2871    1.6777   27.3241 C   0  0  1  0  0  0  0  0  0  0  0  0
   -7.6592    0.3817   27.2597 N   0  0  0  0  0  0  0  0  0  0  0  0
   -7.0302   -0.4422   26.7146 C   0  0  1  0  0  0  0  0  0  0  0  0
   -5.7624   -0.4613   26.9057 C   0  0  0  0  0  0  0  0  0  0  0  0
   -5.0732    0.7843   27.2511 C   0  0  0  0  0  0  0  0  0  0  0  0
   -5.8739    1.9096   27.4397 C   0  0  0  0  0  0  0  0  0  0  0  0
   -8.9810    0.1459   27.9356 C   0  0  0  0  0  0  0  0  0  0  0  0
   -3.6061    0.9925   27.4641 C   0  0  0  0  0  0  0  0  0  0  0  0
   -3.1572    1.4173   28.4392 O   0  0  0  0  0  0  0  0  0  0  0  0
   -2.8306    0.7480   26.3865 O   0  0  0  0  0  0  0  0  0  0  0  0
   -9.3216   -1.2277   28.1557 C   0  0  1  0  0  0  0  0  0  0  0  0
   -8.4209   -2.1299   28.0721 C   0  0  0  0  0  0  0  0  0  0  0  0
   -7.3839   -1.8318   27.6898 C   0  0  0  0  0  0  0  0  0  0  0  0
  -11.5087    3.1832   25.2100 C   0  0  0  0  0  0  0  0  0  0  0  0
  -12.5677    2.8938   25.7973 N   0  0  0  0  0  0  0  0  0  0  0  0
  -13.7467    2.6704   25.4467 C   0  0  0  0  0  0  0  0  0  0  0  0
  -11.5336    3.2797   23.9448 O   0  0  0  0  0  0  0  0  0  0  0  0
  -14.6138    2.3243   26.2239 C   0  0  0  0  0  0  0  0  0  0  0  0
  -15.9466    1.9590   26.0435 C   0  0  0  0  0  0  0  0  0  0  0  0
  -16.3541    2.0403   24.6664 C   0  0  0  0  0  0  0  0  0  0  0  0
  -15.4617    2.4683   23.7031 C   0  0  0  0  0  0  0  0  0  0  0  0
  -14.1611    2.8307   24.0497 C   0  0  0  0  0  0  0  0  0  0  0  0
  -17.5934    1.7665   24.3000 F   0  0  0  0  0  0  0  0  0  0  0  0
  -10.5679   -1.4345   28.8960 C   0  0  0  0  0  0  0  0  0  0  0  0
  -11.5849   -0.5620   28.7645 N   0  0  0  0  0  0  0  0  0  0  0  0
  -12.7322   -0.5680   29.4710 C   0  0  0  0  0  0  0  0  0  0  0  0
  -13.5755    0.6193   29.3441 C   0  0  0  0  0  0  0  0  0  0  0  0
  -14.6816    0.7948   30.0646 C   0  0  0  0  0  0  0  0  0  0  0  0
  -15.1717   -0.3081   30.7907 C   0  0  0  0  0  0  0  0  0  0  0  0
  -13.2207   -1.5986   30.2012 C   0  0  0  0  0  0  0  0  0  0  0  0
  3  7  1  0
  7  8  1  0
  7  9  1  0
  7 10  1  0
 11  2  1  6
 11 12  1  0
 12 13  1  0
 13 14  1  1
 11 16  1  0
 15 16  1  0
 12 17  1  0
 15 18  1  0
 18 19  2  0
 18 20  1  0
 21 22  1  0
 13 23  1  0
  6 24  1  0
 24 25  1  0
 25 26  1  0
 24 27  2  0
 30 33  1  0
 21 34  1  1
 34 35  1  0
 35 36  1  0
 36 37  2  3
 37 38  1  0
 38 39  2  0
 36 40  1  0
 23 22  1  0
 21 17  1  0
 15 14  1  0
 26 28  2  0
 28 29  1  0
 29 30  2  0
 30 31  1  0
 31 32  2  0
 32 26  1  0
  1  2  2  0
  2  5  1  0
  5  6  2  0
  6  4  1  0
  4  3  2  0
  3  1  1  0
M  END
$$$$
