No_3476-complexes_sdf/6BKW-FPZ/2024-09-17-14-21-01/
     RDKit          3D

 27 30  0  0  0  0  0  0  0  0999 V2000
   -7.9040    3.9820   27.1177 C   0  0  0  0  0  0  0  0  0  0  0  0
   -8.2057    2.8231   26.8733 C   0  0  0  0  0  0  0  0  0  0  0  0
   -9.2962    2.4021   26.1155 C   0  0  0  0  0  0  0  0  0  0  0  0
   -6.8682    4.5169   28.0704 C   0  0  0  0  0  0  0  0  0  0  0  0
  -10.0578    3.3688   25.5520 C   0  0  0  0  0  0  0  0  0  0  0  0
   -9.6997    4.7480   25.6981 C   0  0  0  0  0  0  0  0  0  0  0  0
   -8.6783    5.1111   26.5262 C   0  0  0  0  0  0  0  0  0  0  0  0
  -11.1704    3.0677   24.6150 C   0  0  0  0  0  0  0  0  0  0  0  0
  -11.2492    3.6669   23.4645 C   0  0  0  0  0  0  0  0  0  0  0  0
  -12.3144    3.4338   22.5189 C   0  0  0  0  0  0  0  0  0  0  0  0
  -13.2668    2.4927   22.8705 C   0  0  0  0  0  0  0  0  0  0  0  0
  -12.1550    2.1651   24.8978 C   0  0  0  0  0  0  0  0  0  0  0  0
  -13.1795    1.9114   24.0857 C   0  0  0  0  0  0  0  0  0  0  0  0
   -7.0289    5.6440   28.6763 N   0  0  0  0  0  0  0  0  0  0  0  0
   -5.6706    3.9825   27.8125 N   0  0  0  0  0  0  0  0  0  0  0  0
  -14.3428    2.2710   21.8861 C   0  0  0  0  0  0  0  0  0  0  0  0
  -14.4422    2.7579   20.8103 C   0  0  0  0  0  0  0  0  0  0  0  0
  -13.3708    3.8197   20.3907 C   0  0  0  0  0  0  0  0  0  0  0  0
  -12.3340    4.1480   21.2474 C   0  0  0  0  0  0  0  0  0  0  0  0
  -14.2053    0.9134   24.5130 C   0  0  0  0  0  0  0  0  0  0  0  0
  -13.8368   -0.3301   24.5476 C   0  0  0  0  0  0  0  0  0  0  0  0
  -12.5080   -0.7646   24.4226 C   0  0  0  0  0  0  0  0  0  0  0  0
  -12.1834   -2.2092   24.4320 C   0  0  0  0  0  0  0  0  0  0  0  0
  -10.8576   -2.5176   24.3358 C   0  0  0  0  0  0  0  0  0  0  0  0
   -9.8269   -1.5984   24.1970 C   0  0  0  0  0  0  0  0  0  0  0  0
  -10.1528   -0.2417   24.0782 C   0  0  0  0  0  0  0  0  0  0  0  0
  -11.4333    0.1453   24.2550 C   0  0  0  0  0  0  0  0  0  0  0  0
  1  4  1  0
  5  8  1  0
  4 14  1  0
  4 15  2  0
 13 20  1  0
 20 21  2  3
 21 22  1  0
 11 16  2  0
 16 17  1  0
 17 18  2  0
 18 19  1  0
 19 10  2  0
 22 23  2  0
 23 24  1  0
 24 25  2  0
 25 26  1  0
 26 27  2  0
 27 22  1  0
  8  9  2  0
  9 10  1  0
 10 11  1  0
 11 13  1  0
 13 12  2  0
 12  8  1  0
  1  2  2  0
  2  3  1  0
  3  5  2  0
  5  6  1  0
  6  7  2  0
  7  1  1  0
M  END
$$$$
