No_3711-complexes_sdf/6BKW-FPZ/2024-09-17-14-21-01/
     RDKit          3D

 18 19  0  0  0  0  0  0  0  0999 V2000
   -7.9040    3.9820   27.1177 C   0  0  0  0  0  0  0  0  0  0  0  0
   -8.2057    2.8231   26.8733 C   0  0  0  0  0  0  0  0  0  0  0  0
   -7.4766    1.7477   27.4593 C   0  0  0  0  0  0  0  0  0  0  0  0
   -6.7221    4.3631   27.8544 C   0  0  0  0  0  0  0  0  0  0  0  0
   -7.8124    0.3771   27.2172 C   0  0  0  0  0  0  0  0  0  0  0  0
   -5.8392    3.2900   28.1527 C   0  0  0  0  0  0  0  0  0  0  0  0
   -6.2223    1.9928   27.9988 C   0  0  0  0  0  0  0  0  0  0  0  0
   -6.9953   -0.5880   27.2918 C   0  0  0  0  0  0  0  0  0  0  0  0
   -5.6780   -0.2978   27.8558 C   0  0  0  0  0  0  0  0  0  0  0  0
   -5.2864    0.9650   28.2071 C   0  0  0  0  0  0  0  0  0  0  0  0
   -8.7540    5.1718   26.7063 C   0  0  0  0  0  0  0  0  0  0  0  0
   -9.6334    5.0327   25.5829 C   0  0  0  0  0  0  0  0  0  0  0  0
   -8.5847    6.4862   27.2417 C   0  0  0  0  0  0  0  0  0  0  0  0
  -10.4567    3.9727   25.4162 C   0  0  0  0  0  0  0  0  0  0  0  0
  -10.9529    3.6381   24.1210 C   0  0  0  0  0  0  0  0  0  0  0  0
  -11.7145    2.5252   23.8698 C   0  0  0  0  0  0  0  0  0  0  0  0
  -12.0383    1.7302   24.9483 C   0  0  0  0  0  0  0  0  0  0  0  0
  -11.5887    1.9733   26.2020 C   0  0  0  0  0  0  0  0  0  0  0  0
  1 11  1  0
 11 12  2  3
 11 13  1  0
 12 14  1  0
 14 15  2  3
 15 16  1  0
 16 17  2  3
 17 18  1  0
  3  5  2  0
  5  8  1  0
  8  9  2  0
  9 10  1  0
 10  7  2  0
  1  2  2  0
  2  3  1  0
  3  7  1  0
  7  6  1  0
  6  4  2  0
  4  1  1  0
M  END
$$$$
