No_3744-complexes_sdf/6BKW-FPZ/2024-09-17-14-21-01/
     RDKit          3D

 18 19  0  0  0  0  0  0  0  0999 V2000
   -7.9040    3.9820   27.1177 C   0  0  0  0  0  0  0  0  0  0  0  0
   -9.0711    4.3164   27.0630 C   0  0  0  0  0  0  0  0  0  0  0  0
   -9.5294    5.4517   27.7215 C   0  0  0  0  0  0  0  0  0  0  0  0
   -7.4336    2.7132   26.5681 C   0  0  0  0  0  0  0  0  0  0  0  0
   -8.3353    1.8569   26.0442 C   0  0  0  0  0  0  0  0  0  0  0  0
   -9.6477    2.2853   25.9146 C   0  0  0  0  0  0  0  0  0  0  0  0
  -10.0346    3.4497   26.4483 C   0  0  2  0  0  0  0  0  0  0  0  0
   -7.8750    0.5509   25.5918 C   0  0  0  0  0  0  0  0  0  0  0  0
   -8.4860   -0.3441   26.0976 F   0  0  0  0  0  0  0  0  0  0  0  0
   -6.6048    0.3791   26.0233 F   0  0  0  0  0  0  0  0  0  0  0  0
   -7.8754    0.4952   24.2949 F   0  0  0  0  0  0  0  0  0  0  0  0
   -6.8493    4.7340   27.9658 C   0  0  0  0  0  0  0  0  0  0  0  0
   -7.3046    5.9958   28.4897 C   0  0  0  0  0  0  0  0  0  0  0  0
   -8.6499    6.3506   28.3384 C   0  0  0  0  0  0  0  0  0  0  0  0
  -11.4247    3.8628   26.1752 C   0  0  0  0  0  0  0  0  0  0  0  0
  -12.3067    2.8322   26.3792 C   0  0  0  0  0  0  0  0  0  0  0  0
  -12.4782    2.0438   27.1201 C   0  0  0  0  0  0  0  0  0  0  0  0
  -13.4384    0.9504   27.2083 C   0  0  0  0  0  0  0  0  0  0  0  0
  1  4  1  0
  4  5  1  0
  5  6  1  0
  2  7  1  0
  6  7  1  0
  5  8  1  0
  8  9  1  0
  8 10  1  0
  8 11  1  0
  7 15  1  6
 15 16  1  0
 16 17  2  3
 17 18  1  0
  1  2  1  0
  2  3  2  0
  3 14  1  0
 14 13  2  0
 13 12  1  0
 12  1  2  0
M  END
$$$$
