No_350-complexes_sdf/6BKW-FPZ/2024-09-17-14-21-01/
     RDKit          3D

 40 43  0  0  0  0  0  0  0  0999 V2000
   -7.9040    3.9820   27.1177 C   0  0  0  0  0  0  0  0  0  0  0  0
   -9.0711    4.3164   27.0630 C   0  0  0  0  0  0  0  0  0  0  0  0
  -10.0395    3.8218   27.1938 C   0  0  0  0  0  0  0  0  0  0  0  0
   -7.6424    2.5858   27.3610 C   0  0  0  0  0  0  0  0  0  0  0  0
   -8.7646    1.7754   27.4263 C   0  0  0  0  0  0  0  0  0  0  0  0
   -9.9966    2.3406   27.3957 C   0  0  0  0  0  0  0  0  0  0  0  0
  -11.2016    1.4680   27.6051 C   0  0  0  0  0  0  0  0  0  0  0  0
  -11.9601    1.0238   26.6350 C   0  0  2  0  0  0  0  0  0  0  0  0
  -11.8934    1.0981   25.5485 C   0  0  0  0  0  0  0  0  0  0  0  0
  -12.7796    0.4875   24.5324 C   0  0  0  0  0  0  0  0  0  0  0  0
   -6.3495    2.1090   27.3667 N   0  0  0  0  0  0  0  0  0  0  0  0
   -5.9834    0.8243   27.3567 C   0  0  0  0  0  0  0  0  0  0  0  0
   -6.7661   -0.1517   27.1103 C   0  0  0  0  0  0  0  0  0  0  0  0
   -8.5466    0.3278   27.4021 C   0  0  0  0  0  0  0  0  0  0  0  0
  -12.5957    0.6537   23.1437 C   0  0  0  0  0  0  0  0  0  0  0  0
  -11.4465    1.3952   22.7093 C   0  0  0  0  0  0  0  0  0  0  0  0
  -10.5276    1.9406   23.5816 C   0  0  0  0  0  0  0  0  0  0  0  0
  -10.7295    1.7727   24.9777 C   0  0  0  0  0  0  0  0  0  0  0  0
  -13.3969    1.0051   27.1238 C   0  0  0  0  0  0  0  0  0  0  0  0
   -4.6818    0.5294   27.5583 N   0  0  0  0  0  0  0  0  0  0  0  0
   -3.8891   -0.2504   26.8822 C   0  0  0  0  0  0  0  0  0  0  0  0
   -9.2067    6.0038   26.8689 C   0  0  0  0  0  0  0  0  0  0  0  0
   -7.9834    6.2422   27.0799 F   0  0  0  0  0  0  0  0  0  0  0  0
   -9.9930    6.4982   27.7606 F   0  0  0  0  0  0  0  0  0  0  0  0
   -9.5105    6.3500   25.6470 F   0  0  0  0  0  0  0  0  0  0  0  0
   -4.0043    1.0847   28.8056 C   0  0  0  0  0  0  0  0  0  0  0  0
  -13.9949    1.9867   27.7061 C   0  0  0  0  0  0  0  0  0  0  0  0
  -14.8404    2.3593   28.1878 C   0  0  0  0  0  0  0  0  0  0  0  0
  -15.8858    1.4635   28.6416 C   0  0  0  0  0  0  0  0  0  0  0  0
  -15.5526    0.1606   28.1296 C   0  0  0  0  0  0  0  0  0  0  0  0
  -14.2802   -0.1591   27.4966 C   0  0  0  0  0  0  0  0  0  0  0  0
  -16.4416   -0.9974   28.4196 C   0  0  0  0  0  0  0  0  0  0  0  0
  -17.0708   -1.3933   27.5513 F   0  0  0  0  0  0  0  0  0  0  0  0
  -17.2963   -0.5939   29.4592 F   0  0  0  0  0  0  0  0  0  0  0  0
  -15.7252   -2.0090   28.9671 F   0  0  0  0  0  0  0  0  0  0  0  0
  -11.1769    1.0272   28.9120 O   0  0  0  0  0  0  0  0  0  0  0  0
   -4.1465   -0.9683   26.1164 C   0  0  0  0  0  0  0  0  0  0  0  0
   -2.4761    0.1640   27.0511 C   0  0  0  0  0  0  0  0  0  0  0  0
   -1.5228   -0.4175   26.4477 N   0  0  0  0  0  0  0  0  0  0  0  0
   -3.1545   -1.7904   25.3304 C   0  0  0  0  0  0  0  0  0  0  0  0
  6  7  1  0
  8  7  1  1
  8 19  1  0
 12 20  1  0
 20 21  1  0
  2 22  1  0
 22 23  1  0
 22 24  1  0
 22 25  1  0
 20 26  1  0
 30 32  1  0
 32 33  1  0
 32 34  1  0
 32 35  1  0
  7 36  2  0
 21 37  2  3
 21 38  1  0
 38 39  1  0
 37 40  1  0
  8  9  1  0
  5 14  2  0
 14 13  1  0
 13 12  2  0
 12 11  1  0
 11  4  2  0
  1  2  2  0
  2  3  1  0
  3  6  2  0
  6  5  1  0
  5  4  1  0
  4  1  1  0
  9 10  2  0
 10 15  1  0
 15 16  2  0
 16 17  1  0
 17 18  2  0
 18  9  1  0
 19 27  2  0
 27 28  1  0
 28 29  2  0
 29 30  1  0
 30 31  2  0
 31 19  1  0
M  END
$$$$
