No_3827-complexes_sdf/6BKW-FPZ/2024-09-17-14-21-01/
     RDKit          3D

 40 45  0  0  0  0  0  0  0  0999 V2000
   -7.9040    3.9820   27.1177 C   0  0  0  0  0  0  0  0  0  0  0  0
   -9.0711    4.3164   27.0630 C   0  0  0  0  0  0  0  0  0  0  0  0
   -9.5182    5.5541   27.5777 C   0  0  0  0  0  0  0  0  0  0  0  0
   -6.9424    4.7983   27.8424 C   0  0  0  0  0  0  0  0  0  0  0  0
   -7.3526    5.9739   28.3909 C   0  0  0  0  0  0  0  0  0  0  0  0
   -8.6479    6.3742   28.2169 C   0  0  0  0  0  0  0  0  0  0  0  0
  -10.0793    3.4689   26.3368 C   0  0  0  0  0  0  0  0  0  0  0  0
   -9.6567    2.5965   25.4484 C   0  0  0  0  0  0  0  0  0  0  0  0
  -10.5006    1.9727   24.5070 C   0  0  0  0  0  0  0  0  0  0  0  0
  -11.8509    2.3247   24.5523 C   0  0  0  0  0  0  0  0  0  0  0  0
  -12.2919    3.2919   25.4277 C   0  0  0  0  0  0  0  0  0  0  0  0
  -11.4155    3.9824   26.2753 C   0  0  0  0  0  0  0  0  0  0  0  0
  -10.0240    0.9236   23.6172 C   0  0  0  0  0  0  0  0  0  0  0  0
   -9.0803    0.0942   23.9275 C   0  0  0  0  0  0  0  0  0  0  0  0
   -8.6321   -0.0188   25.1705 C   0  0  0  0  0  0  0  0  0  0  0  0
   -7.6705   -0.9741   25.5717 C   0  0  0  0  0  0  0  0  0  0  0  0
   -7.1528   -0.9455   26.9279 C   0  0  0  0  0  0  0  0  0  0  0  0
   -7.5873    0.1698   27.7279 C   0  0  0  0  0  0  0  0  0  0  0  0
   -8.4933    1.0721   27.3667 C   0  0  0  0  0  0  0  0  0  0  0  0
   -8.9168    1.0478   26.1272 C   0  0  0  0  0  0  0  0  0  0  0  0
  -10.6363    0.9029   22.4321 F   0  0  0  0  0  0  0  0  0  0  0  0
   -8.6380   -0.9201   22.9012 C   0  0  0  0  0  0  0  0  0  0  0  0
   -8.9760   -2.1404   22.9892 N   0  0  0  0  0  0  0  0  0  0  0  0
   -8.7359   -3.0454   22.2376 C   0  0  0  0  0  0  0  0  0  0  0  0
   -7.9260   -2.7796   21.2131 C   0  0  0  0  0  0  0  0  0  0  0  0
   -7.4196   -1.3835   21.0166 C   0  0  0  0  0  0  0  0  0  0  0  0
   -7.7632   -0.4374   21.9288 C   0  0  0  0  0  0  0  0  0  0  0  0
   -6.2587   -1.9244   27.4097 C   0  0  0  0  0  0  0  0  0  0  0  0
   -5.9883   -2.7949   26.9656 O   0  0  0  0  0  0  0  0  0  0  0  0
   -5.4904   -1.4480   28.4756 O   0  0  0  0  0  0  0  0  0  0  0  0
   -4.8350   -2.2526   29.2747 C   0  0  0  0  0  0  0  0  0  0  0  0
   -4.4160   -1.6101   30.3621 C   0  0  0  0  0  0  0  0  0  0  0  0
   -4.0945   -0.1383   30.3873 C   0  0  0  0  0  0  0  0  0  0  0  0
   -3.5872    0.4980   31.5436 C   0  0  0  0  0  0  0  0  0  0  0  0
   -3.2213   -0.3139   32.6859 C   0  0  0  0  0  0  0  0  0  0  0  0
   -3.4341   -1.6409   32.6880 C   0  0  0  0  0  0  0  0  0  0  0  0
   -4.0080   -2.2474   31.5905 C   0  0  0  0  0  0  0  0  0  0  0  0
   -2.5751    0.3369   33.7122 O   0  0  0  0  0  0  0  0  0  0  0  0
   -9.2017   -4.6362   22.4433 Cl  0  0  0  0  0  0  0  0  0  0  0  0
  -13.6901    3.7882   25.3417 C   0  0  0  0  0  0  0  0  0  0  0  0
  2  7  1  0
 13 21  1  0
 14 22  1  0
 17 28  1  0
 28 29  2  0
 28 30  1  0
 30 31  1  0
 35 38  1  0
 24 39  1  0
 11 40  1  0
 31 32  1  0
  9 13  1  0
 13 14  2  0
 14 15  1  0
 20  8  1  0
 15 16  2  0
 16 17  1  0
 17 18  2  0
 18 19  1  0
 19 20  2  0
 20 15  1  0
 32 33  2  0
 33 34  1  0
 34 35  2  0
 35 36  1  0
 36 37  2  0
 37 32  1  0
  1  2  2  0
  2  3  1  0
  3  6  2  0
  6  5  1  0
  5  4  2  0
  4  1  1  0
 22 23  2  0
 23 24  1  0
 24 25  2  0
 25 26  1  0
 26 27  2  0
 27 22  1  0
  7  8  2  0
  8  9  1  0
  9 10  2  0
 10 11  1  0
 11 12  2  0
 12  7  1  0
M  END
$$$$
