No_3002-complexes_sdf/6BKW-FPZ/2024-09-17-14-21-01/
     RDKit          3D

 38 41  0  0  0  0  0  0  0  0999 V2000
   -7.7129    4.2099   27.0854 C   0  0  0  0  0  0  0  0  0  0  0  0
   -7.7814    5.1722   27.8972 C   0  0  0  0  0  0  0  0  0  0  0  0
   -8.8998    3.8713   26.3707 C   0  0  0  0  0  0  0  0  0  0  0  0
   -8.9563    2.6796   25.5490 C   0  0  0  0  0  0  0  0  0  0  0  0
   -8.8131    6.1334   27.9344 C   0  0  0  0  0  0  0  0  0  0  0  0
   -9.9804    5.8121   27.1929 C   0  0  0  0  0  0  0  0  0  0  0  0
   -9.9861    4.6836   26.4532 C   0  0  0  0  0  0  0  0  0  0  0  0
   -9.8352    2.5435   24.5126 C   0  0  0  0  0  0  0  0  0  0  0  0
  -10.8691    3.5897   24.4503 C   0  0  0  0  0  0  0  0  0  0  0  0
  -10.9874    4.5302   25.4116 C   0  0  0  0  0  0  0  0  0  0  0  0
  -11.9405    3.3727   23.4517 C   0  0  2  0  0  0  0  0  0  0  0  0
  -11.6783    3.7917   22.2550 C   0  0  0  0  0  0  0  0  0  0  0  0
  -10.4801    4.3285   21.9129 C   0  0  0  0  0  0  0  0  0  0  0  0
  -12.7389    3.6696   21.1988 C   0  0  0  0  0  0  0  0  0  0  0  0
  -13.2032    2.9018   23.8870 C   0  0  0  0  0  0  0  0  0  0  0  0
  -13.4543    1.9806   24.6061 C   0  0  0  0  0  0  0  0  0  0  0  0
  -12.6651    1.2114   25.1143 C   0  0  0  0  0  0  0  0  0  0  0  0
  -13.0084    0.0969   26.0536 C   0  0  0  0  0  0  0  0  0  0  0  0
  -12.0393   -0.6985   26.6780 C   0  0  0  0  0  0  0  0  0  0  0  0
  -10.6889   -0.4316   26.4801 C   0  0  0  0  0  0  0  0  0  0  0  0
   -9.7640   -1.0634   27.3672 C   0  0  0  0  0  0  0  0  0  0  0  0
   -8.3955   -0.6794   27.3207 C   0  0  0  0  0  0  0  0  0  0  0  0
   -7.9074   -0.1747   26.2463 C   0  0  0  0  0  0  0  0  0  0  0  0
   -7.8149   -0.6053   25.3426 C   0  0  0  0  0  0  0  0  0  0  0  0
   -8.3948   -1.1720   24.6064 C   0  0  0  0  0  0  0  0  0  0  0  0
   -7.9648   -1.4092   23.2250 C   0  0  0  0  0  0  0  0  0  0  0  0
   -6.7102   -0.8422   23.2370 C   0  0  0  0  0  0  0  0  0  0  0  0
   -6.4733   -0.2752   24.4361 C   0  0  0  0  0  0  0  0  0  0  0  0
   -8.6207   -2.0290   22.1912 C   0  0  1  0  0  0  0  0  0  0  0  0
   -9.5339   -1.3620   21.4403 C   0  0  0  0  0  0  0  0  0  0  0  0
  -10.0816   -0.1850   21.6864 C   0  0  0  0  0  0  0  0  0  0  0  0
  -11.0453    0.4614   20.7875 C   0  0  0  0  0  0  0  0  0  0  0  0
  -11.4612   -0.1536   19.7238 C   0  0  0  0  0  0  0  0  0  0  0  0
  -10.9419   -1.4292   19.3709 C   0  0  0  0  0  0  0  0  0  0  0  0
   -9.9808   -1.9905   20.1643 C   0  0  0  0  0  0  0  0  0  0  0  0
   -7.8026   -3.0330   21.4799 C   0  0  0  0  0  0  0  0  0  0  0  0
   -8.2734   -4.2896   21.6055 C   0  0  0  0  0  0  0  0  0  0  0  0
   -7.5435   -5.3523   21.0000 C   0  0  0  0  0  0  0  0  0  0  0  0
  9 11  1  0
 11 12  1  0
 12 13  1  0
 12 14  1  0
 11 15  1  1
 15 16  1  0
 16 17  2  3
 17 18  1  0
 18 19  2  3
 19 20  1  0
 20 21  1  0
 21 22  2  3
 22 23  1  0
 23 24  2  3
 24 25  1  0
 25 26  2  0
 26 27  1  0
 24 28  1  0
 27 28  1  0
 29 26  1  6
 29 30  1  0
 29 36  1  0
 36 37  2  3
 37 38  1  0
 30 31  2  0
 31 32  1  0
 32 33  2  0
 33 34  1  0
 34 35  2  0
 35 30  1  0
  1  2  2  0
  2  5  1  0
  5  6  2  0
  6  7  1  0
  3  1  1  0
  3  4  2  0
  4  8  1  0
  8  9  2  0
  9 10  1  0
 10  7  2  0
  7  3  1  0
M  END
$$$$
