No_3360-complexes_sdf/6BKW-FPZ/2024-09-17-14-21-01/
     RDKit          3D

 40 43  0  0  0  0  0  0  0  0999 V2000
   -7.9040    3.9820   27.1177 C   0  0  0  0  0  0  0  0  0  0  0  0
   -8.2057    2.8231   26.8733 C   0  0  0  0  0  0  0  0  0  0  0  0
   -9.2962    2.4021   26.1155 C   0  0  0  0  0  0  0  0  0  0  0  0
   -8.7358    5.0662   26.5917 C   0  0  0  0  0  0  0  0  0  0  0  0
   -9.7618    4.7023   25.7546 C   0  0  0  0  0  0  0  0  0  0  0  0
  -10.0066    3.4105   25.4922 C   0  0  0  0  0  0  0  0  0  0  0  0
   -8.2002    6.4309   26.9312 C   0  0  0  0  0  0  0  0  0  0  0  0
   -8.4310    7.3668   27.3170 N   0  0  0  0  0  0  0  0  0  0  0  0
   -7.4201    1.7245   27.4193 N   0  0  0  0  0  0  0  0  0  0  0  0
   -7.7042    0.4221   27.3765 C   0  0  0  0  0  0  0  0  0  0  0  0
   -7.3513   -0.2906   26.6518 C   0  0  0  0  0  0  0  0  0  0  0  0
   -7.7130   -1.7293   26.6456 C   0  0  0  0  0  0  0  0  0  0  0  0
   -8.5711   -2.1411   27.6680 C   0  0  0  0  0  0  0  0  0  0  0  0
   -9.0986   -1.2158   28.5337 C   0  0  0  0  0  0  0  0  0  0  0  0
   -8.7487    0.1559   28.4107 C   0  0  0  0  0  0  0  0  0  0  0  0
   -5.9782    2.0562   27.8053 C   0  0  0  0  0  0  0  0  0  0  0  0
   -5.4001    1.3895   28.8145 C   0  0  0  0  0  0  0  0  0  0  0  0
   -3.9124    1.1527   28.5766 C   0  0  0  0  0  0  0  0  0  0  0  0
   -3.5873   -0.1023   28.0398 C   0  0  0  0  0  0  0  0  0  0  0  0
   -3.0681   -0.8963   28.8417 N   0  0  0  0  0  0  0  0  0  0  0  0
   -3.2392   -1.8652   29.2151 C   0  0  0  0  0  0  0  0  0  0  0  0
   -4.4819   -2.4367   28.8726 C   0  0  0  0  0  0  0  0  0  0  0  0
   -4.5545   -2.8893   27.5664 C   0  0  0  0  0  0  0  0  0  0  0  0
   -5.6277   -2.5190   29.7236 C   0  0  0  0  0  0  0  0  0  0  0  0
   -6.4233   -3.6659   29.8149 C   0  0  0  0  0  0  0  0  0  0  0  0
   -5.6416   -3.9731   27.4198 C   0  0  0  0  0  0  0  0  0  0  0  0
   -6.5554   -4.2498   28.4517 C   0  0  0  0  0  0  0  0  0  0  0  0
   -2.6599   -2.5768   30.1635 O   0  0  0  0  0  0  0  0  0  0  0  0
   -5.7464   -4.6155   26.1338 C   0  0  0  0  0  0  0  0  0  0  0  0
   -4.8661   -5.6006   25.9752 C   0  0  0  0  0  0  0  0  0  0  0  0
   -6.6765   -4.2766   25.1896 C   0  0  0  0  0  0  0  0  0  0  0  0
   -6.8505   -4.8768   24.0204 C   0  0  0  0  0  0  0  0  0  0  0  0
   -4.9697   -6.3207   24.7001 C   0  0  0  0  0  0  0  0  0  0  0  0
   -5.9224   -5.9432   23.7827 C   0  0  0  0  0  0  0  0  0  0  0  0
   -7.5046   -5.3041   28.2591 C   0  0  0  0  0  0  0  0  0  0  0  0
   -7.3281   -6.5841   28.8988 C   0  0  0  0  0  0  0  0  0  0  0  0
   -6.4521   -6.6856   29.8653 C   0  0  0  0  0  0  0  0  0  0  0  0
   -6.1071   -8.0285   30.3315 C   0  0  0  0  0  0  0  0  0  0  0  0
   -5.1536   -8.2579   31.3533 C   0  0  0  0  0  0  0  0  0  0  0  0
   -4.5074   -7.1296   31.9214 C   0  0  0  0  0  0  0  0  0  0  0  0
  4  7  1  0
  7  8  3  0
  2  9  1  0
  9 10  1  0
  9 16  1  0
 16 17  1  0
 17 18  1  0
 18 19  1  0
 19 20  1  0
 20 21  1  0
 21 22  1  0
 21 28  2  0
 26 29  1  0
 27 35  1  0
 35 36  1  0
 36 37  1  0
 37 38  2  3
 38 39  1  0
 39 40  2  0
  1  2  2  0
  2  3  1  0
  3  6  2  0
  6  5  1  0
  5  4  2  0
  4  1  1  0
 10 11  2  0
 11 12  1  0
 12 13  2  0
 13 14  1  0
 14 15  2  0
 15 10  1  0
 22 23  2  0
 23 26  1  0
 26 27  2  0
 27 25  1  0
 25 24  2  0
 24 22  1  0
 29 30  2  0
 30 33  1  0
 33 34  2  0
 34 32  1  0
 32 31  2  0
 31 29  1  0
M  END
$$$$
