No_3616-complexes_sdf/6BKW-FPZ/2024-09-17-14-21-01/
     RDKit          3D

 34 37  0  0  0  0  0  0  0  0999 V2000
   -7.2496    3.8871   27.4508 C   0  0  0  0  0  0  0  0  0  0  0  0
   -8.5096    4.0291   27.2770 C   0  0  2  0  0  0  0  0  0  0  0  0
   -9.2677    5.1714   27.5773 C   0  0  0  0  0  0  0  0  0  0  0  0
   -9.2765    2.8248   26.8371 C   0  0  0  0  0  0  0  0  0  0  0  0
  -10.4623    3.0171   26.3236 C   0  0  2  0  0  0  0  0  0  0  0  0
  -10.8972    2.6250   25.3350 C   0  0  0  0  0  0  0  0  0  0  0  0
  -10.6168    2.9404   24.3189 C   0  0  0  0  0  0  0  0  0  0  0  0
  -10.6148    5.3057   27.3112 C   0  0  0  0  0  0  0  0  0  0  0  0
  -11.1652    4.3506   26.6665 C   0  0  0  0  0  0  0  0  0  0  0  0
   -6.5260    2.7100   27.4650 N   0  0  0  0  0  0  0  0  0  0  0  0
   -9.8100    4.1788   24.1385 C   0  0  0  0  0  0  0  0  0  0  0  0
   -5.1936    2.7465   27.9187 C   0  0  0  0  0  0  0  0  0  0  0  0
   -6.5599    4.9059   28.0767 N   0  0  0  0  0  0  0  0  0  0  0  0
  -10.8537    2.3565   22.9090 C   0  0  0  0  0  0  0  0  0  0  0  0
  -10.1299    1.3169   22.5848 C   0  0  0  0  0  0  0  0  0  0  0  0
  -10.2732    0.5673   21.4282 C   0  0  0  0  0  0  0  0  0  0  0  0
  -11.2732    0.9924   20.5252 C   0  0  0  0  0  0  0  0  0  0  0  0
  -11.8015    2.8740   22.0585 C   0  0  0  0  0  0  0  0  0  0  0  0
  -12.0459    2.1232   20.8598 C   0  0  0  0  0  0  0  0  0  0  0  0
   -4.5558    1.5095   27.9156 N   0  0  0  0  0  0  0  0  0  0  0  0
   -5.1981    0.3997   27.9658 C   0  0  0  0  0  0  0  0  0  0  0  0
   -4.7919   -0.5715   28.8183 C   0  0  0  0  0  0  0  0  0  0  0  0
   -5.4994   -1.8028   29.0912 C   0  0  0  0  0  0  0  0  0  0  0  0
   -6.6847   -1.9667   28.3729 C   0  0  0  0  0  0  0  0  0  0  0  0
   -7.1760   -0.9884   27.5187 C   0  0  0  0  0  0  0  0  0  0  0  0
   -6.4660    0.1999   27.3646 C   0  0  0  0  0  0  0  0  0  0  0  0
   -3.5234   -0.4111   29.6217 C   0  0  0  0  0  0  0  0  0  0  0  0
   -3.4236   -0.7710   30.8816 C   0  0  0  0  0  0  0  0  0  0  0  0
   -3.3392   -1.6364   31.4285 C   0  0  0  0  0  0  0  0  0  0  0  0
   -3.1184   -2.9450   30.7747 C   0  0  0  0  0  0  0  0  0  0  0  0
   -2.9545   -4.1611   31.5349 C   0  0  0  0  0  0  0  0  0  0  0  0
   -3.0758   -4.0243   32.9408 C   0  0  0  0  0  0  0  0  0  0  0  0
   -3.2583   -2.8856   33.6510 C   0  0  0  0  0  0  0  0  0  0  0  0
   -3.3489   -1.6677   33.0070 C   0  0  0  0  0  0  0  0  0  0  0  0
  1  2  1  0
  2  3  1  1
  2  4  1  0
  5  4  1  6
  5  6  1  0
  6  7  2  3
  3  8  1  0
  5  9  1  0
  8  9  1  0
  1 10  2  3
  7 11  1  0
 10 12  1  0
  1 13  1  0
  7 14  1  0
 12 20  2  3
 20 21  1  0
 22 27  1  0
 27 28  1  0
 28 29  1  0
 29 30  2  0
 30 31  1  0
 31 32  2  0
 32 33  1  0
 33 34  2  0
 34 29  1  0
 14 15  2  0
 15 16  1  0
 16 17  2  0
 17 19  1  0
 19 18  2  0
 18 14  1  0
 21 22  1  0
 22 23  2  0
 23 24  1  0
 24 25  2  0
 25 26  1  0
 26 21  2  0
M  END
$$$$
