No_3635-complexes_sdf/6BKW-FPZ/2024-09-17-14-21-01/
     RDKit          3D

 27 30  0  0  0  0  0  0  0  0999 V2000
   -7.9040    3.9820   27.1177 C   0  0  0  0  0  0  0  0  0  0  0  0
   -7.8663    4.8694   27.9238 C   0  0  0  0  0  0  0  0  0  0  0  0
   -9.0491    3.8523   26.2542 C   0  0  0  0  0  0  0  0  0  0  0  0
   -8.6019    5.9544   27.7203 C   0  0  0  0  0  0  0  0  0  0  0  0
   -9.7838    4.9247   26.0626 C   0  0  0  0  0  0  0  0  0  0  0  0
   -9.6083    6.0325   26.8808 C   0  0  0  0  0  0  0  0  0  0  0  0
   -6.9559    2.4811   27.3743 Cl  0  0  0  0  0  0  0  0  0  0  0  0
   -9.1563    2.7219   25.4180 O   0  0  0  0  0  0  0  0  0  0  0  0
   -9.2467    1.5472   25.8508 C   0  0  1  0  0  0  0  0  0  0  0  0
  -10.0399    1.2740   26.8531 C   0  0  0  0  0  0  0  0  0  0  0  0
  -10.9321    2.0673   27.3957 C   0  0  0  0  0  0  0  0  0  0  0  0
  -11.7941    1.6107   28.5385 C   0  0  0  0  0  0  0  0  0  0  0  0
  -12.6642    2.5382   29.1923 C   0  0  0  0  0  0  0  0  0  0  0  0
  -12.7188    3.8943   28.6868 C   0  0  0  0  0  0  0  0  0  0  0  0
  -11.8996    4.2901   27.6862 C   0  0  0  0  0  0  0  0  0  0  0  0
  -11.0431    3.4387   27.0907 C   0  0  0  0  0  0  0  0  0  0  0  0
  -10.8393    3.9597   25.8857 N   0  0  0  0  0  0  0  0  0  0  0  0
  -11.5745    3.8820   24.8134 C   0  0  0  0  0  0  0  0  0  0  0  0
   -8.5269    0.5176   25.0850 C   0  0  0  0  0  0  0  0  0  0  0  0
   -8.6005    0.4166   23.8646 N   0  0  0  0  0  0  0  0  0  0  0  0
   -9.3653   -0.3364   23.1367 C   0  0  0  0  0  0  0  0  0  0  0  0
  -10.4430    0.0280   22.5445 C   0  0  0  0  0  0  0  0  0  0  0  0
  -10.8339    1.3612   22.6303 C   0  0  0  0  0  0  0  0  0  0  0  0
  -12.1199    1.8877   22.4288 C   0  0  0  0  0  0  0  0  0  0  0  0
  -12.9493    0.9995   21.8009 C   0  0  0  0  0  0  0  0  0  0  0  0
  -12.6747   -0.3416   21.5649 C   0  0  0  0  0  0  0  0  0  0  0  0
  -11.4175   -0.7822   21.9709 C   0  0  0  0  0  0  0  0  0  0  0  0
  1  7  1  0
  3  8  1  0
  8  9  1  0
  9 10  1  0
  5 17  1  0
 16 17  1  0
 17 18  1  0
  9 19  1  6
 19 20  1  0
 20 21  1  0
 21 22  1  0
 10 11  1  0
 11 12  2  0
 12 13  1  0
 13 14  2  0
 14 15  1  0
 15 16  2  0
 16 11  1  0
 22 23  2  0
 23 24  1  0
 24 25  2  0
 25 26  1  0
 26 27  2  0
 27 22  1  0
  1  2  2  0
  2  4  1  0
  4  6  2  0
  6  5  1  0
  5  3  2  0
  3  1  1  0
M  END
$$$$
