No_3286-complexes_sdf/6BKW-FPZ/2024-09-17-14-21-01/
     RDKit          3D

  9  9  0  0  0  0  0  0  0  0999 V2000
   -7.2496    3.8871   27.4508 C   0  0  0  0  0  0  0  0  0  0  0  0
   -7.9379    4.9063   27.8518 C   0  0  0  0  0  0  0  0  0  0  0  0
   -7.5112    6.1898   27.6280 C   0  0  0  0  0  0  0  0  0  0  0  0
   -7.4783    2.5435   27.5904 C   0  0  2  0  0  0  0  0  0  0  0  0
   -6.6064    1.5370   27.1750 C   0  0  0  0  0  0  0  0  0  0  0  0
   -7.1002    0.3229   27.0179 C   0  0  0  0  0  0  0  0  0  0  0  0
   -8.4578    0.1338   27.2073 C   0  0  0  0  0  0  0  0  0  0  0  0
   -8.8010    2.0587   27.4729 C   0  0  1  0  0  0  0  0  0  0  0  0
   -9.4589    1.1867   27.4458 N   0  0  0  0  0  0  0  0  0  0  0  0
  1  2  1  0
  2  3  2  0
  4  1  1  6
  4  5  1  0
  5  6  2  0
  6  7  1  0
  4  8  1  0
  7  8  1  0
  8  9  1  1
M  END
$$$$
