No_3133-complexes_sdf/6BKW-FPZ/2024-09-17-14-21-01/
     RDKit          3D

 13 13  0  0  0  0  0  0  0  0999 V2000
   -7.9040    3.9820   27.1177 C   0  0  0  0  0  0  0  0  0  0  0  0
   -8.2057    2.8231   26.8733 C   0  0  0  0  0  0  0  0  0  0  0  0
   -9.2962    2.4021   26.1155 C   0  0  0  0  0  0  0  0  0  0  0  0
   -8.7358    5.0662   26.5917 C   0  0  0  0  0  0  0  0  0  0  0  0
   -9.7618    4.7023   25.7546 C   0  0  0  0  0  0  0  0  0  0  0  0
  -10.0066    3.4105   25.4922 C   0  0  0  0  0  0  0  0  0  0  0  0
   -8.3936    6.4769   26.8843 C   0  0  2  0  0  0  0  0  0  0  0  0
   -8.0307    6.8601   28.0802 N   0  0  0  0  0  0  0  0  0  0  0  0
   -8.7105    7.3112   25.9801 F   0  0  0  0  0  0  0  0  0  0  0  0
   -7.4423    1.8005   27.4915 F   0  0  0  0  0  0  0  0  0  0  0  0
  -11.2870    3.0509   24.4153 Cl  0  0  0  0  0  0  0  0  0  0  0  0
   -9.6021    0.7817   25.7055 Cl  0  0  0  0  0  0  0  0  0  0  0  0
   -6.8769    4.2675   28.0441 O   0  0  0  0  0  0  0  0  0  0  0  0
  4  7  1  0
  7  8  1  1
  7  9  1  0
  2 10  1  0
  6 11  1  0
  3 12  1  0
  1 13  1  0
  1  2  2  0
  2  3  1  0
  3  6  2  0
  6  5  1  0
  5  4  2  0
  4  1  1  0
M  END
$$$$
