No_3309-complexes_sdf/6BKW-FPZ/2024-09-17-14-21-01/
     RDKit          3D

 14 15  0  0  0  0  0  0  0  0999 V2000
   -7.9040    3.9820   27.1177 C   0  0  0  0  0  0  0  0  0  0  0  0
   -9.0711    4.3164   27.0630 C   0  0  0  0  0  0  0  0  0  0  0  0
   -9.9692    3.7224   26.1073 C   0  0  0  0  0  0  0  0  0  0  0  0
   -7.4776    2.6994   26.6283 C   0  0  0  0  0  0  0  0  0  0  0  0
   -8.4406    1.9440   25.9776 C   0  0  0  0  0  0  0  0  0  0  0  0
   -9.6379    2.5001   25.6881 C   0  0  0  0  0  0  0  0  0  0  0  0
   -6.9546    4.4721   27.9770 F   0  0  0  0  0  0  0  0  0  0  0  0
  -10.5117    1.5688   24.8822 C   0  0  0  0  0  0  0  0  0  0  0  0
  -10.3611    0.5425   24.6344 C   0  0  0  0  0  0  0  0  0  0  0  0
  -11.2465   -0.2944   23.8469 C   0  0  0  0  0  0  0  0  0  0  0  0
  -12.3843    0.3233   23.3080 C   0  0  0  0  0  0  0  0  0  0  0  0
  -11.7531    2.2598   24.3103 C   0  0  0  0  0  0  0  0  0  0  0  0
  -12.5991    1.6184   23.5746 C   0  0  0  0  0  0  0  0  0  0  0  0
   -9.5291    5.9765   27.6032 Cl  0  0  0  0  0  0  0  0  0  0  0  0
  1  7  1  0
  6  8  1  0
  2 14  1  0
  1  2  2  0
  2  3  1  0
  3  6  2  0
  6  5  1  0
  5  4  2  0
  4  1  1  0
  8  9  2  0
  9 10  1  0
 10 11  2  0
 11 13  1  0
 13 12  2  0
 12  8  1  0
M  END
$$$$
