No_3053-complexes_sdf/6BKW-FPZ/2024-09-17-14-21-01/
     RDKit          3D

 11 11  0  0  0  0  0  0  0  0999 V2000
   -7.9040    3.9820   27.1177 C   0  0  0  0  0  0  0  0  0  0  0  0
   -9.0711    4.3164   27.0630 C   0  0  0  0  0  0  0  0  0  0  0  0
   -9.8698    3.9665   25.9495 C   0  0  0  0  0  0  0  0  0  0  0  0
   -7.4046    2.7946   26.4568 C   0  0  0  0  0  0  0  0  0  0  0  0
   -8.3645    2.1023   25.7152 C   0  0  0  0  0  0  0  0  0  0  0  0
   -9.5483    2.7427   25.4386 C   0  0  0  0  0  0  0  0  0  0  0  0
   -6.7849    4.7014   28.3012 Cl  0  0  0  0  0  0  0  0  0  0  0  0
  -10.5263    2.3368   24.3789 C   0  0  2  0  0  0  0  0  0  0  0  0
  -11.0192    0.8747   24.0602 Cl  0  0  0  0  0  0  0  0  0  0  0  0
  -10.8379    3.3270   23.3041 C   0  0  0  0  0  0  0  0  0  0  0  0
  -11.2184    4.6084   23.6539 C   0  0  0  0  0  0  0  0  0  0  0  0
  1  7  1  0
  6  8  1  0
  8  9  1  6
  8 10  1  0
 10 11  2  0
  1  2  2  0
  2  3  1  0
  3  6  2  0
  6  5  1  0
  5  4  2  0
  4  1  1  0
M  END
$$$$
