No_3718-complexes_sdf/6BKW-FPZ/2024-09-17-14-21-01/
     RDKit          3D

 23 25  0  0  0  0  0  0  0  0999 V2000
   -7.2496    3.8871   27.4508 C   0  0  0  0  0  0  0  0  0  0  0  0
   -7.9379    4.9063   27.8518 C   0  0  0  0  0  0  0  0  0  0  0  0
   -9.3460    4.8223   27.8695 C   0  0  0  0  0  0  0  0  0  0  0  0
   -7.8628    2.6163   27.1065 C   0  0  0  0  0  0  0  0  0  0  0  0
   -7.1773    1.4959   26.7593 C   0  0  0  0  0  0  0  0  0  0  0  0
   -9.2781    2.5892   27.1482 C   0  0  0  0  0  0  0  0  0  0  0  0
  -10.0064    3.6800   27.5696 C   0  0  0  0  0  0  0  0  0  0  0  0
   -7.7257    0.4549   26.0375 C   0  0  0  0  0  0  0  0  0  0  0  0
   -7.0619   -0.6900   25.8689 C   0  0  0  0  0  0  0  0  0  0  0  0
   -6.1308   -0.8835   26.4105 C   0  0  0  0  0  0  0  0  0  0  0  0
   -5.9179    1.0249   27.3924 C   0  0  0  0  0  0  0  0  0  0  0  0
   -5.3286   -0.0391   27.2977 C   0  0  0  0  0  0  0  0  0  0  0  0
  -11.4724    3.5272   27.7115 C   0  0  0  0  0  0  0  0  0  0  0  0
  -12.3043    4.2054   27.2047 C   0  0  0  0  0  0  0  0  0  0  0  0
  -11.9608    2.5140   28.6646 C   0  0  0  0  0  0  0  0  0  0  0  0
  -12.8799    1.9168   28.4597 C   0  0  0  0  0  0  0  0  0  0  0  0
  -13.6922    3.9467   27.0984 C   0  0  0  0  0  0  0  0  0  0  0  0
  -14.0510    2.7414   27.8248 C   0  0  0  0  0  0  0  0  0  0  0  0
   -4.0643   -0.3466   27.9643 C   0  0  0  0  0  0  0  0  0  0  0  0
   -3.7023    0.5580   28.6465 F   0  0  0  0  0  0  0  0  0  0  0  0
   -3.0745   -0.5847   27.0455 F   0  0  0  0  0  0  0  0  0  0  0  0
   -4.2266   -1.4541   28.6913 F   0  0  0  0  0  0  0  0  0  0  0  0
   -7.3503    6.0630   28.1531 F   0  0  0  0  0  0  0  0  0  0  0  0
  4  5  1  0
  7 13  1  0
 12 19  1  0
 19 20  1  0
 19 21  1  0
 19 22  1  0
  2 23  1  0
  5  8  2  0
  8  9  1  0
  9 10  2  0
 10 12  1  0
 12 11  2  0
 11  5  1  0
 13 14  2  0
 14 17  1  0
 17 18  2  0
 18 16  1  0
 16 15  2  0
 15 13  1  0
  1  2  2  0
  2  3  1  0
  3  7  2  0
  7  6  1  0
  6  4  2  0
  4  1  1  0
M  END
$$$$
