No_387-complexes_sdf/6BKW-FPZ/2024-09-17-14-21-01/
     RDKit          3D

  9  9  0  0  0  0  0  0  0  0999 V2000
   -7.9040    3.9820   27.1177 C   0  0  0  0  0  0  0  0  0  0  0  0
   -8.2057    2.8231   26.8733 C   0  0  0  0  0  0  0  0  0  0  0  0
   -7.0130    4.3706   28.1140 C   0  0  0  0  0  0  0  0  0  0  0  0
   -7.4093    1.7370   27.3857 C   0  0  0  0  0  0  0  0  0  0  0  0
   -7.6967    0.3945   27.1348 C   0  0  0  0  0  0  0  0  0  0  0  0
   -6.8219    5.7758   28.4270 C   0  0  0  0  0  0  0  0  0  0  0  0
   -7.7338    6.6535   27.7226 C   0  0  0  0  0  0  0  0  0  0  0  0
   -8.6249    5.1483   26.6835 C   0  0  0  0  0  0  0  0  0  0  0  0
   -8.5712    6.4087   26.8810 C   0  0  0  0  0  0  0  0  0  0  0  0
  1  2  1  0
  2  4  2  3
  4  5  1  0
  1  3  2  0
  3  6  1  0
  6  7  2  0
  7  9  1  0
  9  8  2  0
  8  1  1  0
M  END
$$$$
