No_391-complexes_sdf/6BKW-FPZ/2024-09-17-14-21-01/
     RDKit          3D

 20 22  0  0  0  0  0  0  0  0999 V2000
   -7.9040    3.9820   27.1177 C   0  0  0  0  0  0  0  0  0  0  0  0
   -8.2057    2.8231   26.8733 C   0  0  1  0  0  0  0  0  0  0  0  0
   -8.7463    4.9537   27.6708 C   0  0  2  0  0  0  0  0  0  0  0  0
  -10.0803    4.5846   27.9309 C   0  0  0  0  0  0  0  0  0  0  0  0
   -7.2894    1.7604   26.8311 C   0  0  0  0  0  0  0  0  0  0  0  0
   -9.6151    2.4313   26.8341 C   0  0  0  0  0  0  0  0  0  0  0  0
  -10.5186    3.3168   27.5918 C   0  0  1  0  0  0  0  0  0  0  0  0
   -7.4514    0.5589   26.1782 C   0  0  0  0  0  0  0  0  0  0  0  0
   -8.4474    6.3503   27.4263 N   0  0  0  0  0  0  0  0  0  0  0  0
   -9.1799    7.3805   27.0158 C   0  0  0  0  0  0  0  0  0  0  0  0
   -7.0057    6.6894   27.7182 C   0  0  0  0  0  0  0  0  0  0  0  0
   -8.3083    0.5091   25.2404 C   0  0  0  0  0  0  0  0  0  0  0  0
  -10.0450    1.3226   26.2026 C   0  0  0  0  0  0  0  0  0  0  0  0
   -9.6042    0.4935   25.3678 C   0  0  0  0  0  0  0  0  0  0  0  0
  -11.7791    2.8498   28.0649 C   0  0  0  0  0  0  0  0  0  0  0  0
  -12.9222    3.5101   27.6764 C   0  0  0  0  0  0  0  0  0  0  0  0
  -14.0629    3.1629   28.0773 C   0  0  0  0  0  0  0  0  0  0  0  0
  -14.1667    2.0624   28.9589 C   0  0  0  0  0  0  0  0  0  0  0  0
  -13.0776    1.3370   29.3910 C   0  0  0  0  0  0  0  0  0  0  0  0
  -11.8403    1.7602   28.9462 C   0  0  0  0  0  0  0  0  0  0  0  0
  2  1  1  1
  1  3  1  0
  3  4  1  0
  2  5  1  0
  2  6  1  0
  4  7  1  0
  6  7  1  0
  5  8  1  0
  3  9  1  6
  9 10  1  0
  9 11  1  0
  8 12  2  0
  6 13  1  0
 12 14  1  0
 13 14  2  0
  7 15  1  1
 15 16  2  0
 16 17  1  0
 17 18  2  0
 18 19  1  0
 19 20  2  0
 20 15  1  0
M  END
$$$$
