No_3069-complexes_sdf/6BKW-FPZ/2024-09-17-14-21-01/
     RDKit          3D

 40 44  0  0  0  0  0  0  0  0999 V2000
   -7.7129    4.2099   27.0854 C   0  0  0  0  0  0  0  0  0  0  0  0
   -8.2112    3.0637   26.9225 C   0  0  0  0  0  0  0  0  0  0  0  0
   -8.5108    5.3904   26.9436 C   0  0  0  0  0  0  0  0  0  0  0  0
   -9.7256    5.1955   26.3518 C   0  0  0  0  0  0  0  0  0  0  0  0
   -9.4995    2.8258   26.4878 C   0  0  0  0  0  0  0  0  0  0  0  0
  -10.2542    3.9691   26.2055 C   0  0  0  0  0  0  0  0  0  0  0  0
   -7.9470    6.5632   27.1671 F   0  0  0  0  0  0  0  0  0  0  0  0
   -7.5877    1.7085   27.2215 C   0  0  0  0  0  0  0  0  0  0  0  0
   -6.2029    1.7570   27.6362 C   0  0  0  0  0  0  0  0  0  0  0  0
   -5.5461    0.5699   27.9183 C   0  0  0  0  0  0  0  0  0  0  0  0
   -6.1988   -0.6095   27.9096 C   0  0  0  0  0  0  0  0  0  0  0  0
   -8.0873    0.4718   27.1939 C   0  0  0  0  0  0  0  0  0  0  0  0
   -9.5202    0.4375   26.8340 C   0  0  0  0  0  0  0  0  0  0  0  0
   -7.4846   -0.6578   27.5803 C   0  0  0  0  0  0  0  0  0  0  0  0
  -10.1888    1.6108   26.4188 C   0  0  0  0  0  0  0  0  0  0  0  0
   -4.0647    0.6924   28.3055 C   0  0  0  0  0  0  0  0  0  0  0  0
   -3.6495    0.2848   29.3281 O   0  0  0  0  0  0  0  0  0  0  0  0
   -3.2708    1.1739   27.3788 O   0  0  0  0  0  0  0  0  0  0  0  0
   -3.5828   -1.0094   29.7821 C   0  0  0  0  0  0  0  0  0  0  0  0
   -4.2154   -1.3812   30.7039 C   0  0  0  0  0  0  0  0  0  0  0  0
   -4.5535   -0.5501   31.8158 C   0  0  0  0  0  0  0  0  0  0  0  0
   -5.4402   -0.8824   32.9348 C   0  0  0  0  0  0  0  0  0  0  0  0
   -6.1146   -2.1016   32.8794 C   0  0  0  0  0  0  0  0  0  0  0  0
   -5.8539   -2.9623   31.8319 C   0  0  0  0  0  0  0  0  0  0  0  0
   -4.9850   -2.6125   30.8209 C   0  0  0  0  0  0  0  0  0  0  0  0
   -7.0150   -2.4387   34.0043 C   0  0  0  0  0  0  0  0  0  0  0  0
   -6.5726   -2.4907   35.2199 N   0  0  0  0  0  0  0  0  0  0  0  0
   -5.5926   -1.7427   35.6542 C   0  0  0  0  0  0  0  0  0  0  0  0
   -4.3273   -1.8592   35.5793 C   0  0  0  0  0  0  0  0  0  0  0  0
   -3.4290   -0.8478   35.9482 C   0  0  0  0  0  0  0  0  0  0  0  0
   -3.9181    0.2079   36.8203 C   0  0  0  0  0  0  0  0  0  0  0  0
   -5.2701    0.1993   37.1656 C   0  0  0  0  0  0  0  0  0  0  0  0
   -6.0672   -0.7018   36.6246 C   0  0  0  0  0  0  0  0  0  0  0  0
   -7.0115   -3.6036   36.0247 C   0  0  0  0  0  0  0  0  0  0  0  0
   -6.2534   -4.3163   36.6107 C   0  0  0  0  0  0  0  0  0  0  0  0
   -6.6793   -5.3664   37.4850 C   0  0  0  0  0  0  0  0  0  0  0  0
   -8.0293   -2.9815   37.0816 C   0  0  0  0  0  0  0  0  0  0  0  0
   -8.6983   -3.9407   37.9005 C   0  0  0  0  0  0  0  0  0  0  0  0
   -7.6719   -4.8425   38.5822 C   0  0  0  0  0  0  0  0  0  0  0  0
   -9.5472   -3.2955   38.9018 N   0  0  0  0  0  0  0  0  0  0  0  0
  3  7  1  0
 10 16  1  0
 16 17  1  0
 16 18  2  0
 17 19  1  0
 19 20  1  0
 23 26  1  0
 26 27  1  0
 27 28  1  0
 27 34  1  0
 34 35  2  3
 35 36  1  0
 34 37  1  0
 37 38  1  0
 36 39  1  0
 38 40  1  0
  8  9  2  0
  9 10  1  0
 10 11  2  0
 11 14  1  0
 14 12  2  0
  5 15  1  0
 15 13  2  0
 13 12  1  0
 12  8  1  0
  8  2  1  0
 20 21  2  0
 21 22  1  0
 22 23  2  0
 23 24  1  0
 24 25  2  0
 25 20  1  0
 28 29  2  0
 29 30  1  0
 30 31  2  0
 31 32  1  0
 32 33  2  0
 33 28  1  0
  1  2  2  0
  2  5  1  0
  5  6  2  0
  6  4  1  0
  4  3  2  0
  3  1  1  0
M  END
$$$$
