No_3775-complexes_sdf/6BKW-FPZ/2024-09-17-14-21-01/
     RDKit          3D

 25 27  0  0  0  0  0  0  0  0999 V2000
   -7.2496    3.8871   27.4508 C   0  0  0  0  0  0  0  0  0  0  0  0
   -7.6161    2.7143   27.1523 C   0  0  0  0  0  0  0  0  0  0  0  0
   -8.6212    2.2239   26.4074 C   0  0  0  0  0  0  0  0  0  0  0  0
   -8.2540    4.9237   27.1711 C   0  0  0  0  0  0  0  0  0  0  0  0
   -9.3729    4.5806   26.4433 C   0  0  0  0  0  0  0  0  0  0  0  0
   -9.5830    3.2969   26.1026 C   0  0  0  0  0  0  0  0  0  0  0  0
   -7.9303    6.3207   27.5389 C   0  0  0  0  0  0  0  0  0  0  0  0
   -8.8339    7.2764   27.1605 N   0  0  0  0  0  0  0  0  0  0  0  0
   -8.8827    0.8863   26.0564 C   0  0  0  0  0  0  0  0  0  0  0  0
   -9.3184   -0.0059   26.9474 C   0  0  0  0  0  0  0  0  0  0  0  0
   -9.5536   -1.3792   26.6899 C   0  0  0  0  0  0  0  0  0  0  0  0
   -7.9067    0.2391   25.2259 C   0  0  0  0  0  0  0  0  0  0  0  0
   -8.0579   -1.0551   24.7682 C   0  0  0  0  0  0  0  0  0  0  0  0
   -8.7930   -1.7427   25.2571 C   0  0  0  0  0  0  0  0  0  0  0  0
   -6.8686    6.5864   28.1176 O   0  0  0  0  0  0  0  0  0  0  0  0
  -10.7253    2.9225   25.2454 C   0  0  0  0  0  0  0  0  0  0  0  0
  -10.8296    3.4452   24.0357 C   0  0  0  0  0  0  0  0  0  0  0  0
  -11.9301    3.2169   23.1618 C   0  0  0  0  0  0  0  0  0  0  0  0
  -12.8645    2.2905   23.5708 C   0  0  0  0  0  0  0  0  0  0  0  0
  -12.6794    1.6440   24.8117 C   0  0  0  0  0  0  0  0  0  0  0  0
  -11.6349    1.9750   25.6718 C   0  0  0  0  0  0  0  0  0  0  0  0
  -10.3592   -2.3038   27.3870 C   0  0  0  0  0  0  0  0  0  0  0  0
  -11.3994   -2.6405   27.0612 O   0  0  0  0  0  0  0  0  0  0  0  0
  -10.0840   -2.2948   28.7254 O   0  0  0  0  0  0  0  0  0  0  0  0
   -6.3395    1.4956   27.6965 Cl  0  0  0  0  0  0  0  0  0  0  0  0
  4  7  1  0
  7  8  1  0
  3  9  1  0
  7 15  2  0
  6 16  1  0
 11 22  1  0
 22 23  1  0
 22 24  2  0
  2 25  1  0
  9 10  2  0
 10 11  1  0
 11 14  2  0
 14 13  1  0
 13 12  2  0
 12  9  1  0
  1  2  2  0
  2  3  1  0
  3  6  2  0
  6  5  1  0
  5  4  2  0
  4  1  1  0
 16 17  2  0
 17 18  1  0
 18 19  2  0
 19 20  1  0
 20 21  2  0
 21 16  1  0
M  END
$$$$
