No_3752-complexes_sdf/6BKW-FPZ/2024-09-17-14-21-01/
     RDKit          3D

 17 18  0  0  0  0  0  0  0  0999 V2000
   -7.9040    3.9820   27.1177 C   0  0  0  0  0  0  0  0  0  0  0  0
   -7.8663    4.8694   27.9238 C   0  0  0  0  0  0  0  0  0  0  0  0
   -9.0491    3.8523   26.2542 C   0  0  0  0  0  0  0  0  0  0  0  0
   -8.7661    5.9491   27.9690 C   0  0  0  0  0  0  0  0  0  0  0  0
   -9.9295    4.8502   26.2323 C   0  0  0  0  0  0  0  0  0  0  0  0
   -9.8077    5.9288   27.0933 C   0  0  0  0  0  0  0  0  0  0  0  0
   -6.9377    2.5632   27.0872 Cl  0  0  0  0  0  0  0  0  0  0  0  0
   -9.1620    2.7269   25.2654 C   0  0  0  0  0  0  0  0  0  0  0  0
  -10.2754    2.0595   25.4377 C   0  0  0  0  0  0  0  0  0  0  0  0
  -11.1928    2.0321   26.0800 C   0  0  0  0  0  0  0  0  0  0  0  0
  -12.3339    1.0922   26.0349 C   0  0  0  0  0  0  0  0  0  0  0  0
  -10.3493    1.0539   24.2202 C   0  0  0  0  0  0  0  0  0  0  0  0
  -11.4061    0.2120   24.0836 C   0  0  0  0  0  0  0  0  0  0  0  0
  -12.3975    0.2362   25.0323 C   0  0  0  0  0  0  0  0  0  0  0  0
  -13.4013   -0.6639   24.9091 O   0  0  0  0  0  0  0  0  0  0  0  0
  -14.1693   -0.9178   24.1147 C   0  0  0  0  0  0  0  0  0  0  0  0
  -14.8501   -0.1300   23.3804 C   0  0  0  0  0  0  0  0  0  0  0  0
  1  7  1  0
  3  8  1  0
  8  9  1  0
 14 15  1  0
 15 16  1  0
 16 17  2  0
  9 10  2  0
 10 11  1  0
 11 14  2  0
 14 13  1  0
 13 12  2  0
 12  9  1  0
  1  2  2  0
  2  4  1  0
  4  6  2  0
  6  5  1  0
  5  3  2  0
  3  1  1  0
M  END
$$$$
