No_3312-complexes_sdf/6BKW-FPZ/2024-09-17-14-21-01/
     RDKit          3D

 19 20  0  0  0  0  0  0  0  0999 V2000
   -7.9040    3.9820   27.1177 C   0  0  0  0  0  0  0  0  0  0  0  0
   -7.8663    4.8694   27.9238 C   0  0  0  0  0  0  0  0  0  0  0  0
   -9.0501    3.8017   26.2617 C   0  0  0  0  0  0  0  0  0  0  0  0
   -9.1826    2.7026   25.3575 C   0  0  0  0  0  0  0  0  0  0  0  0
   -8.6940    6.0131   27.8614 C   0  0  0  0  0  0  0  0  0  0  0  0
   -9.9755    4.8547   26.2361 C   0  0  0  0  0  0  0  0  0  0  0  0
   -9.7463    5.9398   27.0364 C   0  0  0  0  0  0  0  0  0  0  0  0
  -10.1005    1.8694   25.7051 C   0  0  1  0  0  0  0  0  0  0  0  0
  -10.1112    0.7167   25.0387 C   0  0  0  0  0  0  0  0  0  0  0  0
   -8.9496    0.1448   24.9283 C   0  0  0  0  0  0  0  0  0  0  0  0
   -8.8546   -0.7598   23.7734 C   0  0  0  0  0  0  0  0  0  0  0  0
   -9.9152   -1.1479   23.0347 C   0  0  0  0  0  0  0  0  0  0  0  0
  -11.1371    0.2733   24.1298 C   0  0  0  0  0  0  0  0  0  0  0  0
  -11.0841   -0.5661   23.1563 C   0  0  0  0  0  0  0  0  0  0  0  0
  -10.1510    1.5720   27.2179 C   0  0  0  0  0  0  0  0  0  0  0  0
  -11.3320    1.9866   27.9754 C   0  0  0  0  0  0  0  0  0  0  0  0
   -9.2359    0.6875   27.8043 C   0  0  0  0  0  0  0  0  0  0  0  0
  -11.4194    3.2771   28.4343 C   0  0  0  0  0  0  0  0  0  0  0  0
  -12.5246    3.6857   29.2762 C   0  0  0  0  0  0  0  0  0  0  0  0
  3  4  1  0
  8  4  1  1
  8  9  1  0
  8 15  1  0
 15 16  2  3
 15 17  1  0
 16 18  1  0
 18 19  2  0
  9 10  2  0
 10 11  1  0
 11 12  2  0
 12 14  1  0
 14 13  2  0
 13  9  1  0
  1  2  2  0
  2  5  1  0
  5  7  2  0
  7  6  1  0
  6  3  2  0
  3  1  1  0
M  END
$$$$
