No_3289-complexes_sdf/6BKW-FPZ/2024-09-17-14-21-01/
     RDKit          3D

 14 14  0  0  0  0  0  0  0  0999 V2000
   -7.9040    3.9820   27.1177 C   0  0  0  0  0  0  0  0  0  0  0  0
   -8.2057    2.8231   26.8733 C   0  0  0  0  0  0  0  0  0  0  0  0
   -8.7695    5.0740   26.7916 C   0  0  0  0  0  0  0  0  0  0  0  0
   -9.9618    4.7598   26.1630 C   0  0  0  0  0  0  0  0  0  0  0  0
   -9.4200    2.4524   26.2849 C   0  0  0  0  0  0  0  0  0  0  0  0
  -10.2590    3.4815   25.9250 C   0  0  0  0  0  0  0  0  0  0  0  0
   -8.3840    6.4693   27.0829 C   0  0  0  0  0  0  0  0  0  0  0  0
   -8.5697    7.4941   26.2616 C   0  0  0  0  0  0  0  0  0  0  0  0
   -7.2812    1.6559   27.3022 C   0  0  0  0  0  0  0  0  0  0  0  0
   -7.6417    0.4453   27.2800 O   0  0  0  0  0  0  0  0  0  0  0  0
   -5.9350    1.9351   27.5485 O   0  0  0  0  0  0  0  0  0  0  0  0
   -7.3361    6.5578   28.0637 C   0  0  0  0  0  0  0  0  0  0  0  0
   -5.0733    0.9460   27.8849 C   0  0  0  0  0  0  0  0  0  0  0  0
   -5.0477   -0.0918   27.4269 C   0  0  0  0  0  0  0  0  0  0  0  0
  3  7  1  0
  7  8  1  0
  2  9  1  0
  9 10  2  0
  9 11  1  0
  7 12  1  0
 11 13  1  0
 13 14  2  0
  1  2  2  0
  2  5  1  0
  5  6  2  0
  6  4  1  0
  4  3  2  0
  3  1  1  0
M  END
$$$$
