No_3027-complexes_sdf/6BKW-FPZ/2024-09-17-14-21-01/
     RDKit          3D

 19 21  0  0  0  0  0  0  0  0999 V2000
   -7.9040    3.9820   27.1177 C   0  0  0  0  0  0  0  0  0  0  0  0
   -7.8663    4.8694   27.9238 C   0  0  0  0  0  0  0  0  0  0  0  0
   -9.0501    3.8017   26.2617 C   0  0  0  0  0  0  0  0  0  0  0  0
  -10.0189    4.7608   26.3707 C   0  0  0  0  0  0  0  0  0  0  0  0
   -8.6770    5.9780   27.9222 C   0  0  0  0  0  0  0  0  0  0  0  0
  -11.1008    4.5790   25.4893 C   0  0  0  0  0  0  0  0  0  0  0  0
   -9.8392    5.8718   27.1106 C   0  0  0  0  0  0  0  0  0  0  0  0
  -11.4786    3.3298   25.2766 C   0  0  0  0  0  0  0  0  0  0  0  0
  -10.4971    2.3392   25.0034 C   0  0  2  0  0  0  0  0  0  0  0  0
   -9.1472    2.6492   25.3670 C   0  0  0  0  0  0  0  0  0  0  0  0
  -10.4810    1.7258   23.6525 C   0  0  1  0  0  0  0  0  0  0  0  0
   -9.8295    0.4949   23.6414 C   0  0  0  0  0  0  0  0  0  0  0  0
  -11.0870    2.2163   22.5204 C   0  0  0  0  0  0  0  0  0  0  0  0
  -10.1739   -0.4718   23.4587 C   0  0  0  0  0  0  0  0  0  0  0  0
  -11.6167    3.4102   22.3987 C   0  0  0  0  0  0  0  0  0  0  0  0
   -9.4196   -1.7380   23.3254 C   0  0  0  0  0  0  0  0  0  0  0  0
   -8.0619   -1.6882   23.5746 C   0  0  0  0  0  0  0  0  0  0  0  0
   -7.5057   -0.5928   23.8188 C   0  0  0  0  0  0  0  0  0  0  0  0
   -8.1865    0.5957   23.9088 C   0  0  0  0  0  0  0  0  0  0  0  0
  4  6  1  0
  6  8  1  0
  9  8  1  6
  3 10  1  0
  9 10  1  0
  9 11  1  0
 11 12  1  0
 11 13  1  1
 13 15  1  0
 12 14  2  0
 14 16  1  0
 16 17  2  0
 17 18  1  0
 18 19  2  0
 19 12  1  0
  1  2  2  0
  2  5  1  0
  5  7  2  0
  7  4  1  0
  4  3  2  0
  3  1  1  0
M  END
$$$$
