No_3503-complexes_sdf/6BKW-FPZ/2024-09-17-14-21-01/
     RDKit          3D

 18 20  0  0  0  0  0  0  0  0999 V2000
   -7.7129    4.2099   27.0854 C   0  0  0  0  0  0  0  0  0  0  0  0
   -7.7814    5.1722   27.8972 C   0  0  0  0  0  0  0  0  0  0  0  0
   -8.8776    3.8408   26.3416 C   0  0  0  0  0  0  0  0  0  0  0  0
   -9.9844    4.6492   26.4743 C   0  0  0  0  0  0  0  0  0  0  0  0
   -8.7830    6.1594   27.8870 C   0  0  0  0  0  0  0  0  0  0  0  0
   -9.9269    5.8191   27.1183 C   0  0  0  0  0  0  0  0  0  0  0  0
   -8.8747    2.6048   25.5686 C   0  0  0  0  0  0  0  0  0  0  0  0
   -8.2811    1.4608   26.1787 C   0  0  0  0  0  0  0  0  0  0  0  0
   -8.2755    0.2485   25.5381 C   0  0  0  0  0  0  0  0  0  0  0  0
   -8.8388    0.2138   24.2664 C   0  0  0  0  0  0  0  0  0  0  0  0
   -9.4153    1.3350   23.6534 C   0  0  0  0  0  0  0  0  0  0  0  0
   -9.4104    2.5249   24.3360 C   0  0  0  0  0  0  0  0  0  0  0  0
   -9.9914    1.2669   22.3196 C   0  0  0  0  0  0  0  0  0  0  0  0
   -9.9649    0.1691   21.5917 C   0  0  0  0  0  0  0  0  0  0  0  0
  -10.4726    2.4854   21.7185 C   0  0  0  0  0  0  0  0  0  0  0  0
  -11.0881    2.4560   20.4809 C   0  0  0  0  0  0  0  0  0  0  0  0
  -10.5773    0.1203   20.2781 C   0  0  0  0  0  0  0  0  0  0  0  0
  -11.0971    1.2774   19.7798 C   0  0  0  0  0  0  0  0  0  0  0  0
  3  7  1  0
 11 13  1  0
  1  2  2  0
  2  5  1  0
  5  6  2  0
  6  4  1  0
  4  3  2  0
  3  1  1  0
  7  8  2  0
  8  9  1  0
  9 10  2  0
 10 11  1  0
 11 12  2  0
 12  7  1  0
 13 14  2  0
 14 17  1  0
 17 18  2  0
 18 16  1  0
 16 15  2  0
 15 13  1  0
M  END
$$$$
