No_3411-complexes_sdf/6BKW-FPZ/2024-09-17-14-21-01/
     RDKit          3D

 18 20  0  0  0  0  0  0  0  0999 V2000
   -7.7129    4.2099   27.0854 C   0  0  0  0  0  0  0  0  0  0  0  0
   -7.7814    5.1722   27.8972 C   0  0  0  0  0  0  0  0  0  0  0  0
   -7.3155    2.9699   27.6145 C   0  0  0  0  0  0  0  0  0  0  0  0
   -7.6814    1.8188   26.9581 C   0  0  0  0  0  0  0  0  0  0  0  0
   -8.6377    1.9131   25.9324 C   0  0  0  0  0  0  0  0  0  0  0  0
   -9.1866    3.0673   25.6037 C   0  0  0  0  0  0  0  0  0  0  0  0
   -8.8394    4.1752   26.2513 C   0  0  0  0  0  0  0  0  0  0  0  0
   -8.2486    6.4747   27.5719 N   0  0  0  0  0  0  0  0  0  0  0  0
   -9.0953    6.6391   26.5260 C   0  0  0  0  0  0  0  0  0  0  0  0
   -9.4505    5.4775   25.8556 C   0  0  0  0  0  0  0  0  0  0  0  0
   -7.0296    0.5294   27.2729 C   0  0  0  0  0  0  0  0  0  0  0  0
   -7.6525   -0.6928   27.1319 C   0  0  0  0  0  0  0  0  0  0  0  0
   -5.6547    0.5488   27.7290 C   0  0  0  0  0  0  0  0  0  0  0  0
   -4.9867   -0.4799   28.2586 C   0  0  0  0  0  0  0  0  0  0  0  0
   -5.6428   -1.6935   28.2229 C   0  0  0  0  0  0  0  0  0  0  0  0
   -6.9829   -1.8013   27.7425 C   0  0  0  0  0  0  0  0  0  0  0  0
   -3.6664   -0.3086   28.8678 C   0  0  0  0  0  0  0  0  0  0  0  0
   -2.7613   -0.7944   28.9177 N   0  0  0  0  0  0  0  0  0  0  0  0
  4 11  1  0
 14 17  1  0
 17 18  3  0
  1  2  2  0
  2  8  1  0
  8  9  2  0
  9 10  1  0
 10  7  2  0
 11 12  2  0
 12 16  1  0
 16 15  2  0
 15 14  1  0
 14 13  2  0
 13 11  1  0
  1  3  1  0
  3  4  2  0
  4  5  1  0
  5  6  2  0
  6  7  1  0
  7  1  1  0
M  END
$$$$
