No_3270-complexes_sdf/6BKW-FPZ/2024-09-17-14-21-01/
     RDKit          3D

 40 44  0  0  0  0  0  0  0  0999 V2000
   -7.2496    3.8871   27.4508 C   0  0  0  0  0  0  0  0  0  0  0  0
   -7.9379    4.9063   27.8518 C   0  0  0  0  0  0  0  0  0  0  0  0
   -7.4895    6.2027   27.7481 C   0  0  0  0  0  0  0  0  0  0  0  0
   -7.8057    2.6324   27.3137 C   0  0  0  0  0  0  0  0  0  0  0  0
   -9.1872    2.4678   27.5434 C   0  0  0  0  0  0  0  0  0  0  0  0
   -9.7707    1.1571   27.4183 C   0  0  0  0  0  0  0  0  0  0  0  0
   -9.9270    3.5128   28.1114 C   0  0  0  0  0  0  0  0  0  0  0  0
   -9.3809    4.8089   28.1575 C   0  0  0  0  0  0  0  0  0  0  0  0
   -9.0526    0.1102   27.1241 C   0  0  0  0  0  0  0  0  0  0  0  0
   -7.6661    0.3135   26.8364 C   0  0  0  0  0  0  0  0  0  0  0  0
   -7.0617    1.5043   26.9270 C   0  0  0  0  0  0  0  0  0  0  0  0
  -11.3609    3.3554   28.4461 C   0  0  0  0  0  0  0  0  0  0  0  0
  -12.2840    4.3184   28.2686 C   0  0  0  0  0  0  0  0  0  0  0  0
  -13.6059    4.2352   28.6327 C   0  0  0  0  0  0  0  0  0  0  0  0
  -14.5041    5.2252   28.3577 C   0  0  0  0  0  0  0  0  0  0  0  0
  -15.3199    5.7220   28.0600 C   0  0  0  0  0  0  0  0  0  0  0  0
  -16.2059    6.6514   27.4646 C   0  0  0  0  0  0  0  0  0  0  0  0
   -6.8514   -0.8908   26.4358 C   0  0  2  0  0  0  0  0  0  0  0  0
   -6.0009   -1.4211   27.3166 C   0  0  0  0  0  0  0  0  0  0  0  0
   -5.0281   -1.2588   27.6362 C   0  0  0  0  0  0  0  0  0  0  0  0
   -4.1382   -1.3903   28.5040 C   0  0  0  0  0  0  0  0  0  0  0  0
   -4.0589   -0.9375   29.6956 C   0  0  0  0  0  0  0  0  0  0  0  0
   -3.0009   -1.0778   30.7181 C   0  0  0  0  0  0  0  0  0  0  0  0
   -1.8675   -1.6783   30.2400 C   0  0  0  0  0  0  0  0  0  0  0  0
   -1.7588   -2.0528   28.9569 C   0  0  0  0  0  0  0  0  0  0  0  0
   -2.7806   -1.8758   28.1085 C   0  0  0  0  0  0  0  0  0  0  0  0
   -7.0617   -1.1924   25.0944 C   0  0  0  0  0  0  0  0  0  0  0  0
   -6.5562   -2.8652   27.5965 C   0  0  0  0  0  0  0  0  0  0  0  0
   -6.0533   -3.7649   28.1666 C   0  0  0  0  0  0  0  0  0  0  0  0
   -6.7629   -4.9698   28.5030 C   0  0  0  0  0  0  0  0  0  0  0  0
   -7.9963   -5.0725   27.9790 C   0  0  0  0  0  0  0  0  0  0  0  0
   -8.6059   -4.1057   27.2761 C   0  0  0  0  0  0  0  0  0  0  0  0
   -7.9171   -2.9800   27.1415 C   0  0  0  0  0  0  0  0  0  0  0  0
   -3.1450   -0.5188   32.0956 C   0  0  0  0  0  0  0  0  0  0  0  0
   -3.8459    0.3544   32.3247 O   0  0  0  0  0  0  0  0  0  0  0  0
   -2.2448   -0.9927   32.9569 O   0  0  0  0  0  0  0  0  0  0  0  0
   -5.8813   -0.8607   24.2543 C   0  0  0  0  0  0  0  0  0  0  0  0
   -6.1014   -1.0295   22.7874 C   0  0  0  0  0  0  0  0  0  0  0  0
   -7.2622   -1.8220   22.5292 C   0  0  0  0  0  0  0  0  0  0  0  0
   -8.0637   -1.7394   24.2724 C   0  0  0  0  0  0  0  0  0  0  0  0
  2  3  1  0
  7 12  1  0
 12 13  2  3
 13 14  1  0
 14 15  2  3
 15 16  1  0
 16 17  2  0
 10 18  1  0
 18 19  1  0
 19 20  2  3
 20 21  1  0
 18 27  1  6
 19 28  1  0
 23 34  1  0
 34 35  1  0
 34 36  2  0
 27 37  1  0
 37 38  2  0
 38 39  1  0
 27 40  1  0
 39 40  1  0
 28 29  2  0
 29 30  1  0
 30 31  2  0
 31 32  1  0
 32 33  2  0
 33 28  1  0
  5  6  2  0
  6  9  1  0
  9 10  2  0
 10 11  1  0
 11  4  2  0
  1  2  2  0
  2  8  1  0
  8  7  2  0
  7  5  1  0
  5  4  1  0
  4  1  1  0
 21 22  2  0
 22 23  1  0
 23 24  2  0
 24 25  1  0
 25 26  2  0
 26 21  1  0
M  END
$$$$
