No_3863-complexes_sdf/6BKW-FPZ/2024-09-17-14-21-01/
     RDKit          3D

 20 22  0  0  0  0  0  0  0  0999 V2000
   -7.9040    3.9820   27.1177 C   0  0  0  0  0  0  0  0  0  0  0  0
   -7.8663    4.8694   27.9238 C   0  0  0  0  0  0  0  0  0  0  0  0
   -9.0491    3.8523   26.2542 C   0  0  0  0  0  0  0  0  0  0  0  0
   -8.7661    5.9491   27.9690 C   0  0  0  0  0  0  0  0  0  0  0  0
   -9.9295    4.8502   26.2323 C   0  0  0  0  0  0  0  0  0  0  0  0
   -9.8077    5.9288   27.0933 C   0  0  0  0  0  0  0  0  0  0  0  0
   -7.0120    2.8934   27.1747 N   0  0  0  0  0  0  0  0  0  0  0  0
   -7.2911    1.5905   26.8161 C   0  0  0  0  0  0  0  0  0  0  0  0
   -6.3069    0.6382   27.1886 C   0  0  0  0  0  0  0  0  0  0  0  0
   -5.1320    1.0887   27.7964 C   0  0  0  0  0  0  0  0  0  0  0  0
   -4.9611    2.4964   28.0835 C   0  0  0  0  0  0  0  0  0  0  0  0
   -5.8457    3.2991   27.8505 C   0  0  0  0  0  0  0  0  0  0  0  0
   -4.0874    0.1159   28.1681 C   0  0  0  0  0  0  0  0  0  0  0  0
   -4.3451   -1.0099   28.6380 C   0  0  0  0  0  0  0  0  0  0  0  0
   -3.4651   -1.8010   29.2181 C   0  0  0  0  0  0  0  0  0  0  0  0
   -2.0815   -1.4555   29.2176 C   0  0  0  0  0  0  0  0  0  0  0  0
   -1.7306   -0.2123   28.6335 C   0  0  0  0  0  0  0  0  0  0  0  0
   -2.6969    0.6201   28.1880 C   0  0  0  0  0  0  0  0  0  0  0  0
   -8.3101    1.2548   26.3144 O   0  0  0  0  0  0  0  0  0  0  0  0
  -10.9326    4.8412   25.3560 F   0  0  0  0  0  0  0  0  0  0  0  0
  1  7  1  0
  7  8  1  0
  8  9  1  0
 10 11  1  0
  7 12  1  0
 10 13  1  0
  8 19  2  0
  5 20  1  0
  9 10  1  0
 11 12  1  0
 13 14  2  0
 14 15  1  0
 15 16  2  0
 16 17  1  0
 17 18  2  0
 18 13  1  0
  1  2  2  0
  2  4  1  0
  4  6  2  0
  6  5  1  0
  5  3  2  0
  3  1  1  0
M  END
$$$$
