No_3038-complexes_sdf/6BKW-FPZ/2024-09-17-14-21-01/
     RDKit          3D

 21 23  0  0  0  0  0  0  0  0999 V2000
   -7.9040    3.9820   27.1177 C   0  0  0  0  0  0  0  0  0  0  0  0
   -9.0711    4.3164   27.0630 C   0  0  0  0  0  0  0  0  0  0  0  0
   -9.5182    5.5541   27.5777 C   0  0  0  0  0  0  0  0  0  0  0  0
   -7.4468    2.6843   26.6499 C   0  0  0  0  0  0  0  0  0  0  0  0
   -8.3856    1.7878   26.2216 C   0  0  0  0  0  0  0  0  0  0  0  0
   -9.6812    2.2328   26.0889 C   0  0  0  0  0  0  0  0  0  0  0  0
  -10.0147    3.4312   26.5259 C   0  0  0  0  0  0  0  0  0  0  0  0
   -7.9132    0.4733   25.8127 C   0  0  0  0  0  0  0  0  0  0  0  0
   -7.3372   -0.3146   26.4746 O   0  0  0  0  0  0  0  0  0  0  0  0
   -8.1919    0.1459   24.5438 O   0  0  0  0  0  0  0  0  0  0  0  0
   -8.5850    6.6683   27.4602 C   0  0  0  0  0  0  0  0  0  0  0  0
   -7.2906    6.3582   27.0943 C   0  0  0  0  0  0  0  0  0  0  0  0
   -6.8674    5.0364   27.1072 C   0  0  0  0  0  0  0  0  0  0  0  0
  -11.4575    3.8329   26.3435 C   0  0  0  0  0  0  0  0  0  0  0  0
  -12.2874    3.7740   27.4865 C   0  0  0  0  0  0  0  0  0  0  0  0
  -11.8172    3.4338   28.6712 C   0  0  0  0  0  0  0  0  0  0  0  0
  -12.6898    3.2558   29.8727 C   0  0  0  0  0  0  0  0  0  0  0  0
  -13.9936    3.7009   29.8041 C   0  0  0  0  0  0  0  0  0  0  0  0
  -13.6818    4.1617   27.3534 C   0  0  0  0  0  0  0  0  0  0  0  0
  -14.4804    4.1699   28.5477 C   0  0  0  0  0  0  0  0  0  0  0  0
  -11.8564    4.1632   25.2240 O   0  0  0  0  0  0  0  0  0  0  0  0
  5  8  1  0
  8  9  2  0
  8 10  1  0
  7 14  1  0
 14 15  1  0
 14 21  2  0
 15 16  2  0
 16 17  1  0
 17 18  2  0
 18 20  1  0
 20 19  2  0
 19 15  1  0
  2  3  2  0
  3 11  1  0
 11 12  2  0
 12 13  1  0
 13  1  2  0
  1  2  1  0
  2  7  1  0
  7  6  2  0
  6  5  1  0
  5  4  2  0
  4  1  1  0
M  END
$$$$
