No_3274-complexes_sdf/6BKW-FPZ/2024-09-17-14-21-01/
     RDKit          3D

 18 19  0  0  0  0  0  0  0  0999 V2000
   -7.9040    3.9820   27.1177 C   0  0  0  0  0  0  0  0  0  0  0  0
   -8.2057    2.8231   26.8733 C   0  0  0  0  0  0  0  0  0  0  0  0
   -8.7463    4.9537   27.6708 C   0  0  0  0  0  0  0  0  0  0  0  0
   -8.3921    6.3606   27.8466 C   0  0  0  0  0  0  0  0  0  0  0  0
   -9.5482    2.3521   27.1946 C   0  0  0  0  0  0  0  0  0  0  0  0
  -10.4264    3.2507   27.7616 C   0  0  0  0  0  0  0  0  0  0  0  0
  -10.0702    4.5620   28.0189 C   0  0  0  0  0  0  0  0  0  0  0  0
   -7.1574    6.7870   27.1658 C   0  0  0  0  0  0  0  0  0  0  0  0
   -9.8758    0.9086   27.0465 C   0  0  0  0  0  0  0  0  0  0  0  0
  -10.5652    0.5686   25.9613 C   0  0  0  0  0  0  0  0  0  0  0  0
  -11.1486    1.1325   25.1720 C   0  0  0  0  0  0  0  0  0  0  0  0
  -11.7427    0.5994   23.9194 C   0  0  0  0  0  0  0  0  0  0  0  0
  -11.5634   -0.7499   23.7160 C   0  0  0  0  0  0  0  0  0  0  0  0
  -10.4022   -0.9384   25.6331 C   0  0  0  0  0  0  0  0  0  0  0  0
  -10.9298   -1.4881   24.5805 C   0  0  0  0  0  0  0  0  0  0  0  0
   -9.5206    0.1561   28.1029 O   0  0  0  0  0  0  0  0  0  0  0  0
   -7.4829    8.1573   26.6655 C   0  0  0  0  0  0  0  0  0  0  0  0
  -11.9726    2.7263   28.3089 Cl  0  0  0  0  0  0  0  0  0  0  0  0
  3  4  1  0
  4  8  1  0
  5  9  1  0
  9 10  1  0
  9 16  2  0
  8 17  1  0
  6 18  1  0
 10 11  2  0
 11 12  1  0
 12 13  2  0
 13 15  1  0
 15 14  2  0
 14 10  1  0
  1  2  2  0
  2  5  1  0
  5  6  2  0
  6  7  1  0
  7  3  2  0
  3  1  1  0
M  END
$$$$
