No_3185-complexes_sdf/6BKW-FPZ/2024-09-17-14-21-01/
     RDKit          3D

 10 10  0  0  0  0  0  0  0  0999 V2000
   -7.7129    4.2099   27.0854 C   0  0  0  0  0  0  0  0  0  0  0  0
   -8.9133    4.4736   27.0998 C   0  0  0  0  0  0  0  0  0  0  0  0
   -9.7135    3.9633   26.0300 C   0  0  0  0  0  0  0  0  0  0  0  0
   -6.8655    4.8824   28.1822 C   0  0  0  0  0  0  0  0  0  0  0  0
  -10.8856    4.5824   25.6430 C   0  0  0  0  0  0  0  0  0  0  0  0
   -7.5462    5.8742   28.8871 C   0  0  0  0  0  0  0  0  0  0  0  0
  -11.5855    4.0206   24.5686 C   0  0  0  0  0  0  0  0  0  0  0  0
   -9.2093    5.6026   27.9353 C   0  0  0  0  0  0  0  0  0  0  0  0
  -11.1311    2.9273   23.8870 C   0  0  0  0  0  0  0  0  0  0  0  0
   -9.9824    2.3133   24.3125 C   0  0  0  0  0  0  0  0  0  0  0  0
  1  2  1  0
  2  3  2  3
  1  4  1  0
  3  5  1  0
  4  6  2  0
  5  7  2  3
  2  8  1  0
  6  8  1  0
  7  9  1  0
  9 10  2  0
M  END
$$$$
