No_3773-complexes_sdf/6BKW-FPZ/2024-09-17-14-21-01/
     RDKit          3D

 34 37  0  0  0  0  0  0  0  0999 V2000
   -7.9040    3.9820   27.1177 C   0  0  0  0  0  0  0  0  0  0  0  0
   -8.2057    2.8231   26.8733 C   0  0  0  0  0  0  0  0  0  0  0  0
   -9.2962    2.4021   26.1155 C   0  0  0  0  0  0  0  0  0  0  0  0
   -8.7358    5.0662   26.5917 C   0  0  0  0  0  0  0  0  0  0  0  0
   -9.7618    4.7023   25.7546 C   0  0  0  0  0  0  0  0  0  0  0  0
  -10.0066    3.4105   25.4922 C   0  0  0  0  0  0  0  0  0  0  0  0
   -8.3936    6.4769   26.8844 C   0  0  0  0  0  0  0  0  0  0  0  0
   -8.6020    7.4177   26.1293 N   0  0  0  0  0  0  0  0  0  0  0  0
   -7.6696    6.6162   28.0196 N   0  0  0  0  0  0  0  0  0  0  0  0
   -7.3585    1.6532   27.4799 C   0  0  0  0  0  0  0  0  0  0  0  0
   -5.9925    1.8940   27.7815 C   0  0  0  0  0  0  0  0  0  0  0  0
   -5.1990    0.8389   28.3028 C   0  0  0  0  0  0  0  0  0  0  0  0
   -5.4564   -0.2213   28.1795 C   0  0  0  0  0  0  0  0  0  0  0  0
   -7.6847    0.3220   27.3718 C   0  0  0  0  0  0  0  0  0  0  0  0
   -6.8427   -0.6432   27.8500 C   0  0  0  0  0  0  0  0  0  0  0  0
   -3.9431    1.3230   28.6748 F   0  0  0  0  0  0  0  0  0  0  0  0
  -11.0967    3.1001   24.5542 C   0  0  0  0  0  0  0  0  0  0  0  0
  -10.8028    2.2849   23.5635 C   0  0  0  0  0  0  0  0  0  0  0  0
  -11.5314    2.1444   22.4612 C   0  0  0  0  0  0  0  0  0  0  0  0
  -12.6965    2.8898   22.3186 C   0  0  0  0  0  0  0  0  0  0  0  0
  -12.4022    3.4129   24.7610 C   0  0  0  0  0  0  0  0  0  0  0  0
  -13.1746    3.5543   23.5491 C   0  0  0  0  0  0  0  0  0  0  0  0
   -7.3004   -2.0488   27.8658 C   0  0  0  0  0  0  0  0  0  0  0  0
   -8.4809   -2.2599   27.7734 C   0  0  0  0  0  0  0  0  0  0  0  0
   -9.0387   -3.5521   27.9496 C   0  0  0  0  0  0  0  0  0  0  0  0
   -8.1477   -4.5666   28.1397 C   0  0  0  0  0  0  0  0  0  0  0  0
   -6.4516   -3.1668   28.2108 C   0  0  0  0  0  0  0  0  0  0  0  0
   -6.8692   -4.3625   28.2962 C   0  0  0  0  0  0  0  0  0  0  0  0
   -5.9368   -5.4769   28.5760 C   0  0  0  0  0  0  0  0  0  0  0  0
   -5.9456   -6.0905   29.5270 O   0  0  0  0  0  0  0  0  0  0  0  0
   -4.8079   -5.3283   27.8491 O   0  0  0  0  0  0  0  0  0  0  0  0
  -10.5031   -3.7621   27.7646 C   0  0  0  0  0  0  0  0  0  0  0  0
  -11.1794   -3.0062   27.3959 O   0  0  0  0  0  0  0  0  0  0  0  0
  -10.8694   -4.7585   28.4836 O   0  0  0  0  0  0  0  0  0  0  0  0
  4  7  1  0
  7  8  2  0
  7  9  1  0
  2 10  1  0
 12 16  1  0
  6 17  1  0
 15 23  1  0
 28 29  1  0
 29 30  2  0
 29 31  1  0
 25 32  1  0
 32 33  2  0
 32 34  1  0
 17 18  2  0
 18 19  1  0
 19 20  2  0
 20 22  1  0
 22 21  2  0
 21 17  1  0
  1  2  2  0
  2  3  1  0
  3  6  2  0
  6  5  1  0
  5  4  2  0
  4  1  1  0
 23 24  2  0
 24 25  1  0
 25 26  2  0
 26 28  1  0
 28 27  2  0
 27 23  1  0
 10 11  2  0
 11 12  1  0
 12 13  2  0
 13 15  1  0
 15 14  2  0
 14 10  1  0
M  END
$$$$
