No_3710-complexes_sdf/6BKW-FPZ/2024-09-17-14-21-01/
     RDKit          3D

 15 16  0  0  0  0  0  0  0  0999 V2000
   -7.9040    3.9820   27.1177 C   0  0  0  0  0  0  0  0  0  0  0  0
   -8.2057    2.8231   26.8733 C   0  0  0  0  0  0  0  0  0  0  0  0
   -9.2962    2.4021   26.1155 C   0  0  0  0  0  0  0  0  0  0  0  0
   -8.7358    5.0662   26.5917 C   0  0  0  0  0  0  0  0  0  0  0  0
   -9.7618    4.7023   25.7546 C   0  0  0  0  0  0  0  0  0  0  0  0
  -10.0066    3.4105   25.4922 C   0  0  0  0  0  0  0  0  0  0  0  0
   -8.3936    6.4769   26.8843 C   0  0  0  0  0  0  0  0  0  0  0  0
   -8.6672    7.3248   26.1418 F   0  0  0  0  0  0  0  0  0  0  0  0
   -8.9022    6.6135   28.1638 F   0  0  0  0  0  0  0  0  0  0  0  0
   -7.0220    6.5735   27.1791 F   0  0  0  0  0  0  0  0  0  0  0  0
   -7.3503    1.6665   27.4956 C   0  0  0  0  0  0  0  0  0  0  0  0
   -7.7511    0.4126   27.4312 N   0  0  0  0  0  0  0  0  0  0  0  0
   -6.0742    1.8859   27.8402 N   0  0  0  0  0  0  0  0  0  0  0  0
   -6.6927   -0.2434   28.0094 C   0  0  0  0  0  0  0  0  0  0  0  0
   -5.6302    0.6815   28.2011 C   0  0  0  0  0  0  0  0  0  0  0  0
  4  7  1  0
  7  8  1  0
  7  9  1  0
  7 10  1  0
  2 11  1  0
 11 12  2  0
 11 13  1  0
 12 14  1  0
 13 15  2  0
 14 15  2  0
  1  2  2  0
  2  3  1  0
  3  6  2  0
  6  5  1  0
  5  4  2  0
  4  1  1  0
M  END
$$$$
