No_3238-complexes_sdf/6BKW-FPZ/2024-09-17-14-21-01/
     RDKit          3D

 13 14  0  0  0  0  0  0  0  0999 V2000
   -7.7129    4.2099   27.0854 C   0  0  0  0  0  0  0  0  0  0  0  0
   -7.7814    5.1722   27.8972 C   0  0  0  0  0  0  0  0  0  0  0  0
   -7.3155    2.9699   27.6145 C   0  0  0  0  0  0  0  0  0  0  0  0
   -7.9010    1.7962   27.2023 C   0  0  0  0  0  0  0  0  0  0  0  0
   -8.9847    1.8780   26.3510 C   0  0  0  0  0  0  0  0  0  0  0  0
   -9.5420    0.6556   25.8878 C   0  0  0  0  0  0  0  0  0  0  0  0
   -8.8886    4.0370   26.2643 C   0  0  0  0  0  0  0  0  0  0  0  0
   -9.3990    2.9737   25.7880 C   0  0  0  0  0  0  0  0  0  0  0  0
  -10.2879    0.5016   25.1403 C   0  0  0  0  0  0  0  0  0  0  0  0
  -10.7285    1.7518   24.3969 C   0  0  0  0  0  0  0  0  0  0  0  0
  -10.3505    2.9576   24.7811 C   0  0  0  0  0  0  0  0  0  0  0  0
   -8.1307    6.5156   27.5192 N   0  0  0  0  0  0  0  0  0  0  0  0
   -9.1068    6.7109   26.7353 C   0  0  0  0  0  0  0  0  0  0  0  0
  1  2  1  0
  2 12  2  3
 12 13  1  0
  5  6  1  0
  6  9  2  0
  9 10  1  0
 10 11  2  0
 11  8  1  0
  1  3  2  0
  3  4  1  0
  4  5  2  0
  5  8  1  0
  8  7  2  0
  7  1  1  0
M  END
$$$$
