No_3888-complexes_sdf/6BKW-FPZ/2024-09-17-14-21-01/
     RDKit          3D

 22 25  0  0  0  0  0  0  0  0999 V2000
   -7.9040    3.9820   27.1177 C   0  0  0  0  0  0  0  0  0  0  0  0
   -7.8663    4.8694   27.9238 C   0  0  0  0  0  0  0  0  0  0  0  0
   -7.4698    2.6989   27.4277 C   0  0  0  0  0  0  0  0  0  0  0  0
   -7.9683    1.5964   26.8266 C   0  0  0  0  0  0  0  0  0  0  0  0
   -8.9447    1.7923   25.8533 C   0  0  0  0  0  0  0  0  0  0  0  0
   -9.4405    2.9988   25.5757 C   0  0  0  0  0  0  0  0  0  0  0  0
   -8.9424    4.1117   26.2388 C   0  0  0  0  0  0  0  0  0  0  0  0
   -8.3104    6.1970   27.6444 N   0  0  0  0  0  0  0  0  0  0  0  0
   -9.2017    6.5264   26.7040 C   0  0  0  0  0  0  0  0  0  0  0  0
   -9.5492    5.4018   25.9329 C   0  0  0  0  0  0  0  0  0  0  0  0
   -7.3783    0.2539   27.0964 C   0  0  0  0  0  0  0  0  0  0  0  0
   -6.0866    0.1289   27.5719 C   0  0  0  0  0  0  0  0  0  0  0  0
   -5.5500   -1.0620   27.9572 C   0  0  0  0  0  0  0  0  0  0  0  0
   -4.2274   -1.1143   28.5218 C   0  0  0  0  0  0  0  0  0  0  0  0
   -3.4654    0.0756   28.6555 C   0  0  0  0  0  0  0  0  0  0  0  0
   -4.0675    1.3054   28.3254 C   0  0  0  0  0  0  0  0  0  0  0  0
   -5.3100    1.3331   27.8252 C   0  0  0  0  0  0  0  0  0  0  0  0
   -8.3987   -0.5383   27.9068 C   0  0  0  0  0  0  0  0  0  0  0  0
   -7.2817   -0.5092   25.7906 C   0  0  0  0  0  0  0  0  0  0  0  0
   -8.0312   -1.5054   25.3890 C   0  0  0  0  0  0  0  0  0  0  0  0
   -8.9733   -2.0110   26.2198 C   0  0  0  0  0  0  0  0  0  0  0  0
   -9.2004   -1.4849   27.5075 C   0  0  0  0  0  0  0  0  0  0  0  0
  4 11  1  0
 11 12  1  0
 11 18  1  0
 11 19  1  0
 20 21  1  0
 18 22  1  0
 22 21  1  0
 20 19  1  0
 12 13  2  0
 13 14  1  0
 14 15  2  0
 15 16  1  0
 16 17  2  0
 17 12  1  0
  1  2  2  0
  2  8  1  0
  8  9  2  0
  9 10  1  0
 10  7  2  0
  1  3  1  0
  3  4  2  0
  4  5  1  0
  5  6  2  0
  6  7  1  0
  7  1  1  0
M  END
$$$$
