No_3469-complexes_sdf/6BKW-FPZ/2024-09-17-14-21-01/
     RDKit          3D

 34 35  0  0  0  0  0  0  0  0999 V2000
   -7.2496    3.8871   27.4508 C   0  0  0  0  0  0  0  0  0  0  0  0
   -7.9379    4.9063   27.8518 C   0  0  0  0  0  0  0  0  0  0  0  0
   -9.3376    4.8647   27.7795 C   0  0  0  0  0  0  0  0  0  0  0  0
   -7.8544    2.6294   27.0414 C   0  0  0  0  0  0  0  0  0  0  0  0
   -9.2852    2.6570   27.0666 C   0  0  0  0  0  0  0  0  0  0  0  0
  -10.0126    3.7528   27.4890 C   0  0  0  0  0  0  0  0  0  0  0  0
  -11.4946    3.6924   27.5201 C   0  0  0  0  0  0  0  0  0  0  0  0
  -12.0181    2.6419   28.0792 C   0  0  0  0  0  0  0  0  0  0  0  0
  -13.3310    2.5853   28.5250 C   0  0  0  0  0  0  0  0  0  0  0  0
  -13.9327    3.5204   28.4015 C   0  0  0  0  0  0  0  0  0  0  0  0
  -13.5774    4.7744   27.8388 C   0  0  0  0  0  0  0  0  0  0  0  0
  -12.1951    4.8622   27.5080 C   0  0  0  0  0  0  0  0  0  0  0  0
   -7.1381    1.4698   26.7367 C   0  0  0  0  0  0  0  0  0  0  0  0
   -6.0521    1.2141   27.3641 O   0  0  0  0  0  0  0  0  0  0  0  0
   -7.4292    0.8118   25.6577 O   0  0  0  0  0  0  0  0  0  0  0  0
   -7.2695    6.0519   28.2078 O   0  0  0  0  0  0  0  0  0  0  0  0
   -5.5215   -0.0827   27.5035 C   0  0  0  0  0  0  0  0  0  0  0  0
   -4.3260   -0.1858   27.0367 C   0  0  0  0  0  0  0  0  0  0  0  0
   -3.3444    0.7294   27.5141 C   0  0  0  0  0  0  0  0  0  0  0  0
   -4.3173   -0.1569   25.4773 C   0  0  0  0  0  0  0  0  0  0  0  0
   -3.8188   -1.6665   27.3546 C   0  0  0  0  0  0  0  0  0  0  0  0
  -13.8405    1.2215   29.0737 C   0  0  0  0  0  0  0  0  0  0  0  0
  -13.7528    0.1816   28.7669 O   0  0  0  0  0  0  0  0  0  0  0  0
  -14.5270    1.3702   30.3292 O   0  0  0  0  0  0  0  0  0  0  0  0
   -6.2329   -0.7478   28.3189 O   0  0  0  0  0  0  0  0  0  0  0  0
  -14.7852    0.4009   31.1195 C   0  0  0  0  0  0  0  0  0  0  0  0
  -14.2100    0.4338   32.3634 C   0  0  0  0  0  0  0  0  0  0  0  0
  -14.2872    1.6686   33.1213 C   0  0  0  0  0  0  0  0  0  0  0  0
  -14.0219    2.7178   32.6513 C   0  0  0  0  0  0  0  0  0  0  0  0
  -13.5460    3.8714   33.4609 C   0  0  0  0  0  0  0  0  0  0  0  0
  -13.3432    3.6706   34.8014 C   0  0  0  0  0  0  0  0  0  0  0  0
  -12.8850    4.7504   35.6323 C   0  0  0  0  0  0  0  0  0  0  0  0
  -12.8760    5.9450   35.0807 C   0  0  0  0  0  0  0  0  0  0  0  0
  -13.2313    6.1618   33.7543 C   0  0  0  0  0  0  0  0  0  0  0  0
  6  7  1  0
  4 13  1  0
 13 14  1  0
 13 15  2  0
  2 16  1  0
 14 17  1  0
 17 18  1  0
 18 19  1  0
 18 20  1  0
 18 21  1  0
  9 22  1  0
 22 23  2  0
 22 24  1  0
 17 25  2  0
 24 26  1  0
 26 27  1  0
 27 28  1  0
 28 29  1  0
 29 30  2  3
 30 31  1  0
 31 32  1  0
 32 33  2  3
 33 34  1  0
  1  2  2  0
  2  3  1  0
  3  6  2  0
  6  5  1  0
  5  4  2  0
  4  1  1  0
  7  8  2  0
  8  9  1  0
  9 10  2  0
 10 11  1  0
 11 12  2  0
 12  7  1  0
M  END
$$$$
