No_3755-complexes_sdf/6BKW-FPZ/2024-09-17-14-21-01/
     RDKit          3D

 29 32  0  0  0  0  0  0  0  0999 V2000
   -7.2496    3.8871   27.4508 C   0  0  0  0  0  0  0  0  0  0  0  0
   -7.6161    2.7143   27.1523 C   0  0  0  0  0  0  0  0  0  0  0  0
   -6.9719    1.5838   27.5324 C   0  0  0  0  0  0  0  0  0  0  0  0
   -7.4590    0.2827   27.2615 C   0  0  0  0  0  0  0  0  0  0  0  0
   -8.8629    2.3938   26.5063 C   0  0  0  0  0  0  0  0  0  0  0  0
   -9.3223    1.1948   26.1623 C   0  0  0  0  0  0  0  0  0  0  0  0
   -8.5674    0.0945   26.6187 C   0  0  0  0  0  0  0  0  0  0  0  0
   -8.0621    5.0458   27.1866 C   0  0  0  0  0  0  0  0  0  0  0  0
   -7.6770    6.3660   27.6921 C   0  0  0  0  0  0  0  0  0  0  0  0
   -9.2574    4.9620   26.4868 C   0  0  0  0  0  0  0  0  0  0  0  0
   -9.6629    3.6255   26.0776 C   0  0  0  0  0  0  0  0  0  0  0  0
   -8.4334    7.3822   27.4050 F   0  0  0  0  0  0  0  0  0  0  0  0
   -6.4488    6.6897   27.2278 F   0  0  0  0  0  0  0  0  0  0  0  0
   -7.3833    6.2532   28.9546 F   0  0  0  0  0  0  0  0  0  0  0  0
   -6.6445   -0.9017   27.8043 C   0  0  0  0  0  0  0  0  0  0  0  0
   -5.2978   -0.7281   28.0556 C   0  0  0  0  0  0  0  0  0  0  0  0
   -4.8289    0.6322   28.1562 C   0  0  0  0  0  0  0  0  0  0  0  0
   -5.5583    1.7036   27.9942 C   0  0  0  0  0  0  0  0  0  0  0  0
   -3.5638    0.8185   28.6612 F   0  0  0  0  0  0  0  0  0  0  0  0
  -10.8897    3.5296   25.3277 C   0  0  0  0  0  0  0  0  0  0  0  0
  -12.0765    3.4541   25.9264 C   0  0  0  0  0  0  0  0  0  0  0  0
  -13.2570    3.4816   25.2545 C   0  0  0  0  0  0  0  0  0  0  0  0
  -10.7950    3.4914   23.9444 C   0  0  0  0  0  0  0  0  0  0  0  0
  -11.9129    3.5599   23.1712 C   0  0  0  0  0  0  0  0  0  0  0  0
  -13.1724    3.6044   23.8382 C   0  0  0  0  0  0  0  0  0  0  0  0
   -9.1728   -1.2478   26.3689 C   0  0  0  0  0  0  0  0  0  0  0  0
  -10.0559   -1.1454   25.8308 F   0  0  0  0  0  0  0  0  0  0  0  0
   -9.4151   -1.7655   27.6579 F   0  0  0  0  0  0  0  0  0  0  0  0
   -8.2712   -2.0455   25.8493 F   0  0  0  0  0  0  0  0  0  0  0  0
  8  9  1  0
  9 12  1  0
  9 13  1  0
  9 14  1  0
 17 19  1  0
 11 20  1  0
  7 26  1  0
 26 27  1  0
 26 28  1  0
 26 29  1  0
  4 15  2  0
 15 16  1  0
 16 17  2  0
 17 18  1  0
 18  3  2  0
  1  2  2  0
  5 11  2  0
 11 10  1  0
 10  8  2  0
  8  1  1  0
 20 21  2  0
 21 22  1  0
 22 25  2  0
 25 24  1  0
 24 23  2  0
 23 20  1  0
  2  3  1  0
  3  4  1  0
  4  7  1  0
  7  6  2  0
  6  5  1  0
  5  2  1  0
M  END
$$$$
