No_3291-complexes_sdf/6BKW-FPZ/2024-09-17-14-21-01/
     RDKit          3D

 24 26  0  0  0  0  0  0  0  0999 V2000
   -7.7129    4.2099   27.0854 C   0  0  0  0  0  0  0  0  0  0  0  0
   -8.2112    3.0637   26.9225 C   0  0  0  0  0  0  0  0  0  0  0  0
   -8.5108    5.3904   26.9436 C   0  0  0  0  0  0  0  0  0  0  0  0
   -7.9752    6.6981   27.2112 C   0  0  0  0  0  0  0  0  0  0  0  0
   -9.5213    2.8208   26.4688 C   0  0  0  0  0  0  0  0  0  0  0  0
  -10.2979    3.9327   26.2378 C   0  0  0  0  0  0  0  0  0  0  0  0
   -9.7894    5.2123   26.4395 C   0  0  0  0  0  0  0  0  0  0  0  0
   -7.1925    1.6286   27.2384 Cl  0  0  0  0  0  0  0  0  0  0  0  0
   -8.6383    7.7856   26.8061 N   0  0  0  0  0  0  0  0  0  0  0  0
   -6.8476    6.7720   27.7982 O   0  0  0  0  0  0  0  0  0  0  0  0
   -9.9816    1.4247   26.2543 C   0  0  0  0  0  0  0  0  0  0  0  0
   -9.7177    0.7664   25.1595 C   0  0  0  0  0  0  0  0  0  0  0  0
  -10.1386   -0.5793   24.9582 C   0  0  0  0  0  0  0  0  0  0  0  0
   -9.8630   -1.2139   23.7271 C   0  0  0  0  0  0  0  0  0  0  0  0
   -9.1534   -0.4996   22.6805 C   0  0  0  0  0  0  0  0  0  0  0  0
   -8.7605    0.8032   22.8592 C   0  0  0  0  0  0  0  0  0  0  0  0
   -8.9961    1.4466   24.0259 C   0  0  0  0  0  0  0  0  0  0  0  0
  -10.6988    0.8833   27.3710 C   0  0  0  0  0  0  0  0  0  0  0  0
  -11.5038    1.5917   28.2487 C   0  0  0  0  0  0  0  0  0  0  0  0
  -11.4361    2.9859   28.4179 C   0  0  0  0  0  0  0  0  0  0  0  0
  -12.4909    3.4955   29.3977 C   0  0  0  0  0  0  0  0  0  0  0  0
  -13.2997    2.6599   30.1063 C   0  0  0  0  0  0  0  0  0  0  0  0
  -12.4251    0.7539   29.0743 C   0  0  0  0  0  0  0  0  0  0  0  0
  -13.2653    1.3507   29.9155 C   0  0  0  0  0  0  0  0  0  0  0  0
  3  4  1  0
  2  8  1  0
  4  9  1  0
  4 10  2  0
  5 11  1  0
 11 18  1  0
 18 19  1  0
 11 12  1  0
 12 13  2  0
 13 14  1  0
 14 15  2  0
 15 16  1  0
 16 17  2  0
 17 12  1  0
  1  2  2  0
  2  5  1  0
  5  6  2  0
  6  7  1  0
  7  3  2  0
  3  1  1  0
 19 20  2  0
 20 21  1  0
 21 22  2  0
 22 24  1  0
 24 23  2  0
 23 19  1  0
M  END
$$$$
