No_3364-complexes_sdf/6BKW-FPZ/2024-09-17-14-21-01/
     RDKit          3D

 12 12  0  0  0  0  0  0  0  0999 V2000
   -7.9040    3.9820   27.1177 C   0  0  0  0  0  0  0  0  0  0  0  0
   -8.2057    2.8231   26.8733 C   0  0  0  0  0  0  0  0  0  0  0  0
   -8.7695    5.0740   26.7916 C   0  0  0  0  0  0  0  0  0  0  0  0
   -9.9618    4.7598   26.1630 C   0  0  0  0  0  0  0  0  0  0  0  0
   -9.4200    2.4524   26.2850 C   0  0  0  0  0  0  0  0  0  0  0  0
  -10.2590    3.4815   25.9250 C   0  0  0  0  0  0  0  0  0  0  0  0
   -8.4080    6.3773   27.0676 N   0  0  0  0  0  0  0  0  0  0  0  0
   -7.5350    7.2458   26.6799 C   0  0  0  0  0  0  0  0  0  0  0  0
   -7.2699    1.6556   27.2771 C   0  0  0  0  0  0  0  0  0  0  0  0
   -7.0280    0.5432   26.6533 Br  0  0  0  0  0  0  0  0  0  0  0  0
   -9.6211    7.1303   27.6779 C   0  0  0  0  0  0  0  0  0  0  0  0
   -6.3365    2.2057   28.0843 O   0  0  0  0  0  0  0  0  0  0  0  0
  3  7  1  0
  7  8  1  0
  2  9  1  0
  9 10  1  0
  7 11  1  0
  9 12  2  0
  1  2  2  0
  2  5  1  0
  5  6  2  0
  6  4  1  0
  4  3  2  0
  3  1  1  0
M  END
$$$$
