No_3565-complexes_sdf/6BKW-FPZ/2024-09-17-14-21-01/
     RDKit          3D

 13 13  0  0  0  0  0  0  0  0999 V2000
   -7.2496    3.8871   27.4508 C   0  0  0  0  0  0  0  0  0  0  0  0
   -7.6161    2.7143   27.1523 C   0  0  0  0  0  0  0  0  0  0  0  0
   -7.1618    1.8631   27.5233 C   0  0  0  0  0  0  0  0  0  0  0  0
   -8.0036    5.1085   27.2100 C   0  0  2  0  0  0  0  0  0  0  0  0
   -9.0765    5.1561   26.4023 C   0  0  0  0  0  0  0  0  0  0  0  0
   -9.5423    3.9740   25.8512 C   0  0  0  0  0  0  0  0  0  0  0  0
   -8.8464    2.7352   26.2620 C   0  0  0  0  0  0  0  0  0  0  0  0
   -6.6338    0.7377   27.0346 C   0  0  0  0  0  0  0  0  0  0  0  0
   -6.1013   -0.0670   27.3910 C   0  0  0  0  0  0  0  0  0  0  0  0
   -5.9928   -1.4154   26.9391 C   0  0  0  0  0  0  0  0  0  0  0  0
   -7.3981    6.6039   27.9571 Cl  0  0  0  0  0  0  0  0  0  0  0  0
   -6.4651   -1.6247   25.6348 C   0  0  0  0  0  0  0  0  0  0  0  0
   -7.1497   -0.6184   25.0183 C   0  0  0  0  0  0  0  0  0  0  0  0
  1  2  1  0
  2  3  2  3
  1  4  1  0
  4  5  1  0
  5  6  1  0
  2  7  1  0
  6  7  1  0
  3  8  1  0
  8  9  2  3
  9 10  1  0
  4 11  1  6
 10 12  2  3
 12 13  1  0
M  END
$$$$
