No_309-complexes_sdf/6BKW-FPZ/2024-09-17-14-21-01/
     RDKit          3D

 13 14  0  0  0  0  0  0  0  0999 V2000
   -7.7129    4.2099   27.0854 C   0  0  0  0  0  0  0  0  0  0  0  0
   -8.2112    3.0637   26.9225 C   0  0  0  0  0  0  0  0  0  0  0  0
   -9.4446    2.8304   26.1868 C   0  0  0  0  0  0  0  0  0  0  0  0
   -8.4697    5.3956   26.7238 C   0  0  0  0  0  0  0  0  0  0  0  0
   -9.6172    5.2111   25.9513 C   0  0  0  0  0  0  0  0  0  0  0  0
  -10.0424    3.9782   25.6873 C   0  0  0  0  0  0  0  0  0  0  0  0
   -7.5056    1.8167   27.4088 C   0  0  0  0  0  0  0  0  0  0  0  0
   -6.2319    1.8972   27.8053 N   0  0  0  0  0  0  0  0  0  0  0  0
   -5.5697    0.7500   28.1820 C   0  0  0  0  0  0  0  0  0  0  0  0
   -6.2045   -0.4233   28.0802 C   0  0  0  0  0  0  0  0  0  0  0  0
   -8.1739    0.5652   27.4057 C   0  0  0  0  0  0  0  0  0  0  0  0
   -7.5136   -0.5120   27.7703 C   0  0  0  0  0  0  0  0  0  0  0  0
   -4.2106    0.9585   28.4802 N   0  0  0  0  0  0  0  0  0  0  0  0
  2  7  1  0
  9 13  1  0
  7  8  2  0
  8  9  1  0
  9 10  2  0
 10 12  1  0
 12 11  2  0
 11  7  1  0
  1  2  2  0
  2  3  1  0
  3  6  2  0
  6  5  1  0
  5  4  2  0
  4  1  1  0
M  END
$$$$
