No_3065-complexes_sdf/6BKW-FPZ/2024-09-17-14-21-01/
     RDKit          3D

 12 11  0  0  0  0  0  0  0  0999 V2000
   -7.9040    3.9820   27.1177 C   0  0  0  0  0  0  0  0  0  0  0  0
   -7.8663    4.8694   27.9238 C   0  0  0  0  0  0  0  0  0  0  0  0
   -9.0806    3.1427   27.1220 C   0  0  0  0  0  0  0  0  0  0  0  0
   -8.9544    1.8782   26.5467 C   0  0  0  0  0  0  0  0  0  0  0  0
   -8.5076    6.0545   27.5968 C   0  0  0  0  0  0  0  0  0  0  0  0
   -7.9578    1.0658   26.7288 C   0  0  0  0  0  0  0  0  0  0  0  0
   -8.8332    6.3112   26.3274 C   0  0  0  0  0  0  0  0  0  0  0  0
   -7.2976    1.1207   27.7930 C   0  0  0  0  0  0  0  0  0  0  0  0
   -6.1077    0.2269   28.0851 C   0  0  0  0  0  0  0  0  0  0  0  0
   -4.9995    0.7105   28.7391 C   0  0  0  0  0  0  0  0  0  0  0  0
   -4.0382   -0.1810   29.2138 C   0  0  0  0  0  0  0  0  0  0  0  0
   -4.0351   -1.4623   28.8825 C   0  0  0  0  0  0  0  0  0  0  0  0
  1  2  1  0
  1  3  1  0
  3  4  1  0
  2  5  1  0
  4  6  1  0
  5  7  1  0
  6  8  2  3
  8  9  1  0
  9 10  1  0
 10 11  2  3
 11 12  1  0
M  END
$$$$
