No_3872-complexes_sdf/6BKW-FPZ/2024-09-17-14-21-01/
     RDKit          3D

 24 27  0  0  0  0  0  0  0  0999 V2000
   -7.9040    3.9820   27.1177 C   0  0  0  0  0  0  0  0  0  0  0  0
   -9.0711    4.3164   27.0630 C   0  0  0  0  0  0  0  0  0  0  0  0
   -9.5294    5.4517   27.7215 C   0  0  0  0  0  0  0  0  0  0  0  0
   -7.4336    2.7132   26.5681 C   0  0  0  0  0  0  0  0  0  0  0  0
   -8.3353    1.8569   26.0442 C   0  0  0  0  0  0  0  0  0  0  0  0
   -9.6477    2.2853   25.9146 C   0  0  0  0  0  0  0  0  0  0  0  0
  -10.0346    3.4497   26.4483 C   0  0  0  0  0  0  0  0  0  0  0  0
   -7.8750    0.5509   25.5918 C   0  0  0  0  0  0  0  0  0  0  0  0
   -7.0002   -0.0835   26.2676 N   0  0  0  0  0  0  0  0  0  0  0  0
   -7.2466   -1.0783   27.0244 C   0  0  0  0  0  0  0  0  0  0  0  0
   -8.4784   -1.5037   27.3030 C   0  0  0  0  0  0  0  0  0  0  0  0
   -8.7760   -2.5478   28.2607 C   0  0  0  0  0  0  0  0  0  0  0  0
   -7.7293   -3.0213   29.0403 C   0  0  0  0  0  0  0  0  0  0  0  0
   -6.4554   -2.5518   28.8935 C   0  0  0  0  0  0  0  0  0  0  0  0
   -6.1711   -1.5426   27.9810 C   0  0  0  0  0  0  0  0  0  0  0  0
   -6.9181    4.6900   27.8832 N   0  0  0  0  0  0  0  0  0  0  0  0
   -7.2503    5.8645   28.4714 C   0  0  0  0  0  0  0  0  0  0  0  0
   -8.5686    6.2468   28.3354 N   0  0  0  0  0  0  0  0  0  0  0  0
  -10.5296    1.4127   25.1040 C   0  0  0  0  0  0  0  0  0  0  0  0
  -10.1209    0.7890   24.0573 C   0  0  0  0  0  0  0  0  0  0  0  0
   -8.7644   -0.0818   24.6006 C   0  0  0  0  0  0  0  0  0  0  0  0
   -8.3845   -1.2434   23.8824 C   0  0  0  0  0  0  0  0  0  0  0  0
   -7.2997   -1.2273   23.6708 F   0  0  0  0  0  0  0  0  0  0  0  0
   -9.1073   -1.2159   22.7211 F   0  0  0  0  0  0  0  0  0  0  0  0
  1  4  1  0
  4  5  1  0
  2  7  1  0
  6  7  1  0
  8  9  1  0
  9 10  1  0
 21 22  1  0
 22 23  1  0
 22 24  1  0
  5  6  2  0
  6 19  1  0
 19 20  2  0
 20 21  1  0
 21  8  2  0
  8  5  1  0
 10 11  2  0
 11 12  1  0
 12 13  2  0
 13 14  1  0
 14 15  2  0
 15 10  1  0
  1  2  1  0
  2  3  2  0
  3 18  1  0
 18 17  2  0
 17 16  1  0
 16  1  2  0
M  END
$$$$
