No_3461-complexes_sdf/6BKW-FPZ/2024-09-17-14-21-01/
     RDKit          3D

 33 37  0  0  0  0  0  0  0  0999 V2000
   -7.9040    3.9820   27.1177 C   0  0  2  0  0  0  0  0  0  0  0  0
   -7.8663    4.8694   27.9238 C   0  0  0  0  0  0  0  0  0  0  0  0
   -9.0491    3.8523   26.2542 C   0  0  1  0  0  0  0  0  0  0  0  0
   -9.9827    3.2456   26.6451 C   0  0  0  0  0  0  0  0  0  0  0  0
  -10.8316    2.5972   25.8351 C   0  0  0  0  0  0  0  0  0  0  0  0
  -11.9102    1.9174   26.2077 C   0  0  0  0  0  0  0  0  0  0  0  0
   -8.2157    5.9231   27.9715 C   0  0  0  0  0  0  0  0  0  0  0  0
   -9.0521    6.4788   26.8561 C   0  0  1  0  0  0  0  0  0  0  0  0
  -12.1557    1.8050   27.6760 C   0  0  0  0  0  0  0  0  0  0  0  0
  -11.2809    2.3955   28.5412 C   0  0  0  0  0  0  0  0  0  0  0  0
  -10.2299    3.1035   28.1259 C   0  0  0  0  0  0  0  0  0  0  0  0
   -9.1636    4.9111   25.3078 C   0  0  0  0  0  0  0  0  0  0  0  0
   -9.2253    7.9542   27.1042 C   0  0  0  0  0  0  0  0  0  0  0  0
   -9.3917    6.0734   25.6963 C   0  0  0  0  0  0  0  0  0  0  0  0
   -7.2234    2.6722   27.0123 C   0  0  0  0  0  0  0  0  0  0  0  0
   -7.6416    1.3959   26.7532 C   0  0  0  0  0  0  0  0  0  0  0  0
   -6.8381    0.2811   26.8171 C   0  0  0  0  0  0  0  0  0  0  0  0
   -5.5925    0.4034   27.4837 C   0  0  0  0  0  0  0  0  0  0  0  0
   -5.1551    1.6864   27.9692 C   0  0  0  0  0  0  0  0  0  0  0  0
   -5.8910    2.7169   27.8242 C   0  0  0  0  0  0  0  0  0  0  0  0
   -4.7824   -0.8079   27.7025 C   0  0  0  0  0  0  0  0  0  0  0  0
   -3.8411   -0.9081   28.4620 C   0  0  0  0  0  0  0  0  0  0  0  0
   -2.9475   -2.0554   28.6343 C   0  0  0  0  0  0  0  0  0  0  0  0
   -3.2890   -3.1086   27.8235 C   0  0  0  0  0  0  0  0  0  0  0  0
   -4.7334   -2.0267   26.9477 C   0  0  0  0  0  0  0  0  0  0  0  0
   -4.1225   -3.0502   26.9536 C   0  0  0  0  0  0  0  0  0  0  0  0
  -10.5922    2.5886   24.3852 C   0  0  0  0  0  0  0  0  0  0  0  0
  -10.1523    1.4453   23.9173 C   0  0  0  0  0  0  0  0  0  0  0  0
   -9.8012    1.3251   22.5287 C   0  0  0  0  0  0  0  0  0  0  0  0
   -9.2145    0.1055   22.0128 C   0  0  0  0  0  0  0  0  0  0  0  0
   -9.0895   -0.9738   22.9628 C   0  0  0  0  0  0  0  0  0  0  0  0
   -9.4961   -0.8801   24.2049 C   0  0  0  0  0  0  0  0  0  0  0  0
   -9.9634    0.2621   24.7296 C   0  0  0  0  0  0  0  0  0  0  0  0
  1  2  1  0
  1  3  1  0
  3  4  1  1
  2  7  2  0
  7  8  1  0
  3 12  1  0
  8 13  1  6
  8 14  1  0
 12 14  1  0
  1 15  1  1
 18 21  1  0
  5 27  1  0
 27 28  1  0
 15 16  2  0
 16 17  1  0
 17 18  2  0
 18 19  1  0
 19 20  2  0
 20 15  1  0
 21 22  2  0
 22 23  1  0
 23 24  2  0
 24 26  1  0
 26 25  2  0
 25 21  1  0
  4  5  1  0
  5  6  2  0
  6  9  1  0
  9 10  2  0
 10 11  1  0
 11  4  2  0
 28 29  2  0
 29 30  1  0
 30 31  2  0
 31 32  1  0
 32 33  2  0
 33 28  1  0
M  END
$$$$
