No_3145-complexes_sdf/6BKW-FPZ/2024-09-17-14-21-01/
     RDKit          3D

 23 26  0  0  0  0  0  0  0  0999 V2000
   -7.2496    3.8871   27.4508 C   0  0  0  0  0  0  0  0  0  0  0  0
   -7.9379    4.9063   27.8518 C   0  0  0  0  0  0  0  0  0  0  0  0
   -9.3376    4.8647   27.7795 C   0  0  0  0  0  0  0  0  0  0  0  0
   -7.8544    2.6294   27.0414 C   0  0  0  0  0  0  0  0  0  0  0  0
   -7.1614    1.5016   26.7557 C   0  0  0  0  0  0  0  0  0  0  0  0
   -9.2736    2.6261   27.0257 C   0  0  0  0  0  0  0  0  0  0  0  0
  -10.0045    3.7370   27.4296 C   0  0  0  0  0  0  0  0  0  0  0  0
   -7.6725    0.4370   26.0283 C   0  0  0  0  0  0  0  0  0  0  0  0
   -9.7217    1.3670   26.5447 C   0  0  0  0  0  0  0  0  0  0  0  0
   -9.0582    0.3714   26.0307 C   0  0  0  0  0  0  0  0  0  0  0  0
  -11.4676    3.6991   27.4321 C   0  0  0  0  0  0  0  0  0  0  0  0
  -12.0622    3.7804   28.8334 C   0  0  0  0  0  0  0  0  0  0  0  0
  -12.2510    3.5853   26.3828 C   0  0  0  0  0  0  0  0  0  0  0  0
   -7.2904    6.0718   28.2648 N   0  0  0  0  0  0  0  0  0  0  0  0
  -13.4685    3.8760   28.9765 C   0  0  0  0  0  0  0  0  0  0  0  0
  -13.6507    3.7822   26.4695 C   0  0  0  0  0  0  0  0  0  0  0  0
  -14.2429    3.9151   27.7911 C   0  0  0  0  0  0  0  0  0  0  0  0
  -14.0937    3.9890   30.2863 C   0  0  0  0  0  0  0  0  0  0  0  0
  -15.0818    4.8459   30.5861 C   0  0  0  0  0  0  0  0  0  0  0  0
  -15.5976    4.9925   31.8866 C   0  0  0  0  0  0  0  0  0  0  0  0
  -15.0415    4.2676   32.9320 C   0  0  0  0  0  0  0  0  0  0  0  0
  -13.4741    3.1916   31.3665 C   0  0  0  0  0  0  0  0  0  0  0  0
  -13.9760    3.3658   32.6709 C   0  0  0  0  0  0  0  0  0  0  0  0
  7 11  1  0
  2 14  1  0
 15 18  1  0
 11 12  2  0
 12 15  1  0
 15 17  2  0
 17 16  1  0
 16 13  2  0
 13 11  1  0
 18 19  2  0
 19 20  1  0
 20 21  2  0
 21 23  1  0
 23 22  2  0
 22 18  1  0
  4  5  2  0
  5  8  1  0
  8 10  2  0
 10  9  1  0
  9  6  2  0
  1  2  2  0
  2  3  1  0
  3  7  2  0
  7  6  1  0
  6  4  1  0
  4  1  1  0
M  END
$$$$
