No_3381-complexes_sdf/6BKW-FPZ/2024-09-17-14-21-01/
     RDKit          3D

 21 24  0  0  0  0  0  0  0  0999 V2000
   -7.9040    3.9820   27.1177 C   0  0  0  0  0  0  0  0  0  0  0  0
   -8.2057    2.8231   26.8733 C   0  0  0  0  0  0  0  0  0  0  0  0
   -7.4766    1.7477   27.4593 C   0  0  0  0  0  0  0  0  0  0  0  0
   -8.7468    5.1251   26.6967 C   0  0  0  0  0  0  0  0  0  0  0  0
   -9.7234    4.8589   25.8202 C   0  0  0  0  0  0  0  0  0  0  0  0
   -9.9711    3.5858   25.4266 C   0  0  0  0  0  0  0  0  0  0  0  0
   -9.2266    2.4957   25.9600 C   0  0  0  0  0  0  0  0  0  0  0  0
   -7.8305    0.3697   27.3235 C   0  0  0  0  0  0  0  0  0  0  0  0
   -8.9837    0.1833   26.4540 C   0  0  0  0  0  0  0  0  0  0  0  0
   -9.6460    1.1855   25.7538 C   0  0  0  0  0  0  0  0  0  0  0  0
   -8.3852    6.5353   27.0806 C   0  0  2  0  0  0  0  0  0  0  0  0
   -7.8796    6.8377   28.2188 N   0  0  0  0  0  0  0  0  0  0  0  0
   -9.1547    7.4406   26.5751 F   0  0  0  0  0  0  0  0  0  0  0  0
   -7.1501   -0.6599   27.9980 C   0  0  0  0  0  0  0  0  0  0  0  0
   -5.8305   -0.4992   28.3949 C   0  0  0  0  0  0  0  0  0  0  0  0
   -5.2701   -1.2564   29.4399 C   0  0  0  0  0  0  0  0  0  0  0  0
   -6.0540   -2.3056   29.9183 C   0  0  0  0  0  0  0  0  0  0  0  0
   -7.8530   -1.6460   28.7047 C   0  0  0  0  0  0  0  0  0  0  0  0
   -9.2471   -1.8151   28.3504 C   0  0  0  0  0  0  0  0  0  0  0  0
   -7.3269   -2.4522   29.6599 C   0  0  0  0  0  0  0  0  0  0  0  0
   -9.7482   -1.0398   26.9407 C   0  0  0  0  0  0  0  0  0  0  0  0
  4 11  1  0
 11 12  1  1
 11 13  1  0
  8 14  1  0
 18 19  1  0
  9 21  1  0
 19 21  1  0
 14 15  2  0
 15 16  1  0
 16 17  2  0
 17 20  1  0
 20 18  2  0
 18 14  1  0
  1  2  2  0
  7  6  2  0
  6  5  1  0
  5  4  2  0
  4  1  1  0
  2  3  1  0
  3  8  2  0
  8  9  1  0
  9 10  2  0
 10  7  1  0
  7  2  1  0
M  END
$$$$
