No_3944-complexes_sdf/6BKW-FPZ/2024-09-17-14-21-01/
     RDKit          3D

 19 21  0  0  0  0  0  0  0  0999 V2000
   -7.9040    3.9820   27.1177 C   0  0  0  0  0  0  0  0  0  0  0  0
   -7.8663    4.8694   27.9238 C   0  0  0  0  0  0  0  0  0  0  0  0
   -9.0953    3.1697   27.0532 C   0  0  0  0  0  0  0  0  0  0  0  0
  -10.1313    3.4052   27.8871 C   0  0  0  0  0  0  0  0  0  0  0  0
  -10.1178    4.5885   28.6885 C   0  0  0  0  0  0  0  0  0  0  0  0
   -8.9412    5.2994   28.7548 C   0  0  0  0  0  0  0  0  0  0  0  0
   -9.0660    1.9572   26.1818 C   0  0  0  0  0  0  0  0  0  0  0  0
   -9.4147    2.1748   24.8502 C   0  0  0  0  0  0  0  0  0  0  0  0
   -9.5646    1.2323   23.8710 C   0  0  0  0  0  0  0  0  0  0  0  0
   -8.6041    0.7212   26.5625 C   0  0  0  0  0  0  0  0  0  0  0  0
   -8.1678    0.4416   27.9163 C   0  0  0  0  0  0  0  0  0  0  0  0
   -8.5923   -0.3240   25.6239 C   0  0  0  0  0  0  0  0  0  0  0  0
   -9.0718   -0.0726   24.2909 C   0  0  0  0  0  0  0  0  0  0  0  0
  -11.3159    2.5548   27.9037 C   0  0  0  0  0  0  0  0  0  0  0  0
  -12.5518    3.0089   27.4002 C   0  0  0  0  0  0  0  0  0  0  0  0
  -13.2239    2.3905   26.5677 C   0  0  0  0  0  0  0  0  0  0  0  0
  -13.0272    1.0875   26.4071 C   0  0  0  0  0  0  0  0  0  0  0  0
  -11.8993    0.4647   27.1413 C   0  0  0  0  0  0  0  0  0  0  0  0
  -10.9951    1.2806   27.8946 C   0  0  0  0  0  0  0  0  0  0  0  0
  3  7  1  0
 10 11  1  0
  4 14  1  0
  7  8  2  0
  8  9  1  0
  9 13  2  0
 13 12  1  0
 12 10  2  0
 10  7  1  0
  1  2  2  0
  2  6  1  0
  6  5  2  0
  5  4  1  0
  4  3  2  0
  3  1  1  0
 14 15  2  0
 15 16  1  0
 16 17  2  0
 17 18  1  0
 18 19  2  0
 19 14  1  0
M  END
$$$$
