No_360-complexes_sdf/6BKW-FPZ/2024-09-17-14-21-01/
     RDKit          3D

 40 44  0  0  0  0  0  0  0  0999 V2000
   -7.2496    3.8871   27.4508 C   0  0  0  0  0  0  0  0  0  0  0  0
   -7.6161    2.7143   27.1523 C   0  0  0  0  0  0  0  0  0  0  0  0
   -7.1618    1.8631   27.5232 C   0  0  0  0  0  0  0  0  0  0  0  0
   -7.7575    4.8848   27.9618 C   0  0  0  0  0  0  0  0  0  0  0  0
   -5.7236    1.9138   27.8973 C   0  0  0  0  0  0  0  0  0  0  0  0
   -5.1735    3.0530   28.0934 N   0  0  0  0  0  0  0  0  0  0  0  0
   -5.8508    3.8830   27.9606 C   0  0  0  0  0  0  0  0  0  0  0  0
   -8.5430    5.9397   27.3146 C   0  0  0  0  0  0  0  0  0  0  0  0
   -8.3722    6.6864   26.3106 C   0  0  0  0  0  0  0  0  0  0  0  0
   -4.9703    0.7012   27.9900 N   0  0  0  0  0  0  0  0  0  0  0  0
   -5.4092   -0.5077   28.1129 C   0  0  0  0  0  0  0  0  0  0  0  0
   -9.8552    6.1774   27.9371 C   0  0  0  0  0  0  0  0  0  0  0  0
   -4.7068   -1.3366   28.8400 C   0  0  0  0  0  0  0  0  0  0  0  0
   -3.6080    0.7694   28.2070 C   0  0  0  0  0  0  0  0  0  0  0  0
   -4.9887   -2.6045   29.2833 C   0  0  0  0  0  0  0  0  0  0  0  0
   -3.3342   -0.7545   29.1434 C   0  0  0  0  0  0  0  0  0  0  0  0
   -6.0466   -3.1674   28.9787 C   0  0  0  0  0  0  0  0  0  0  0  0
   -6.4767   -4.4222   29.4766 C   0  0  0  0  0  0  0  0  0  0  0  0
   -5.6089   -5.0335   30.3947 C   0  0  0  0  0  0  0  0  0  0  0  0
   -4.4736   -4.4728   30.7858 C   0  0  0  0  0  0  0  0  0  0  0  0
   -4.1226   -3.2051   30.3484 C   0  0  0  0  0  0  0  0  0  0  0  0
   -3.5729   -5.1113   31.7844 C   0  0  0  0  0  0  0  0  0  0  0  0
   -3.9932   -5.5270   32.9062 C   0  0  0  0  0  0  0  0  0  0  0  0
   -4.9650   -5.1077   33.5751 C   0  0  0  0  0  0  0  0  0  0  0  0
   -5.5541   -3.7875   33.3866 C   0  0  2  0  0  0  0  0  0  0  0  0
   -4.7616   -2.6571   33.8856 C   0  0  0  0  0  0  0  0  0  0  0  0
   -4.2833   -2.7146   35.0688 C   0  0  0  0  0  0  0  0  0  0  0  0
   -3.8037   -2.0849   35.7415 C   0  0  0  0  0  0  0  0  0  0  0  0
   -3.2976   -2.2335   37.1775 C   0  0  0  0  0  0  0  0  0  0  0  0
   -2.6395   -1.2002   37.9075 C   0  0  0  0  0  0  0  0  0  0  0  0
   -2.4361    0.0784   37.3589 C   0  0  0  0  0  0  0  0  0  0  0  0
   -2.8771    0.3011   36.0623 C   0  0  0  0  0  0  0  0  0  0  0  0
   -3.4963   -0.6025   35.3568 C   0  0  0  0  0  0  0  0  0  0  0  0
   -6.7887   -3.5413   32.8390 C   0  0  0  0  0  0  0  0  0  0  0  0
   -7.9992   -4.0493   33.4242 C   0  0  0  0  0  0  0  0  0  0  0  0
   -9.1816   -3.9276   32.7842 C   0  0  0  0  0  0  0  0  0  0  0  0
   -9.2687   -2.9996   31.6846 C   0  0  0  0  0  0  0  0  0  0  0  0
   -8.1027   -2.4329   31.1523 C   0  0  0  0  0  0  0  0  0  0  0  0
   -6.8926   -2.6439   31.7345 C   0  0  0  0  0  0  0  0  0  0  0  0
   -7.6779   -5.0781   29.0182 C   0  0  0  0  0  0  0  0  0  0  0  0
  4  8  1  0
  8  9  2  0
  5 10  1  0
 10 11  1  0
  8 12  1  0
 11 13  2  0
 10 14  1  0
 13 15  1  0
 13 16  1  0
 14 16  2  0
 20 22  1  0
 22 23  1  0
 23 24  2  3
 24 25  1  0
 25 26  1  0
 26 27  2  3
 27 28  1  0
 25 34  1  1
 18 40  1  0
  4  1  1  0
 28 29  2  0
 29 30  1  0
 30 31  2  0
 31 32  1  0
 32 33  2  0
 33 28  1  0
 15 17  2  0
 17 18  1  0
 18 19  2  0
 19 20  1  0
 20 21  2  0
 21 15  1  0
 34 35  2  0
 35 36  1  0
 36 37  2  0
 37 38  1  0
 38 39  2  0
 39 34  1  0
  1  2  2  0
  2  3  1  0
  3  5  2  0
  5  6  1  0
  6  7  2  0
  7  1  1  0
M  END
$$$$
