No_3772-complexes_sdf/6BKW-FPZ/2024-09-17-14-21-01/
     RDKit          3D

 33 36  0  0  0  0  0  0  0  0999 V2000
   -7.7129    4.2099   27.0854 C   0  0  0  0  0  0  0  0  0  0  0  0
   -8.9133    4.4736   27.0998 C   0  0  0  0  0  0  0  0  0  0  0  0
   -9.4643    5.5426   27.7628 C   0  0  0  0  0  0  0  0  0  0  0  0
   -7.1220    4.1625   28.1614 C   0  0  0  0  0  0  0  0  0  0  0  0
   -7.2976    5.3836   28.9985 C   0  0  0  0  0  0  0  0  0  0  0  0
   -8.5684    5.9639   28.8530 C   0  0  0  0  0  0  0  0  0  0  0  0
   -9.8172    4.0634   25.8617 C   0  0  0  0  0  0  0  0  0  0  0  0
   -9.9790    2.7733   25.6062 C   0  0  0  0  0  0  0  0  0  0  0  0
  -10.3290    2.3633   24.3276 C   0  0  0  0  0  0  0  0  0  0  0  0
  -10.7853    3.3623   23.3830 C   0  0  0  0  0  0  0  0  0  0  0  0
  -10.6031    4.7270   23.7117 C   0  0  0  0  0  0  0  0  0  0  0  0
  -10.0170    5.0828   24.9110 C   0  0  0  0  0  0  0  0  0  0  0  0
   -9.4291    1.5275   26.6404 Cl  0  0  0  0  0  0  0  0  0  0  0  0
  -11.2688    2.9916   22.0778 C   0  0  0  0  0  0  0  0  0  0  0  0
  -10.6078    2.2484   21.3754 C   0  0  0  0  0  0  0  0  0  0  0  0
  -10.8156    0.9230   21.2724 C   0  0  0  0  0  0  0  0  0  0  0  0
   -9.7968   -0.0046   20.9536 C   0  0  0  0  0  0  0  0  0  0  0  0
  -12.1244    0.3613   21.4393 C   0  0  0  0  0  0  0  0  0  0  0  0
  -12.3139   -0.9198   21.4401 C   0  0  0  0  0  0  0  0  0  0  0  0
   -9.9589   -1.3721   20.9103 C   0  0  0  0  0  0  0  0  0  0  0  0
  -11.2480   -1.8279   21.1503 C   0  0  0  0  0  0  0  0  0  0  0  0
  -12.4909    3.5250   21.6390 C   0  0  0  0  0  0  0  0  0  0  0  0
   -9.5114    2.7898   20.7253 O   0  0  0  0  0  0  0  0  0  0  0  0
  -11.4967   -3.2932   21.0658 C   0  0  0  0  0  0  0  0  0  0  0  0
  -11.7178   -3.8872   20.2208 N   0  0  0  0  0  0  0  0  0  0  0  0
  -11.8984   -5.1792   20.1109 C   0  0  0  0  0  0  0  0  0  0  0  0
  -11.4096   -3.9134   22.3809 C   0  0  0  0  0  0  0  0  0  0  0  0
  -11.6151   -5.2564   22.4818 C   0  0  0  0  0  0  0  0  0  0  0  0
  -11.8564   -5.9051   21.2990 C   0  0  0  0  0  0  0  0  0  0  0  0
  -12.1006   -7.3527   21.2555 C   0  0  2  0  0  0  0  0  0  0  0  0
  -12.6357   -8.2532   20.3731 Cl  0  0  0  0  0  0  0  0  0  0  0  0
  -12.0867   -7.7311   22.7496 C   0  0  0  0  0  0  0  0  0  0  0  0
  -11.7330   -7.0868   23.7871 N   0  0  0  0  0  0  0  0  0  0  0  0
  2  7  1  0
  8 13  1  0
 10 14  1  0
 14 15  1  0
 15 16  1  0
 14 22  1  0
 15 23  2  0
 21 24  1  0
 29 30  1  0
 30 31  1  1
 30 32  1  0
 32 33  2  0
 16 17  2  0
 17 20  1  0
 20 21  2  0
 21 19  1  0
 19 18  2  0
 18 16  1  0
  1  2  2  0
  2  3  1  0
  3  6  2  0
  6  5  1  0
  5  4  2  0
  4  1  1  0
 24 25  2  0
 25 26  1  0
 26 29  2  0
 29 28  1  0
 28 27  2  0
 27 24  1  0
  7  8  2  0
  8  9  1  0
  9 10  2  0
 10 11  1  0
 11 12  2  0
 12  7  1  0
M  END
$$$$
