No_3956-complexes_sdf/6BKW-FPZ/2024-09-17-14-21-01/
     RDKit          3D

 26 30  0  0  0  0  0  0  0  0999 V2000
   -7.9040    3.9820   27.1177 C   0  0  0  0  0  0  0  0  0  0  0  0
   -8.2057    2.8231   26.8733 C   0  0  0  0  0  0  0  0  0  0  0  0
   -7.0130    4.3706   28.1140 C   0  0  0  0  0  0  0  0  0  0  0  0
   -9.3829    2.4374   26.1668 C   0  0  0  0  0  0  0  0  0  0  0  0
  -10.0975    3.4171   25.5988 C   0  0  1  0  0  0  0  0  0  0  0  0
   -9.7335    4.7745   25.7705 C   0  0  0  0  0  0  0  0  0  0  0  0
   -8.7317    5.1107   26.5933 C   0  0  0  0  0  0  0  0  0  0  0  0
   -8.4060    6.4842   26.8915 C   0  0  0  0  0  0  0  0  0  0  0  0
   -7.3130    6.8159   27.6705 C   0  0  0  0  0  0  0  0  0  0  0  0
   -6.7663    5.7960   28.3758 C   0  0  0  0  0  0  0  0  0  0  0  0
  -11.1995    3.0953   24.6618 C   0  0  0  0  0  0  0  0  0  0  0  0
  -10.9004    2.9299   23.4363 C   0  0  0  0  0  0  0  0  0  0  0  0
  -11.7670    3.0568   22.4038 C   0  0  0  0  0  0  0  0  0  0  0  0
  -12.4884    3.1138   25.1515 C   0  0  0  0  0  0  0  0  0  0  0  0
  -13.5385    3.1658   24.1577 C   0  0  0  0  0  0  0  0  0  0  0  0
  -13.1660    3.0747   22.7812 C   0  0  0  0  0  0  0  0  0  0  0  0
   -7.4288    1.6274   27.4582 C   0  0  0  0  0  0  0  0  0  0  0  0
   -7.7398    0.2870   27.1614 C   0  0  0  0  0  0  0  0  0  0  0  0
   -9.6380    1.0654   25.8465 C   0  0  0  0  0  0  0  0  0  0  0  0
   -8.8370    0.0450   26.4087 C   0  0  0  0  0  0  0  0  0  0  0  0
   -9.2261   -1.3462   26.1559 C   0  0  0  0  0  0  0  0  0  0  0  0
   -9.8158   -1.6927   25.3719 C   0  0  0  0  0  0  0  0  0  0  0  0
  -10.2636   -3.0791   25.1050 C   0  0  0  0  0  0  0  0  0  0  0  0
   -9.8512   -3.9836   25.9929 C   0  0  0  0  0  0  0  0  0  0  0  0
   -9.0913   -3.6459   27.0554 C   0  0  0  0  0  0  0  0  0  0  0  0
   -8.7377   -2.2925   27.2661 C   0  0  0  0  0  0  0  0  0  0  0  0
  1  2  1  0
  4  5  1  0
  5  6  1  0
  6  7  1  0
  5 11  1  6
 20 21  1  0
 11 12  2  0
 12 13  1  0
 13 16  2  0
 16 15  1  0
 15 14  2  0
 14 11  1  0
  1  3  2  0
  3 10  1  0
 10  9  2  0
  9  8  1  0
  8  7  2  0
  7  1  1  0
  2  4  2  0
  4 19  1  0
 19 20  2  0
 20 18  1  0
 18 17  2  0
 17  2  1  0
 21 22  2  0
 22 23  1  0
 23 24  2  0
 24 25  1  0
 25 26  2  0
 26 21  1  0
M  END
$$$$
