No_3721-complexes_sdf/6BKW-FPZ/2024-09-17-14-21-01/
     RDKit          3D

 23 25  0  0  0  0  0  0  0  0999 V2000
   -7.9040    3.9820   27.1177 C   0  0  0  0  0  0  0  0  0  0  0  0
   -7.8663    4.8694   27.9238 C   0  0  0  0  0  0  0  0  0  0  0  0
   -9.0491    3.8523   26.2542 C   0  0  0  0  0  0  0  0  0  0  0  0
   -8.7661    5.9491   27.9690 C   0  0  0  0  0  0  0  0  0  0  0  0
   -9.9295    4.8502   26.2323 C   0  0  0  0  0  0  0  0  0  0  0  0
   -9.8077    5.9289   27.0933 C   0  0  0  0  0  0  0  0  0  0  0  0
   -6.8002    2.6256   27.2024 Cl  0  0  0  0  0  0  0  0  0  0  0  0
   -9.0815    2.8240   25.3662 F   0  0  0  0  0  0  0  0  0  0  0  0
  -10.8957    4.8227   25.3016 O   0  0  0  0  0  0  0  0  0  0  0  0
  -11.8722    3.9891   25.4528 C   0  0  0  0  0  0  0  0  0  0  0  0
  -12.7625    4.0075   24.3572 C   0  0  0  0  0  0  0  0  0  0  0  0
  -12.3378    3.9787   23.0578 C   0  0  0  0  0  0  0  0  0  0  0  0
  -12.0765    3.1227   22.6028 C   0  0  0  0  0  0  0  0  0  0  0  0
  -11.4129    2.7324   21.9040 C   0  0  0  0  0  0  0  0  0  0  0  0
  -11.1878    1.3397   21.4730 C   0  0  0  0  0  0  0  0  0  0  0  0
  -11.8871    0.4316   22.1132 C   0  0  0  0  0  0  0  0  0  0  0  0
  -12.7548    0.7377   23.0457 C   0  0  0  0  0  0  0  0  0  0  0  0
  -12.8388    2.0206   23.3817 C   0  0  0  0  0  0  0  0  0  0  0  0
  -13.9533    3.5417   24.3518 C   0  0  0  0  0  0  0  0  0  0  0  0
  -13.8434    2.3716   24.2906 C   0  0  0  0  0  0  0  0  0  0  0  0
  -10.3549    3.7141   21.0867 C   0  0  0  0  0  0  0  0  0  0  0  0
  -14.7781    1.3923   24.8166 C   0  0  0  0  0  0  0  0  0  0  0  0
  -14.5098    0.0960   24.5920 C   0  0  0  0  0  0  0  0  0  0  0  0
  1  7  1  0
  3  8  1  0
  5  9  1  0
  9 10  1  0
 10 11  1  0
 14 21  1  0
 20 22  1  0
 22 23  2  0
 11 12  2  0
 12 13  1  0
 18 20  1  0
 20 19  2  0
 19 11  1  0
 13 14  2  0
 14 15  1  0
 15 16  2  0
 16 17  1  0
 17 18  2  0
 18 13  1  0
  1  2  2  0
  2  4  1  0
  4  6  2  0
  6  5  1  0
  5  3  2  0
  3  1  1  0
M  END
$$$$
