No_3170-complexes_sdf/6BKW-FPZ/2024-09-17-14-21-01/
     RDKit          3D

 27 30  0  0  0  0  0  0  0  0999 V2000
   -7.7129    4.2099   27.0854 C   0  0  0  0  0  0  0  0  0  0  0  0
   -7.7814    5.1722   27.8972 C   0  0  0  0  0  0  0  0  0  0  0  0
   -8.8998    3.8713   26.3707 C   0  0  0  0  0  0  0  0  0  0  0  0
   -9.9938    4.6774   26.5446 C   0  0  0  0  0  0  0  0  0  0  0  0
   -8.7789    6.1536   27.9256 C   0  0  0  0  0  0  0  0  0  0  0  0
   -9.9428    5.8398   27.2296 C   0  0  0  0  0  0  0  0  0  0  0  0
   -8.9119    2.6447   25.5685 C   0  0  0  0  0  0  0  0  0  0  0  0
   -9.7335    1.6985   26.0442 C   0  0  0  0  0  0  0  0  0  0  0  0
   -9.7585    0.4367   25.3064 C   0  0  0  0  0  0  0  0  0  0  0  0
   -8.9958    0.3205   24.2761 C   0  0  0  0  0  0  0  0  0  0  0  0
   -8.3369    1.3722   23.6718 C   0  0  0  0  0  0  0  0  0  0  0  0
   -8.2541    2.5442   24.3765 C   0  0  0  0  0  0  0  0  0  0  0  0
   -6.6301    5.6176   28.6156 O   0  0  0  0  0  0  0  0  0  0  0  0
   -9.1043   -0.8640   23.5157 F   0  0  0  0  0  0  0  0  0  0  0  0
  -11.0752    4.3494   25.8199 O   0  0  0  0  0  0  0  0  0  0  0  0
  -12.2266    4.4071   25.9277 C   0  0  0  0  0  0  0  0  0  0  0  0
  -12.8239    4.1136   27.2073 C   0  0  0  0  0  0  0  0  0  0  0  0
  -14.1496    4.3540   27.4930 C   0  0  0  0  0  0  0  0  0  0  0  0
  -14.9386    4.6853   26.3632 C   0  0  0  0  0  0  0  0  0  0  0  0
  -14.4454    4.8596   25.1020 C   0  0  0  0  0  0  0  0  0  0  0  0
  -13.0735    4.7453   24.9079 C   0  0  0  0  0  0  0  0  0  0  0  0
  -14.7933    4.1806   28.8083 C   0  0  0  0  0  0  0  0  0  0  0  0
  -15.6578    4.9036   29.2127 C   0  0  0  0  0  0  0  0  0  0  0  0
  -16.3264    4.7312   30.5178 C   0  0  0  0  0  0  0  0  0  0  0  0
  -15.7755    3.7786   31.3691 C   0  0  0  0  0  0  0  0  0  0  0  0
  -14.2002    3.2168   29.7213 C   0  0  0  0  0  0  0  0  0  0  0  0
  -14.7056    2.9833   30.9665 C   0  0  0  0  0  0  0  0  0  0  0  0
  3  7  1  0
  2 13  1  0
 10 14  1  0
  4 15  1  0
 15 16  1  0
 18 22  1  0
 22 23  2  0
 23 24  1  0
 24 25  2  0
 25 27  1  0
 27 26  2  0
 26 22  1  0
  1  2  2  0
  2  5  1  0
  5  6  2  0
  6  4  1  0
  4  3  2  0
  3  1  1  0
  7  8  2  0
  8  9  1  0
  9 10  2  0
 10 11  1  0
 11 12  2  0
 12  7  1  0
 16 17  2  0
 17 18  1  0
 18 19  2  0
 19 20  1  0
 20 21  2  0
 21 16  1  0
M  END
$$$$
