No_3379-complexes_sdf/6BKW-FPZ/2024-09-17-14-21-01/
     RDKit          3D

 23 25  0  0  0  0  0  0  0  0999 V2000
   -7.7129    4.2099   27.0854 C   0  0  0  0  0  0  0  0  0  0  0  0
   -8.2112    3.0637   26.9225 C   0  0  0  0  0  0  0  0  0  0  0  0
   -9.4446    2.8304   26.1868 C   0  0  0  0  0  0  0  0  0  0  0  0
   -8.4697    5.3956   26.7238 C   0  0  0  0  0  0  0  0  0  0  0  0
   -9.6172    5.2111   25.9513 C   0  0  0  0  0  0  0  0  0  0  0  0
  -10.0424    3.9782   25.6873 C   0  0  0  0  0  0  0  0  0  0  0  0
   -7.9172    6.7181   27.0124 C   0  0  0  0  0  0  0  0  0  0  0  0
   -8.4157    7.7972   26.4523 N   0  0  0  0  0  0  0  0  0  0  0  0
   -6.9522    6.7508   27.9654 N   0  0  0  0  0  0  0  0  0  0  0  0
   -7.5082    1.8023   27.3839 C   0  0  0  0  0  0  0  0  0  0  0  0
   -6.1472    1.8769   27.7289 C   0  0  0  0  0  0  0  0  0  0  0  0
   -5.4278    0.7340   28.1994 C   0  0  0  0  0  0  0  0  0  0  0  0
   -6.0827   -0.4931   28.1580 C   0  0  0  0  0  0  0  0  0  0  0  0
   -8.0322    0.5266   27.3683 C   0  0  0  0  0  0  0  0  0  0  0  0
   -7.3790   -0.5573   27.8171 C   0  0  0  0  0  0  0  0  0  0  0  0
   -3.7841    0.9614   28.6764 Cl  0  0  0  0  0  0  0  0  0  0  0  0
   -8.0536   -1.8615   27.8555 C   0  0  0  0  0  0  0  0  0  0  0  0
   -9.2182   -1.9494   28.0497 N   0  0  0  0  0  0  0  0  0  0  0  0
  -10.0880   -1.1445   27.7774 C   0  0  0  0  0  0  0  0  0  0  0  0
   -9.6114    0.3102   27.5317 C   0  0  0  0  0  0  0  0  0  0  0  0
  -11.5514   -1.1830   27.7615 C   0  0  0  0  0  0  0  0  0  0  0  0
  -12.2706   -0.1125   27.7585 C   0  0  0  0  0  0  0  0  0  0  0  0
  -11.7876    1.1937   27.4963 C   0  0  0  0  0  0  0  0  0  0  0  0
  4  7  1  0
  7  8  2  0
  7  9  1  0
  2 10  1  0
 12 16  1  0
 19 21  1  0
 21 22  2  3
 22 23  1  0
 15 17  2  0
 17 18  1  0
 18 19  2  0
 19 20  1  0
 20 14  2  0
  1  2  2  0
  2  3  1  0
  3  6  2  0
  6  5  1  0
  5  4  2  0
  4  1  1  0
 10 11  2  0
 11 12  1  0
 12 13  2  0
 13 15  1  0
 15 14  1  0
 14 10  1  0
M  END
$$$$
