No_3096-complexes_sdf/6BKW-FPZ/2024-09-17-14-21-01/
     RDKit          3D

 24 26  0  0  0  0  0  0  0  0999 V2000
   -7.2496    3.8871   27.4508 C   0  0  0  0  0  0  0  0  0  0  0  0
   -7.6161    2.7143   27.1523 C   0  0  0  0  0  0  0  0  0  0  0  0
   -8.6212    2.2239   26.4074 C   0  0  0  0  0  0  0  0  0  0  0  0
   -8.2540    4.9237   27.1711 C   0  0  0  0  0  0  0  0  0  0  0  0
   -8.0299    6.2902   27.5026 C   0  0  0  0  0  0  0  0  0  0  0  0
   -9.3752    4.6360   26.4536 C   0  0  0  0  0  0  0  0  0  0  0  0
   -9.6012    3.2992   26.1125 C   0  0  0  0  0  0  0  0  0  0  0  0
   -8.8738    7.3551   27.0512 C   0  0  0  0  0  0  0  0  0  0  0  0
   -6.5819    1.5494   27.5554 C   0  0  0  0  0  0  0  0  0  0  0  0
   -5.3178    1.8940   28.0859 C   0  0  0  0  0  0  0  0  0  0  0  0
   -4.4228    0.8769   28.4166 C   0  0  0  0  0  0  0  0  0  0  0  0
   -4.8137   -0.4348   28.4215 C   0  0  0  0  0  0  0  0  0  0  0  0
   -6.9172    0.2063   27.5174 C   0  0  0  0  0  0  0  0  0  0  0  0
   -6.1113   -0.7584   27.9362 C   0  0  0  0  0  0  0  0  0  0  0  0
  -10.7394    2.8994   25.2834 C   0  0  0  0  0  0  0  0  0  0  0  0
  -11.9305    2.5873   25.9046 C   0  0  0  0  0  0  0  0  0  0  0  0
  -10.6293    2.8594   23.8713 C   0  0  0  0  0  0  0  0  0  0  0  0
  -11.6406    2.5946   23.0308 C   0  0  0  0  0  0  0  0  0  0  0  0
  -13.0572    2.3015   25.0486 C   0  0  0  0  0  0  0  0  0  0  0  0
  -12.8931    2.3241   23.6545 C   0  0  0  0  0  0  0  0  0  0  0  0
   -3.9062   -1.4880   28.9011 C   0  0  0  0  0  0  0  0  0  0  0  0
   -2.8890   -1.4880   28.4451 F   0  0  0  0  0  0  0  0  0  0  0  0
   -3.8059   -1.2751   30.2978 F   0  0  0  0  0  0  0  0  0  0  0  0
   -4.5098   -2.7057   28.8499 F   0  0  0  0  0  0  0  0  0  0  0  0
  4  5  1  0
  5  8  2  0
  2  9  1  0
  7 15  1  0
 12 21  1  0
 21 22  1  0
 21 23  1  0
 21 24  1  0
 15 16  2  0
 16 19  1  0
 19 20  2  0
 20 18  1  0
 18 17  2  0
 17 15  1  0
  9 10  2  0
 10 11  1  0
 11 12  2  0
 12 14  1  0
 14 13  2  0
 13  9  1  0
  1  2  2  0
  2  3  1  0
  3  7  2  0
  7  6  1  0
  6  4  2  0
  4  1  1  0
M  END
$$$$
