No_3054-complexes_sdf/6BKW-FPZ/2024-09-17-14-21-01/
     RDKit          3D

 23 26  0  0  0  0  0  0  0  0999 V2000
   -7.9040    3.9820   27.1177 C   0  0  0  0  0  0  0  0  0  0  0  0
   -7.8663    4.8694   27.9238 C   0  0  0  0  0  0  0  0  0  0  0  0
   -7.4547    2.7080   27.4594 C   0  0  0  0  0  0  0  0  0  0  0  0
   -7.9337    1.5946   26.8372 C   0  0  0  0  0  0  0  0  0  0  0  0
   -7.4947    0.3059   27.1189 C   0  0  0  0  0  0  0  0  0  0  0  0
   -8.6696    6.0289   27.7710 C   0  0  0  0  0  0  0  0  0  0  0  0
   -9.3343    6.2216   26.5101 C   0  0  0  0  0  0  0  0  0  0  0  0
   -8.8555    4.1966   26.0609 C   0  0  0  0  0  0  0  0  0  0  0  0
   -9.4590    5.2750   25.7497 C   0  0  0  0  0  0  0  0  0  0  0  0
   -6.3022    0.2079   27.8611 C   0  0  0  0  0  0  0  0  0  0  0  0
   -5.5997    1.3479   28.2791 C   0  0  0  0  0  0  0  0  0  0  0  0
   -6.1238    2.6645   27.9513 C   0  0  0  0  0  0  0  0  0  0  0  0
   -5.5273   -1.0356   28.2013 C   0  0  0  0  0  0  0  0  0  0  0  0
   -6.1088   -2.1202   28.2283 C   0  0  0  0  0  0  0  0  0  0  0  0
   -7.3226   -2.3346   28.0923 C   0  0  0  0  0  0  0  0  0  0  0  0
   -8.4389   -1.6481   27.4255 C   0  0  0  0  0  0  0  0  0  0  0  0
   -8.4224   -0.6287   27.0722 C   0  0  0  0  0  0  0  0  0  0  0  0
   -4.3584    1.2349   28.8394 N   0  0  0  0  0  0  0  0  0  0  0  0
   -4.3091   -0.7577   28.9076 C   0  0  0  0  0  0  0  0  0  0  0  0
   -3.7190    0.1149   29.1067 C   0  0  0  0  0  0  0  0  0  0  0  0
   -3.4582   -2.0348   29.3150 C   0  0  0  0  0  0  0  0  0  0  0  0
   -2.3201   -1.9230   29.7471 C   0  0  0  0  0  0  0  0  0  0  0  0
   -1.7282   -0.6356   29.9906 C   0  0  0  0  0  0  0  0  0  0  0  0
 13 14  1  0
 14 15  2  0
 15 16  1  0
  5 17  1  0
 16 17  2  0
 19 21  1  0
 21 22  1  0
 22 23  1  0
  3  1  1  0
  3  4  2  0
  4  5  1  0
  5 10  2  0
 11 12  2  0
 12  3  1  0
 10 11  1  0
 11 18  1  0
 18 20  2  0
 20 19  1  0
 19 13  2  0
 13 10  1  0
  1  2  2  0
  2  6  1  0
  6  7  2  0
  7  9  1  0
  9  8  2  0
  8  1  1  0
M  END
$$$$
