No_3883-complexes_sdf/6BKW-FPZ/2024-09-17-14-21-01/
     RDKit          3D

 13 15  0  0  0  0  0  0  0  0999 V2000
   -7.9040    3.9820   27.1177 C   0  0  0  0  0  0  0  0  0  0  0  0
   -8.2057    2.8231   26.8733 C   0  0  0  0  0  0  0  0  0  0  0  0
   -9.2962    2.4021   26.1155 C   0  0  0  0  0  0  0  0  0  0  0  0
   -8.7358    5.0662   26.5917 C   0  0  0  0  0  0  0  0  0  0  0  0
   -9.7618    4.7022   25.7546 C   0  0  0  0  0  0  0  0  0  0  0  0
  -10.0066    3.4105   25.4922 C   0  0  0  0  0  0  0  0  0  0  0  0
   -8.3943    6.4760   26.8801 C   0  0  0  0  0  0  0  0  0  0  0  0
   -8.3483    7.4622   26.0291 C   0  0  0  0  0  0  0  0  0  0  0  0
   -8.0263    8.7347   26.7220 C   0  0  0  0  0  0  0  0  0  0  0  0
   -7.8630    6.6771   28.1475 C   0  0  1  0  0  0  0  0  0  0  0  0
   -7.7429    5.5796   28.9166 N   0  0  0  0  0  0  0  0  0  0  0  0
   -7.5629    4.2670   28.4055 C   0  0  0  0  0  0  0  0  0  0  0  0
   -7.4785    7.9041   28.2685 N   0  0  0  0  0  0  0  0  0  0  0  0
  4  7  1  0
  7  8  2  0
  8  9  1  0
  7 10  1  0
 10 11  1  6
  1 12  1  0
 11 12  1  0
  9 13  2  0
 10 13  1  0
  1  2  2  0
  2  3  1  0
  3  6  2  0
  6  5  1  0
  5  4  2  0
  4  1  1  0
M  END
$$$$
