No_3605-complexes_sdf/6BKW-FPZ/2024-09-17-14-21-01/
     RDKit          3D

 14 15  0  0  0  0  0  0  0  0999 V2000
   -7.2496    3.8871   27.4508 C   0  0  0  0  0  0  0  0  0  0  0  0
   -7.6161    2.7143   27.1523 C   0  0  0  0  0  0  0  0  0  0  0  0
   -8.6211    2.2238   26.4073 C   0  0  0  0  0  0  0  0  0  0  0  0
   -8.2540    4.9237   27.1711 C   0  0  0  0  0  0  0  0  0  0  0  0
   -9.3729    4.5806   26.4432 C   0  0  0  0  0  0  0  0  0  0  0  0
   -9.5830    3.2968   26.1025 C   0  0  0  0  0  0  0  0  0  0  0  0
   -7.9332    6.3206   27.5424 C   0  0  0  0  0  0  0  0  0  0  0  0
   -8.8113    7.3675   27.0322 C   0  0  0  0  0  0  0  0  0  0  0  0
   -8.8975    0.8875   26.0682 C   0  0  0  0  0  0  0  0  0  0  0  0
   -9.3657    0.4975   25.1429 N   0  0  0  0  0  0  0  0  0  0  0  0
   -9.0617    0.2732   24.1921 C   0  0  0  0  0  0  0  0  0  0  0  0
   -7.8383   -0.2687   23.9499 C   0  0  0  0  0  0  0  0  0  0  0  0
   -7.0973   -0.6430   25.1100 C   0  0  0  0  0  0  0  0  0  0  0  0
   -7.2655    0.2225   26.0266 C   0  0  0  0  0  0  0  0  0  0  0  0
  4  7  1  0
  7  8  2  0
  3  9  1  0
  1  2  2  0
  2  3  1  0
  3  6  2  0
  6  5  1  0
  5  4  2  0
  4  1  1  0
  9 10  2  0
 10 11  1  0
 11 12  2  0
 12 13  1  0
 13 14  2  0
 14  9  1  0
M  END
$$$$
