No_318-complexes_sdf/6BKW-FPZ/2024-09-17-14-21-01/
     RDKit          3D

 13 13  0  0  0  0  0  0  0  0999 V2000
   -7.7129    4.2099   27.0854 C   0  0  0  0  0  0  0  0  0  0  0  0
   -8.9133    4.4736   27.0998 C   0  0  0  0  0  0  0  0  0  0  0  0
   -9.7135    3.9633   26.0300 C   0  0  0  0  0  0  0  0  0  0  0  0
   -7.1708    2.9509   26.6517 C   0  0  0  0  0  0  0  0  0  0  0  0
   -8.1338    2.1226   26.0347 C   0  0  0  0  0  0  0  0  0  0  0  0
   -9.3389    2.6863   25.6841 C   0  0  0  0  0  0  0  0  0  0  0  0
   -9.2650    5.9655   27.3972 C   0  0  0  0  0  0  0  0  0  0  0  0
   -7.7384    0.7678   25.6873 C   0  0  0  0  0  0  0  0  0  0  0  0
   -6.9640    0.1426   26.3459 O   0  0  0  0  0  0  0  0  0  0  0  0
   -8.1011    0.3414   24.4707 O   0  0  0  0  0  0  0  0  0  0  0  0
   -8.3778    7.0455   27.1927 C   0  0  0  0  0  0  0  0  0  0  0  0
   -8.8589    8.2655   26.5992 C   0  0  0  0  0  0  0  0  0  0  0  0
   -7.0420    6.9117   27.6365 C   0  0  0  0  0  0  0  0  0  0  0  0
  2  7  1  0
  5  8  1  0
  8  9  2  0
  8 10  1  0
  7 11  1  0
 11 12  1  0
 11 13  1  0
  1  2  2  0
  2  3  1  0
  3  6  2  0
  6  5  1  0
  5  4  2  0
  4  1  1  0
M  END
$$$$
