No_3155-complexes_sdf/6BKW-FPZ/2024-09-17-14-21-01/
     RDKit          3D

 15 16  0  0  0  0  0  0  0  0999 V2000
   -7.7129    4.2099   27.0854 C   0  0  0  0  0  0  0  0  0  0  0  0
   -7.7814    5.1722   27.8972 C   0  0  0  0  0  0  0  0  0  0  0  0
   -8.7889    3.2468   27.2220 C   0  0  0  0  0  0  0  0  0  0  0  0
   -8.7402    2.0341   26.3990 C   0  0  0  0  0  0  0  0  0  0  0  0
   -8.9680    5.6562   28.5183 C   0  0  0  0  0  0  0  0  0  0  0  0
   -9.9491    3.5176   27.8853 C   0  0  0  0  0  0  0  0  0  0  0  0
  -10.0212    4.7882   28.5980 C   0  0  0  0  0  0  0  0  0  0  0  0
   -8.0603    0.9091   26.8894 C   0  0  0  0  0  0  0  0  0  0  0  0
   -7.9850   -0.2760   26.2313 C   0  0  0  0  0  0  0  0  0  0  0  0
   -9.0790    1.9955   25.1678 C   0  0  0  0  0  0  0  0  0  0  0  0
   -9.8208    3.1363   24.6093 C   0  0  0  0  0  0  0  0  0  0  0  0
   -8.5192   -0.2512   24.9148 C   0  0  0  0  0  0  0  0  0  0  0  0
   -9.0960    0.8943   24.3318 C   0  0  0  0  0  0  0  0  0  0  0  0
   -9.9964    4.3889   25.2319 C   0  0  0  0  0  0  0  0  0  0  0  0
  -10.6568    5.2255   24.1663 C   0  0  0  0  0  0  0  0  0  0  0  0
  3  4  1  0
 10 11  1  0
 11 14  2  3
 14 15  1  0
  4  8  2  0
  8  9  1  0
  9 12  2  0
 12 13  1  0
 13 10  2  0
 10  4  1  0
  1  2  2  0
  2  5  1  0
  5  7  2  0
  7  6  1  0
  6  3  2  0
  3  1  1  0
M  END
$$$$
