No_314-complexes_sdf/6BKW-FPZ/2024-09-17-14-21-01/
     RDKit          3D

 12 12  0  0  0  0  0  0  0  0999 V2000
   -7.7129    4.2099   27.0854 C   0  0  0  0  0  0  0  0  0  0  0  0
   -7.7814    5.1722   27.8972 C   0  0  0  0  0  0  0  0  0  0  0  0
   -8.8776    3.8408   26.3416 C   0  0  0  0  0  0  0  0  0  0  0  0
   -8.9136    2.6330   25.5655 C   0  0  0  0  0  0  0  0  0  0  0  0
   -8.8361    6.1389   27.9032 C   0  0  0  0  0  0  0  0  0  0  0  0
  -10.0140    4.6007   26.4589 C   0  0  0  0  0  0  0  0  0  0  0  0
   -9.9323    5.7812   27.1759 N   0  0  0  0  0  0  0  0  0  0  0  0
   -9.7691    2.4462   24.5375 C   0  0  0  0  0  0  0  0  0  0  0  0
   -9.7725    1.2937   23.7562 C   0  0  0  0  0  0  0  0  0  0  0  0
   -8.7832    0.2921   24.0308 C   0  0  0  0  0  0  0  0  0  0  0  0
   -7.9365    0.4305   25.0989 C   0  0  0  0  0  0  0  0  0  0  0  0
   -7.9445    1.5964   25.8923 C   0  0  0  0  0  0  0  0  0  0  0  0
  3  4  1  0
  4  8  2  3
  8  9  1  0
  9 10  2  3
 10 11  1  0
 11 12  2  0
  1  2  2  0
  2  5  1  0
  5  7  2  0
  7  6  1  0
  6  3  2  0
  3  1  1  0
M  END
$$$$
