No_3682-complexes_sdf/6BKW-FPZ/2024-09-17-14-21-01/
     RDKit          3D

 18 19  0  0  0  0  0  0  0  0999 V2000
   -7.2496    3.8871   27.4508 C   0  0  0  0  0  0  0  0  0  0  0  0
   -7.9379    4.9063   27.8518 C   0  0  0  0  0  0  0  0  0  0  0  0
   -9.3376    4.8647   27.7795 C   0  0  0  0  0  0  0  0  0  0  0  0
   -7.8544    2.6294   27.0414 C   0  0  0  0  0  0  0  0  0  0  0  0
   -9.2852    2.6570   27.0666 C   0  0  0  0  0  0  0  0  0  0  0  0
  -10.0126    3.7528   27.4890 C   0  0  0  0  0  0  0  0  0  0  0  0
  -11.4946    3.6924   27.5201 C   0  0  0  0  0  0  0  0  0  0  0  0
  -12.0181    2.6419   28.0792 C   0  0  0  0  0  0  0  0  0  0  0  0
  -13.4558    2.4682   28.2693 C   0  0  0  0  0  0  0  0  0  0  0  0
  -14.2214    3.5827   27.8675 C   0  0  0  0  0  0  0  0  0  0  0  0
  -13.6463    4.6925   27.3441 C   0  0  0  0  0  0  0  0  0  0  0  0
  -12.2538    4.8357   27.2257 C   0  0  0  0  0  0  0  0  0  0  0  0
   -7.1387    1.4721   26.7399 C   0  0  0  0  0  0  0  0  0  0  0  0
   -7.6940    0.5848   25.9060 N   0  0  0  0  0  0  0  0  0  0  0  0
   -7.1155   -0.6013   25.6906 C   0  0  0  0  0  0  0  0  0  0  0  0
   -6.2791    1.0603   27.6281 O   0  0  0  0  0  0  0  0  0  0  0  0
   -7.2759    6.0663   28.1982 O   0  0  0  0  0  0  0  0  0  0  0  0
   -6.3643   -1.0756   26.2917 C   0  0  0  0  0  0  0  0  0  0  0  0
  6  7  1  0
  4 13  1  0
 13 14  1  0
 14 15  1  0
 13 16  2  0
  2 17  1  0
 15 18  2  0
  1  2  2  0
  2  3  1  0
  3  6  2  0
  6  5  1  0
  5  4  2  0
  4  1  1  0
  7  8  2  0
  8  9  1  0
  9 10  2  0
 10 11  1  0
 11 12  2  0
 12  7  1  0
M  END
$$$$
