No_3972-complexes_sdf/6BKW-FPZ/2024-09-17-14-21-01/
     RDKit          3D

 22 24  0  0  0  0  0  0  0  0999 V2000
   -7.2496    3.8871   27.4508 C   0  0  0  0  0  0  0  0  0  0  0  0
   -7.9379    4.9063   27.8518 C   0  0  1  0  0  0  0  0  0  0  0  0
   -7.5112    6.1898   27.6280 C   0  0  0  0  0  0  0  0  0  0  0  0
   -9.3085    4.6933   28.2930 C   0  0  0  0  0  0  0  0  0  0  0  0
   -7.7804    2.5137   27.6845 C   0  0  2  0  0  0  0  0  0  0  0  0
   -7.0499    1.4112   27.1570 C   0  0  0  0  0  0  0  0  0  0  0  0
   -7.7147    0.4723   26.3729 C   0  0  0  0  0  0  0  0  0  0  0  0
   -8.9241    0.1594   26.8148 C   0  0  2  0  0  0  0  0  0  0  0  0
   -9.8209    1.2968   27.1196 C   0  0  1  0  0  0  0  0  0  0  0  0
   -9.4077    2.2800   27.1267 C   0  0  1  0  0  0  0  0  0  0  0  0
   -9.9003    3.4665   28.3276 C   0  0  0  0  0  0  0  0  0  0  0  0
   -9.5940    3.0992   25.8197 C   0  0  0  0  0  0  0  0  0  0  0  0
  -10.5276    2.5493   24.9891 C   0  0  0  0  0  0  0  0  0  0  0  0
  -11.0082    3.3732   24.3610 C   0  0  0  0  0  0  0  0  0  0  0  0
  -12.1004    3.0713   23.4080 C   0  0  0  0  0  0  0  0  0  0  0  0
  -12.7289    4.1045   22.7800 C   0  0  0  0  0  0  0  0  0  0  0  0
  -11.0983    1.0979   26.3022 C   0  0  0  0  0  0  0  0  0  0  0  0
  -11.1458    1.4527   25.0118 C   0  0  0  0  0  0  0  0  0  0  0  0
  -10.6500    4.8129   24.2004 C   0  0  0  0  0  0  0  0  0  0  0  0
  -13.9133    3.8840   22.2581 C   0  0  0  0  0  0  0  0  0  0  0  0
   -9.3138   -1.2341   27.0911 C   0  0  0  0  0  0  0  0  0  0  0  0
   -9.3028   -1.6435   28.4449 C   0  0  0  0  0  0  0  0  0  0  0  0
  1  2  1  0
  2  3  1  6
  2  4  1  0
  5  1  1  6
  5  6  1  0
  6  7  1  0
  7  8  1  0
  8  9  1  0
  5 10  1  0
  9 10  1  0
 10 11  1  1
 10 12  1  0
 12 13  1  0
 13 14  2  3
 14 15  1  0
 15 16  2  3
  9 17  1  6
 13 18  1  0
 17 18  1  0
 14 19  1  0
 16 20  1  0
  8 21  1  1
 21 22  2  0
  4 11  1  0
M  END
$$$$
