No_3746-complexes_sdf/6BKW-FPZ/2024-09-17-14-21-01/
     RDKit          3D

 21 23  0  0  0  0  0  0  0  0999 V2000
   -7.7129    4.2099   27.0854 C   0  0  0  0  0  0  0  0  0  0  0  0
   -7.7814    5.1722   27.8972 C   0  0  0  0  0  0  0  0  0  0  0  0
   -8.8998    3.8713   26.3707 C   0  0  0  0  0  0  0  0  0  0  0  0
   -8.9563    2.6796   25.5490 C   0  0  0  0  0  0  0  0  0  0  0  0
   -8.8131    6.1334   27.9344 C   0  0  0  0  0  0  0  0  0  0  0  0
   -9.9804    5.8121   27.1929 C   0  0  0  0  0  0  0  0  0  0  0  0
   -9.9861    4.6836   26.4532 C   0  0  0  0  0  0  0  0  0  0  0  0
   -8.3568    1.4858   26.0897 C   0  0  0  0  0  0  0  0  0  0  0  0
   -8.4079    0.2933   25.4091 C   0  0  0  0  0  0  0  0  0  0  0  0
   -8.9806    0.3321   24.1519 C   0  0  0  0  0  0  0  0  0  0  0  0
   -9.5319    1.4841   23.5870 C   0  0  0  0  0  0  0  0  0  0  0  0
   -9.4864    2.6397   24.3088 C   0  0  0  0  0  0  0  0  0  0  0  0
  -10.1307    1.4601   22.2559 C   0  0  1  0  0  0  0  0  0  0  0  0
  -10.2563    2.8494   21.4425 Cl  0  0  0  0  0  0  0  0  0  0  0  0
  -10.5035    0.2703   21.6111 C   0  0  0  0  0  0  0  0  0  0  0  0
  -11.7065   -0.1842   21.9184 C   0  0  0  0  0  0  0  0  0  0  0  0
  -12.1111   -1.4092   21.2998 C   0  0  0  0  0  0  0  0  0  0  0  0
  -13.3422   -1.9500   21.5549 C   0  0  0  0  0  0  0  0  0  0  0  0
  -14.1865   -1.2374   22.4481 C   0  0  0  0  0  0  0  0  0  0  0  0
  -13.8160   -0.0925   23.0295 C   0  0  0  0  0  0  0  0  0  0  0  0
  -12.5716    0.4590   22.8164 C   0  0  0  0  0  0  0  0  0  0  0  0
  3  4  1  0
 11 13  1  0
 13 14  1  6
 13 15  1  0
 15 16  1  0
  4  8  2  0
  8  9  1  0
  9 10  2  0
 10 11  1  0
 11 12  2  0
 12  4  1  0
  1  2  2  0
  2  5  1  0
  5  6  2  0
  6  7  1  0
  7  3  2  0
  3  1  1  0
 16 17  2  0
 17 18  1  0
 18 19  2  0
 19 20  1  0
 20 21  2  0
 21 16  1  0
M  END
$$$$
