No_3617-complexes_sdf/6BKW-FPZ/2024-09-17-14-21-01/
     RDKit          3D

 25 28  0  0  0  0  0  0  0  0999 V2000
   -7.2496    3.8871   27.4508 C   0  0  0  0  0  0  0  0  0  0  0  0
   -7.9379    4.9063   27.8518 C   0  0  0  0  0  0  0  0  0  0  0  0
   -7.5112    6.1898   27.6280 C   0  0  0  0  0  0  0  0  0  0  0  0
   -7.8078    2.6331   27.2522 C   0  0  2  0  0  0  0  0  0  0  0  0
   -7.1538    1.5087   26.7509 C   0  0  0  0  0  0  0  0  0  0  0  0
   -9.2627    2.5305   27.2363 C   0  0  0  0  0  0  0  0  0  0  0  0
  -10.0152    3.3691   27.9604 C   0  0  1  0  0  0  0  0  0  0  0  0
   -9.4363    4.7531   28.0605 C   0  0  0  0  0  0  0  0  0  0  0  0
   -6.0791    0.9966   27.6734 C   0  0  0  0  0  0  0  0  0  0  0  0
   -5.4432   -0.2142   27.4805 C   0  0  0  0  0  0  0  0  0  0  0  0
   -5.9191   -0.9567   26.4294 C   0  0  0  0  0  0  0  0  0  0  0  0
   -7.5583    0.5032   25.9380 C   0  0  0  0  0  0  0  0  0  0  0  0
   -6.9636   -0.6101   25.6545 C   0  0  0  0  0  0  0  0  0  0  0  0
  -11.3986    3.2168   28.2719 C   0  0  0  0  0  0  0  0  0  0  0  0
  -12.2285    4.1976   28.5648 C   0  0  0  0  0  0  0  0  0  0  0  0
  -11.8139    1.8896   28.6318 C   0  0  0  0  0  0  0  0  0  0  0  0
  -13.5643    4.0973   29.0208 C   0  0  0  0  0  0  0  0  0  0  0  0
  -13.1021    1.6321   29.0836 C   0  0  0  0  0  0  0  0  0  0  0  0
  -13.9527    2.7597   29.2960 C   0  0  0  0  0  0  0  0  0  0  0  0
   -4.2462   -0.5515   28.2922 C   0  0  0  0  0  0  0  0  0  0  0  0
   -3.8527   -0.1578   29.8973 Br  0  0  0  0  0  0  0  0  0  0  0  0
   -3.2008   -1.3508   27.6341 C   0  0  0  0  0  0  0  0  0  0  0  0
   -3.4837   -2.2530   26.9365 C   0  0  0  0  0  0  0  0  0  0  0  0
   -4.3780   -2.5110   26.4630 C   0  0  0  0  0  0  0  0  0  0  0  0
   -5.2265   -2.0826   25.9882 C   0  0  0  0  0  0  0  0  0  0  0  0
  1  2  1  0
  2  3  2  0
  1  4  1  0
  4  5  1  6
  4  6  1  0
  6  7  1  0
  2  8  1  0
  7  8  1  0
  7 14  1  6
 10 20  1  0
 20 21  1  0
 20 22  1  0
 22 23  2  0
 23 24  1  0
 11 25  1  0
 24 25  1  0
  5  9  2  0
  9 10  1  0
 10 11  2  0
 11 13  1  0
 13 12  2  0
 12  5  1  0
 14 15  2  0
 15 17  1  0
 17 19  2  0
 19 18  1  0
 18 16  2  0
 16 14  1  0
M  END
$$$$
