No_3879-complexes_sdf/6BKW-FPZ/2024-09-17-14-21-01/
     RDKit          3D

 12 13  0  0  0  0  0  0  0  0999 V2000
   -7.7129    4.2099   27.0854 C   0  0  0  0  0  0  0  0  0  0  0  0
   -8.9133    4.4736   27.0998 C   0  0  0  0  0  0  0  0  0  0  0  0
   -9.7135    3.9633   26.0300 C   0  0  0  0  0  0  0  0  0  0  0  0
   -6.8420    4.9760   28.0851 C   0  0  0  0  0  0  0  0  0  0  0  0
   -9.9322    2.5915   25.9958 C   0  0  0  0  0  0  0  0  0  0  0  0
  -10.4230    2.0654   24.9049 C   0  0  0  0  0  0  0  0  0  0  0  0
  -10.3840    2.7482   23.7921 C   0  0  0  0  0  0  0  0  0  0  0  0
  -10.2848    4.1601   23.6991 C   0  0  0  0  0  0  0  0  0  0  0  0
   -9.8096    4.7744   24.8635 C   0  0  0  0  0  0  0  0  0  0  0  0
   -9.0421    6.0140   27.3968 C   0  0  0  0  0  0  0  0  0  0  0  0
   -9.6425    3.8668   28.4701 C   0  0  0  0  0  0  0  0  0  0  0  0
   -7.6810    6.3121   28.2214 C   0  0  0  0  0  0  0  0  0  0  0  0
  1  2  1  0
  2  3  1  0
  1  4  1  0
  2 10  1  0
  2 11  1  0
  4 12  1  0
 10 12  1  0
  3  5  2  0
  5  6  1  0
  6  7  2  0
  7  8  1  0
  8  9  2  0
  9  3  1  0
M  END
$$$$
