No_3596-complexes_sdf/6BKW-FPZ/2024-09-17-14-21-01/
     RDKit          3D

 40 44  0  0  0  0  0  0  0  0999 V2000
   -7.2496    3.8871   27.4508 C   0  0  0  0  0  0  0  0  0  0  0  0
   -7.9379    4.9063   27.8518 C   0  0  0  0  0  0  0  0  0  0  0  0
   -9.3376    4.8647   27.7795 C   0  0  0  0  0  0  0  0  0  0  0  0
   -7.8544    2.6294   27.0414 C   0  0  0  0  0  0  0  0  0  0  0  0
   -9.2852    2.6570   27.0666 C   0  0  0  0  0  0  0  0  0  0  0  0
  -10.0126    3.7528   27.4890 C   0  0  0  0  0  0  0  0  0  0  0  0
  -11.4647    3.4920   27.5096 C   0  0  0  0  0  0  0  0  0  0  0  0
  -12.0054    2.4852   27.8019 C   0  0  0  0  0  0  0  0  0  0  0  0
  -11.1766    1.2209   27.5588 C   0  0  0  0  0  0  0  0  0  0  0  0
   -9.8512    1.3199   27.1694 C   0  0  0  0  0  0  0  0  0  0  0  0
   -7.3133    6.0951   28.0874 O   0  0  0  0  0  0  0  0  0  0  0  0
  -11.9037   -0.1133   27.5921 C   0  0  0  0  0  0  0  0  0  0  0  0
  -12.2048   -0.5808   28.8176 C   0  0  0  0  0  0  0  0  0  0  0  0
  -12.7828   -1.9002   28.9689 C   0  0  0  0  0  0  0  0  0  0  0  0
  -13.0267   -2.5819   27.8110 C   0  0  0  0  0  0  0  0  0  0  0  0
  -12.7204   -2.0628   26.5992 C   0  0  0  0  0  0  0  0  0  0  0  0
  -12.1175   -0.8373   26.5015 C   0  0  0  0  0  0  0  0  0  0  0  0
  -13.7039   -3.9258   27.9074 C   0  0  0  0  0  0  0  0  0  0  0  0
  -13.8402   -4.5093   29.0399 C   0  0  0  0  0  0  0  0  0  0  0  0
  -14.4114   -5.7641   29.1950 C   0  0  0  0  0  0  0  0  0  0  0  0
  -14.8458   -6.3692   27.9845 C   0  0  0  0  0  0  0  0  0  0  0  0
  -14.6899   -5.7385   26.8079 C   0  0  0  0  0  0  0  0  0  0  0  0
  -14.0957   -4.5029   26.7388 C   0  0  0  0  0  0  0  0  0  0  0  0
  -15.1391   -6.3770   25.5694 C   0  0  0  0  0  0  0  0  0  0  0  0
  -15.9407   -7.0192   25.2626 O   0  0  0  0  0  0  0  0  0  0  0  0
  -14.1338   -6.2342   24.5727 O   0  0  0  0  0  0  0  0  0  0  0  0
   -7.1359    1.6108   26.7883 O   0  0  0  0  0  0  0  0  0  0  0  0
   -6.7213    0.7028   27.7257 C   0  0  0  0  0  0  0  0  0  0  0  0
   -5.6871   -0.2071   27.2435 C   0  0  1  0  0  0  0  0  0  0  0  0
   -5.5312   -0.6288   26.2163 C   0  0  2  0  0  0  0  0  0  0  0  0
   -6.5913   -0.8277   25.4003 C   0  0  0  0  0  0  0  0  0  0  0  0
   -6.3683   -1.0175   23.9847 C   0  0  0  0  0  0  0  0  0  0  0  0
   -4.5111   -0.2858   28.3073 C   0  0  0  0  0  0  0  0  0  0  0  0
   -4.2781   -1.0391   28.9582 C   0  0  0  0  0  0  0  0  0  0  0  0
   -3.1615   -1.0252   29.9996 C   0  0  0  0  0  0  0  0  0  0  0  0
   -2.8594    0.1860   30.4997 C   0  0  0  0  0  0  0  0  0  0  0  0
   -4.0332    1.1857   28.7580 C   0  0  0  0  0  0  0  0  0  0  0  0
   -3.1875    1.2310   29.8017 N   0  0  0  0  0  0  0  0  0  0  0  0
   -4.3255   -1.2561   25.6845 C   0  0  0  0  0  0  0  0  0  0  0  0
   -4.2124   -1.7359   24.4278 N   0  0  0  0  0  0  0  0  0  0  0  0
  2 11  1  0
  9 12  1  0
 15 18  1  0
 22 24  1  0
 24 25  2  0
 24 26  1  0
  4 27  1  0
 27 28  1  0
 29 28  1  6
 29 30  1  0
 30 31  1  0
 31 32  2  0
 29 33  1  0
 30 39  1  1
 39 40  1  0
 12 13  2  0
 13 14  1  0
 14 15  2  0
 15 16  1  0
 16 17  2  0
 17 12  1  0
 18 19  2  0
 19 20  1  0
 20 21  2  0
 21 22  1  0
 22 23  2  0
 23 18  1  0
  1  2  2  0
  2  3  1  0
  3  6  2  0
  5  4  2  0
  4  1  1  0
  5  6  1  0
  6  7  1  0
  7  8  2  0
  8  9  1  0
  9 10  2  0
 10  5  1  0
 33 34  2  0
 34 35  1  0
 35 36  2  0
 36 38  1  0
 38 37  2  0
 37 33  1  0
M  END
$$$$
