No_3408-complexes_sdf/6BKW-FPZ/2024-09-17-14-21-01/
     RDKit          3D

 14 15  0  0  0  0  0  0  0  0999 V2000
   -7.9040    3.9820   27.1177 C   0  0  0  0  0  0  0  0  0  0  0  0
   -9.0711    4.3164   27.0630 C   0  0  0  0  0  0  0  0  0  0  0  0
   -9.5294    5.4517   27.7215 C   0  0  0  0  0  0  0  0  0  0  0  0
   -9.9845    3.5634   26.2189 C   0  0  0  0  0  0  0  0  0  0  0  0
  -10.5758    2.5046   26.7628 C   0  0  0  0  0  0  0  0  0  0  0  0
  -10.4293    2.0903   27.9866 C   0  0  0  0  0  0  0  0  0  0  0  0
   -6.9363    4.6699   28.0290 C   0  0  0  0  0  0  0  0  0  0  0  0
   -7.3799    5.8161   28.6574 C   0  0  0  0  0  0  0  0  0  0  0  0
   -8.6600    6.2675   28.4438 C   0  0  0  0  0  0  0  0  0  0  0  0
  -11.4630    1.6502   25.9033 C   0  0  0  0  0  0  0  0  0  0  0  0
  -11.0918    0.9435   28.5810 C   0  0  0  0  0  0  0  0  0  0  0  0
  -12.1156    0.5470   26.4268 C   0  0  0  0  0  0  0  0  0  0  0  0
  -11.9247    0.2102   27.7770 C   0  0  0  0  0  0  0  0  0  0  0  0
   -9.3678    3.3827   24.8148 C   0  0  0  0  0  0  0  0  0  0  0  0
  2  4  1  0
  4  5  1  0
  4 14  1  0
  1  2  2  0
  2  3  1  0
  3  9  2  0
  9  8  1  0
  8  7  2  0
  7  1  1  0
  5  6  2  0
  6 11  1  0
 11 13  2  0
 13 12  1  0
 12 10  2  0
 10  5  1  0
M  END
$$$$
