No_3495-complexes_sdf/6BKW-FPZ/2024-09-17-14-21-01/
     RDKit          3D

 13 13  0  0  0  0  0  0  0  0999 V2000
   -7.7129    4.2099   27.0854 C   0  0  0  0  0  0  0  0  0  0  0  0
   -8.2112    3.0637   26.9225 C   0  0  0  0  0  0  0  0  0  0  0  0
   -8.5108    5.3904   26.9436 C   0  0  0  0  0  0  0  0  0  0  0  0
   -9.7256    5.1955   26.3518 C   0  0  0  0  0  0  0  0  0  0  0  0
   -9.4995    2.8258   26.4878 C   0  0  0  0  0  0  0  0  0  0  0  0
  -10.2542    3.9691   26.2055 C   0  0  0  0  0  0  0  0  0  0  0  0
   -7.8138    6.9227   27.2348 Cl  0  0  0  0  0  0  0  0  0  0  0  0
   -7.3640    1.8353   27.2492 C   0  0  0  0  0  0  0  0  0  0  0  0
   -6.1498    2.0141   27.7477 N   0  0  0  0  0  0  0  0  0  0  0  0
   -5.3821    0.8639   28.0195 C   0  0  0  0  0  0  0  0  0  0  0  0
   -4.0524    0.9757   28.6127 C   0  0  0  0  0  0  0  0  0  0  0  0
   -5.9496   -0.3764   27.6242 C   0  0  0  0  0  0  0  0  0  0  0  0
   -7.9190    0.6940   26.9892 O   0  0  0  0  0  0  0  0  0  0  0  0
  3  7  1  0
  2  8  1  0
  8  9  1  0
  9 10  2  3
 10 11  1  0
 10 12  1  0
  8 13  2  0
  1  2  2  0
  2  5  1  0
  5  6  2  0
  6  4  1  0
  4  3  2  0
  3  1  1  0
M  END
$$$$
