No_3594-complexes_sdf/6BKW-FPZ/2024-09-17-14-21-01/
     RDKit          3D

 33 37  0  0  0  0  0  0  0  0999 V2000
   -7.9040    3.9820   27.1177 C   0  0  0  0  0  0  0  0  0  0  0  0
   -7.8663    4.8694   27.9238 C   0  0  0  0  0  0  0  0  0  0  0  0
   -9.0491    3.8523   26.2542 C   0  0  0  0  0  0  0  0  0  0  0  0
   -8.7661    5.9491   27.9690 C   0  0  0  0  0  0  0  0  0  0  0  0
   -9.1715    2.7136   25.4037 C   0  0  0  0  0  0  0  0  0  0  0  0
   -9.8832    5.8611   27.1405 C   0  0  0  0  0  0  0  0  0  0  0  0
  -10.0016    4.7998   26.3324 C   0  0  0  0  0  0  0  0  0  0  0  0
   -8.6397    1.4769   25.7660 C   0  0  0  0  0  0  0  0  0  0  0  0
   -9.6751    2.9435   24.0420 C   0  0  0  0  0  0  0  0  0  0  0  0
   -8.7762    0.4222   24.8755 C   0  0  0  0  0  0  0  0  0  0  0  0
   -9.8061    1.8292   23.2119 C   0  0  0  0  0  0  0  0  0  0  0  0
   -9.2984    0.6012   23.6075 C   0  0  0  0  0  0  0  0  0  0  0  0
   -9.4076   -0.5467   22.6470 C   0  0  0  0  0  0  0  0  0  0  0  0
  -10.2513   -1.5533   22.9986 C   0  0  0  0  0  0  0  0  0  0  0  0
  -10.3147   -2.5752   22.2148 C   0  0  0  0  0  0  0  0  0  0  0  0
   -9.5882   -2.6550   20.9382 C   0  0  0  0  0  0  0  0  0  0  0  0
   -8.7433   -1.6059   20.5876 C   0  0  0  0  0  0  0  0  0  0  0  0
   -8.5919   -0.4823   21.4592 C   0  0  0  0  0  0  0  0  0  0  0  0
   -8.1843   -0.8811   25.2933 C   0  0  0  0  0  0  0  0  0  0  0  0
   -8.8504   -1.5954   26.1771 C   0  0  0  0  0  0  0  0  0  0  0  0
   -6.9926   -1.3413   24.7158 C   0  0  0  0  0  0  0  0  0  0  0  0
   -8.3534   -2.8537   26.6184 C   0  0  0  0  0  0  0  0  0  0  0  0
   -6.4433   -2.5628   25.1214 C   0  0  0  0  0  0  0  0  0  0  0  0
   -7.1286   -3.3017   26.0861 C   0  0  0  0  0  0  0  0  0  0  0  0
  -10.4577    2.0901   21.9388 C   0  0  0  0  0  0  0  0  0  0  0  0
  -10.4097    3.2456   21.3564 C   0  0  0  0  0  0  0  0  0  0  0  0
  -11.4153    4.1043   21.3528 C   0  0  0  0  0  0  0  0  0  0  0  0
  -12.6124    3.9225   22.0000 C   0  0  0  0  0  0  0  0  0  0  0  0
  -12.8505    3.0858   22.7894 C   0  0  0  0  0  0  0  0  0  0  0  0
  -14.0211    3.0610   23.5936 C   0  0  0  0  0  0  0  0  0  0  0  0
  -14.9268    4.0711   23.3689 C   0  0  0  0  0  0  0  0  0  0  0  0
  -14.7114    5.1092   22.5354 C   0  0  0  0  0  0  0  0  0  0  0  0
  -13.5307    5.1491   21.9052 C   0  0  0  0  0  0  0  0  0  0  0  0
  3  5  1  0
 12 13  1  0
 10 19  1  0
 11 25  1  0
 25 26  1  0
 26 27  2  3
 27 28  1  0
  5  8  2  0
  8 10  1  0
 10 12  2  0
 12 11  1  0
 11  9  2  0
  9  5  1  0
 19 20  2  0
 20 22  1  0
 22 24  2  0
 24 23  1  0
 23 21  2  0
 21 19  1  0
  1  2  2  0
  2  4  1  0
  4  6  2  0
  6  7  1  0
  7  3  2  0
  3  1  1  0
 28 29  2  0
 29 30  1  0
 30 31  2  0
 31 32  1  0
 32 33  2  0
 33 28  1  0
 13 14  2  0
 14 15  1  0
 15 16  2  0
 16 17  1  0
 17 18  2  0
 18 13  1  0
M  END
$$$$
