No_3807-complexes_sdf/6BKW-FPZ/2024-09-17-14-21-01/
     RDKit          3D

 13 13  0  0  0  0  0  0  0  0999 V2000
   -7.9040    3.9820   27.1177 C   0  0  0  0  0  0  0  0  0  0  0  0
   -9.0711    4.3164   27.0630 C   0  0  0  0  0  0  0  0  0  0  0  0
   -9.5294    5.4517   27.7215 C   0  0  0  0  0  0  0  0  0  0  0  0
   -7.4336    2.7132   26.5681 C   0  0  0  0  0  0  0  0  0  0  0  0
   -8.3353    1.8569   26.0442 C   0  0  0  0  0  0  0  0  0  0  0  0
   -9.6477    2.2853   25.9146 C   0  0  0  0  0  0  0  0  0  0  0  0
  -10.0346    3.4497   26.4483 C   0  0  0  0  0  0  0  0  0  0  0  0
   -7.8608    0.5626   25.5840 C   0  0  2  0  0  0  0  0  0  0  0  0
   -8.4177    0.1010   24.4071 C   0  0  0  0  0  0  0  0  0  0  0  0
   -7.0293   -0.2041   26.3938 C   0  0  0  0  0  0  0  0  0  0  0  0
   -6.8636    0.0377   27.7221 C   0  0  0  0  0  0  0  0  0  0  0  0
   -5.8098   -0.5197   28.3861 C   0  0  0  0  0  0  0  0  0  0  0  0
   -5.3744   -0.0515   29.6892 C   0  0  0  0  0  0  0  0  0  0  0  0
  5  8  1  0
  8  9  1  1
  8 10  1  0
 10 11  1  0
 11 12  2  3
 12 13  1  0
  3  2  1  0
  1  2  2  0
  2  7  1  0
  7  6  2  0
  6  5  1  0
  5  4  2  0
  4  1  1  0
M  END
$$$$
