No_3622-complexes_sdf/6BKW-FPZ/2024-09-17-14-21-01/
     RDKit          3D

 19 21  0  0  0  0  0  0  0  0999 V2000
   -7.9040    3.9820   27.1177 C   0  0  0  0  0  0  0  0  0  0  0  0
   -8.2057    2.8231   26.8733 C   0  0  0  0  0  0  0  0  0  0  0  0
   -7.0130    4.3706   28.1140 C   0  0  0  0  0  0  0  0  0  0  0  0
   -9.3829    2.4374   26.1668 C   0  0  0  0  0  0  0  0  0  0  0  0
   -9.6934    1.0230   26.0164 C   0  0  0  0  0  0  0  0  0  0  0  0
   -8.8160    0.1163   26.5021 C   0  0  0  0  0  0  0  0  0  0  0  0
   -7.6769    0.4330   27.1868 C   0  0  0  0  0  0  0  0  0  0  0  0
   -7.3087    1.7883   27.4390 C   0  0  0  0  0  0  0  0  0  0  0  0
   -8.6240    5.1103   26.4486 C   0  0  0  0  0  0  0  0  0  0  0  0
   -6.8738    5.8085   28.5202 C   0  0  0  0  0  0  0  0  0  0  0  0
   -8.4982    6.4730   26.8009 C   0  0  0  0  0  0  0  0  0  0  0  0
   -7.5833    6.7520   27.8233 C   0  0  0  0  0  0  0  0  0  0  0  0
   -6.8075   -0.6305   27.7682 C   0  0  1  0  0  0  0  0  0  0  0  0
   -5.2971   -0.2632   28.2650 Cl  0  0  0  0  0  0  0  0  0  0  0  0
   -7.2377   -1.9342   27.9569 C   0  0  0  0  0  0  0  0  0  0  0  0
   -8.1728   -2.4134   27.7443 C   0  0  0  0  0  0  0  0  0  0  0  0
   -9.4089   -2.0797   26.9979 C   0  0  0  0  0  0  0  0  0  0  0  0
   -9.4300   -1.0953   26.6351 C   0  0  0  0  0  0  0  0  0  0  0  0
  -10.6753    0.8215   25.2849 F   0  0  0  0  0  0  0  0  0  0  0  0
  1  2  1  0
  7 13  1  0
 13 14  1  1
 13 15  1  0
 15 16  2  0
 16 17  1  0
  6 18  1  0
 17 18  2  0
  5 19  1  0
  2  4  2  0
  4  5  1  0
  5  6  2  0
  6  7  1  0
  7  8  2  0
  8  2  1  0
  1  3  2  0
  3 10  1  0
 10 12  2  0
 12 11  1  0
 11  9  2  0
  9  1  1  0
M  END
$$$$
