No_3630-complexes_sdf/6BKW-FPZ/2024-09-17-14-21-01/
     RDKit          3D

 15 15  0  0  0  0  0  0  0  0999 V2000
   -7.7129    4.2099   27.0854 C   0  0  0  0  0  0  0  0  0  0  0  0
   -8.9133    4.4736   27.0998 C   0  0  0  0  0  0  0  0  0  0  0  0
   -9.4643    5.5426   27.7628 C   0  0  0  0  0  0  0  0  0  0  0  0
   -7.2009    2.9448   26.6134 C   0  0  0  0  0  0  0  0  0  0  0  0
   -8.1365    1.9533   26.2981 C   0  0  0  0  0  0  0  0  0  0  0  0
   -9.4514    2.2934   26.2667 C   0  0  0  0  0  0  0  0  0  0  0  0
   -9.8600    3.4834   26.7068 C   0  0  0  0  0  0  0  0  0  0  0  0
   -7.6019    0.6586   25.9004 C   0  0  0  0  0  0  0  0  0  0  0  0
   -6.7961    0.0318   26.5621 O   0  0  0  0  0  0  0  0  0  0  0  0
   -6.6180    0.2607   27.7835 C   0  0  0  0  0  0  0  0  0  0  0  0
   -5.9828   -0.8547   28.5733 C   0  0  0  0  0  0  0  0  0  0  0  0
   -6.6281   -1.8279   28.9356 C   0  0  0  0  0  0  0  0  0  0  0  0
   -6.4759   -2.5563   29.6738 C   0  0  0  0  0  0  0  0  0  0  0  0
   -5.2133   -2.5017   30.5116 C   0  0  0  0  0  0  0  0  0  0  0  0
   -4.3820   -1.4145   30.2207 C   0  0  0  0  0  0  0  0  0  0  0  0
  5  8  1  0
  8  9  1  0
  9 10  1  0
 10 11  2  3
 11 12  1  0
 12 13  1  0
 13 14  2  3
 14 15  1  0
  3  2  1  0
  1  2  2  0
  2  7  1  0
  7  6  2  0
  6  5  1  0
  5  4  2  0
  4  1  1  0
M  END
$$$$
