No_3160-complexes_sdf/6BKW-FPZ/2024-09-17-14-21-01/
     RDKit          3D

 40 43  0  0  0  0  0  0  0  0999 V2000
   -7.7129    4.2099   27.0854 C   0  0  0  0  0  0  0  0  0  0  0  0
   -8.2112    3.0637   26.9225 C   0  0  0  0  0  0  0  0  0  0  0  0
   -7.0021    4.5281   28.2396 C   0  0  0  0  0  0  0  0  0  0  0  0
   -7.5497    1.9016   27.4549 C   0  0  0  0  0  0  0  0  0  0  0  0
   -6.3677    2.2142   28.2276 C   0  0  0  0  0  0  0  0  0  0  0  0
   -6.0061    3.5229   28.4663 C   0  0  0  0  0  0  0  0  0  0  0  0
   -8.7045    5.3687   26.6705 C   0  0  1  0  0  0  0  0  0  0  0  0
   -8.7431    6.5901   27.3433 C   0  0  0  0  0  0  0  0  0  0  0  0
   -9.4577    5.1504   25.4628 C   0  0  0  0  0  0  0  0  0  0  0  0
   -5.4574    1.0843   28.5638 C   0  0  0  0  0  0  0  0  0  0  0  0
   -4.6471    0.4756   27.7116 C   0  0  0  0  0  0  0  0  0  0  0  0
   -3.6924   -0.4990   28.1270 C   0  0  0  0  0  0  0  0  0  0  0  0
   -3.6488   -0.8769   29.4901 C   0  0  0  0  0  0  0  0  0  0  0  0
   -4.5343   -0.2549   30.3530 C   0  0  0  0  0  0  0  0  0  0  0  0
   -5.3235    0.7330   29.9333 C   0  0  0  0  0  0  0  0  0  0  0  0
   -4.4983   -0.6183   31.7992 C   0  0  0  0  0  0  0  0  0  0  0  0
   -3.6797   -0.5769   32.4843 O   0  0  0  0  0  0  0  0  0  0  0  0
   -5.7629   -1.0356   32.2405 O   0  0  0  0  0  0  0  0  0  0  0  0
  -10.3283    4.2617   25.4115 N   0  0  0  0  0  0  0  0  0  0  0  0
  -11.2338    4.0160   26.2819 C   0  0  0  0  0  0  0  0  0  0  0  0
  -12.3455    3.2101   26.0996 C   0  0  0  0  0  0  0  0  0  0  0  0
  -10.5422    3.5942   24.1202 C   0  0  0  0  0  0  0  0  0  0  0  0
  -11.5265    2.8274   23.8110 C   0  0  0  0  0  0  0  0  0  0  0  0
  -12.4992    2.6233   24.8371 C   0  0  0  0  0  0  0  0  0  0  0  0
   -2.7559   -1.0816   27.1461 C   0  0  0  0  0  0  0  0  0  0  0  0
   -1.7301   -0.5108   27.1021 F   0  0  0  0  0  0  0  0  0  0  0  0
   -3.4179   -0.9832   25.9175 F   0  0  0  0  0  0  0  0  0  0  0  0
   -2.5826   -2.3754   27.3975 F   0  0  0  0  0  0  0  0  0  0  0  0
  -13.5420    1.8261   24.5465 O   0  0  0  0  0  0  0  0  0  0  0  0
  -14.1065    1.0764   25.4685 C   0  0  0  0  0  0  0  0  0  0  0  0
  -13.3682    0.1501   26.0522 C   0  0  0  0  0  0  0  0  0  0  0  0
  -12.5183   -0.4919   25.5236 O   0  0  0  0  0  0  0  0  0  0  0  0
  -13.5367   -0.0723   27.4657 N   0  0  0  0  0  0  0  0  0  0  0  0
  -12.7041   -1.0223   28.2263 C   0  0  0  0  0  0  0  0  0  0  0  0
  -11.4589   -0.6641   28.4054 C   0  0  0  0  0  0  0  0  0  0  0  0
  -10.5074   -1.5924   28.9044 C   0  0  0  0  0  0  0  0  0  0  0  0
  -10.9826   -2.7218   29.5461 C   0  0  0  0  0  0  0  0  0  0  0  0
  -12.3567   -2.9997   29.4402 C   0  0  0  0  0  0  0  0  0  0  0  0
  -13.2080   -2.1200   28.7830 C   0  0  0  0  0  0  0  0  0  0  0  0
  -14.5314    0.6192   28.2602 C   0  0  0  0  0  0  0  0  0  0  0  0
  1  7  1  0
  7  8  1  6
  7  9  1  0
  5 10  1  0
 14 16  1  0
 16 17  2  0
 16 18  1  0
  9 19  1  0
 19 20  1  0
 19 22  1  0
 21 24  1  0
 23 24  1  0
 12 25  1  0
 25 26  1  0
 25 27  1  0
 25 28  1  0
 24 29  1  0
 29 30  1  0
 30 31  1  0
 31 32  2  0
 31 33  1  0
 33 34  1  0
 33 40  1  0
 20 21  1  0
 23 22  1  0
  1  2  2  0
  2  4  1  0
  4  5  2  0
  5  6  1  0
  6  3  2  0
  3  1  1  0
 34 35  2  0
 35 36  1  0
 36 37  2  0
 37 38  1  0
 38 39  2  0
 39 34  1  0
 10 11  2  0
 11 12  1  0
 12 13  2  0
 13 14  1  0
 14 15  2  0
 15 10  1  0
M  END
$$$$
