No_3203-complexes_sdf/6BKW-FPZ/2024-09-17-14-21-01/
     RDKit          3D

 19 21  0  0  0  0  0  0  0  0999 V2000
   -7.9040    3.9820   27.1177 C   0  0  0  0  0  0  0  0  0  0  0  0
   -7.8663    4.8694   27.9238 C   0  0  0  0  0  0  0  0  0  0  0  0
   -7.4698    2.6989   27.4277 C   0  0  0  0  0  0  0  0  0  0  0  0
   -6.1691    2.6024   27.7920 C   0  0  0  0  0  0  0  0  0  0  0  0
   -6.4584    5.0822   28.3780 C   0  0  0  0  0  0  0  0  0  0  0  0
   -5.3261    1.4858   27.9298 C   0  0  0  0  0  0  0  0  0  0  0  0
   -5.6317    3.9318   28.4041 C   0  0  0  0  0  0  0  0  0  0  0  0
   -5.8366    0.2210   27.5803 C   0  0  0  0  0  0  0  0  0  0  0  0
   -5.1118   -0.8999   27.7338 C   0  0  0  0  0  0  0  0  0  0  0  0
   -3.7697   -0.7775   28.1847 C   0  0  0  0  0  0  0  0  0  0  0  0
   -3.1968    0.4294   28.4582 C   0  0  0  0  0  0  0  0  0  0  0  0
   -4.0026    1.5682   28.3908 C   0  0  0  0  0  0  0  0  0  0  0  0
   -9.3446    4.0374   26.4104 C   0  0  0  0  0  0  0  0  0  0  0  0
  -10.4565    3.9402   26.8391 C   0  0  0  0  0  0  0  0  0  0  0  0
  -10.6465    3.9362   28.3046 C   0  0  0  0  0  0  0  0  0  0  0  0
  -11.9051    3.7264   28.9666 C   0  0  0  0  0  0  0  0  0  0  0  0
  -13.0514    3.8786   28.2349 C   0  0  0  0  0  0  0  0  0  0  0  0
  -12.9311    4.0290   26.8011 C   0  0  0  0  0  0  0  0  0  0  0  0
  -11.6815    4.1258   26.1957 C   0  0  0  0  0  0  0  0  0  0  0  0
  4  6  1  0
  1 13  1  0
 13 14  1  0
 14 15  2  0
 15 16  1  0
 16 17  2  0
 17 18  1  0
 18 19  2  0
 19 14  1  0
  6  8  2  0
  8  9  1  0
  9 10  2  0
 10 11  1  0
 11 12  2  0
 12  6  1  0
  1  2  2  0
  2  5  1  0
  5  7  2  0
  7  4  1  0
  4  3  2  0
  3  1  1  0
M  END
$$$$
