No_3992-complexes_sdf/6BKW-FPZ/2024-09-17-14-21-01/
     RDKit          3D

 31 34  0  0  0  0  0  0  0  0999 V2000
   -7.2496    3.8871   27.4508 C   0  0  0  0  0  0  0  0  0  0  0  0
   -8.5096    4.0291   27.2770 C   0  0  0  0  0  0  0  0  0  0  0  0
   -9.2669    5.1645   27.5845 C   0  0  2  0  0  0  0  0  0  0  0  0
   -8.4566    6.3212   27.8001 C   0  0  0  0  0  0  0  0  0  0  0  0
   -6.6044    2.5801   27.2072 C   0  0  0  0  0  0  0  0  0  0  0  0
   -7.3819    1.4822   27.0097 C   0  0  0  0  0  0  0  0  0  0  0  0
   -8.7419    1.6392   26.7945 C   0  0  0  0  0  0  0  0  0  0  0  0
   -9.3915    2.8607   27.0849 C   0  0  0  0  0  0  0  0  0  0  0  0
  -10.6457    5.2284   27.7929 C   0  0  0  0  0  0  0  0  0  0  0  0
   -6.5798    0.2827   26.7453 C   0  0  0  0  0  0  0  0  0  0  0  0
   -6.8879   -0.5023   25.9082 O   0  0  0  0  0  0  0  0  0  0  0  0
   -5.8842   -0.2085   27.9145 N   0  0  0  0  0  0  0  0  0  0  0  0
   -5.1350   -1.0515   28.0980 C   0  0  0  0  0  0  0  0  0  0  0  0
   -4.1467   -1.1347   28.3245 C   0  0  0  0  0  0  0  0  0  0  0  0
   -5.9867   -2.3606   28.1901 C   0  0  0  0  0  0  0  0  0  0  0  0
   -3.2583    0.1474   28.5628 C   0  0  0  0  0  0  0  0  0  0  0  0
   -5.2976   -3.4698   28.3743 C   0  0  0  0  0  0  0  0  0  0  0  0
   -3.9552   -3.4538   28.6563 C   0  0  0  0  0  0  0  0  0  0  0  0
   -3.2303   -2.2754   28.7196 C   0  0  0  0  0  0  0  0  0  0  0  0
   -3.6719    1.0823   29.2671 O   0  0  0  0  0  0  0  0  0  0  0  0
   -2.0510    0.1992   28.1092 O   0  0  0  0  0  0  0  0  0  0  0  0
   -8.8340    7.4979   26.9047 C   0  0  0  0  0  0  0  0  0  0  0  0
  -11.3624    4.1205   28.0015 C   0  0  1  0  0  0  0  0  0  0  0  0
  -12.7419    4.0602   28.2944 C   0  0  0  0  0  0  0  0  0  0  0  0
  -10.7621    2.8260   27.6171 C   0  0  0  0  0  0  0  0  0  0  0  0
  -13.1242    3.5573   29.5545 C   0  0  0  0  0  0  0  0  0  0  0  0
  -14.4176    3.5709   30.0980 C   0  0  0  0  0  0  0  0  0  0  0  0
  -15.3742    4.2360   29.3199 C   0  0  0  0  0  0  0  0  0  0  0  0
  -15.0270    4.8200   28.0730 C   0  0  0  0  0  0  0  0  0  0  0  0
  -13.7270    4.8135   27.6129 C   0  0  0  0  0  0  0  0  0  0  0  0
  -11.4378    1.7602   27.5889 O   0  0  0  0  0  0  0  0  0  0  0  0
  2  3  1  0
  3  4  1  1
  3  9  1  0
  6 10  1  0
 10 11  2  0
 10 12  1  0
 12 13  1  0
 14 16  1  0
 16 20  2  0
 16 21  1  0
  4 22  1  0
 23 24  1  6
  8 25  1  0
 23 25  1  0
 25 31  2  0
  9 23  1  0
 24 26  2  0
 26 27  1  0
 27 28  2  0
 28 29  1  0
 29 30  2  0
 30 24  1  0
  1  2  2  0
  2  8  1  0
  8  7  2  0
  7  6  1  0
  6  5  2  0
  5  1  1  0
 13 14  2  0
 14 19  1  0
 19 18  2  0
 18 17  1  0
 17 15  2  0
 15 13  1  0
M  END
$$$$
