No_3094-complexes_sdf/6BKW-FPZ/2024-09-17-14-21-01/
     RDKit          3D

  9  9  0  0  0  0  0  0  0  0999 V2000
   -7.7129    4.2099   27.0854 C   0  0  0  0  0  0  0  0  0  0  0  0
   -7.7814    5.1722   27.8972 C   0  0  0  0  0  0  0  0  0  0  0  0
   -8.8255    3.2789   27.1191 C   0  0  0  0  0  0  0  0  0  0  0  0
   -9.9209    3.4734   27.9101 C   0  0  0  0  0  0  0  0  0  0  0  0
  -10.0316    4.7089   28.6463 C   0  0  0  0  0  0  0  0  0  0  0  0
   -8.9258    5.5669   28.6427 C   0  0  0  0  0  0  0  0  0  0  0  0
   -8.6994    1.9948   26.3493 C   0  0  0  0  0  0  0  0  0  0  0  0
   -9.1697    1.9656   25.0734 C   0  0  0  0  0  0  0  0  0  0  0  0
   -9.0939    0.8289   24.2873 C   0  0  0  0  0  0  0  0  0  0  0  0
  3  7  1  0
  7  8  2  3
  8  9  1  0
  1  2  2  0
  2  6  1  0
  6  5  2  0
  5  4  1  0
  4  3  2  0
  3  1  1  0
M  END
$$$$
