No_3451-complexes_sdf/6BKW-FPZ/2024-09-17-14-21-01/
     RDKit          3D

 30 32  0  0  0  0  0  0  0  0999 V2000
   -7.9040    3.9820   27.1177 C   0  0  0  0  0  0  0  0  0  0  0  0
   -7.8663    4.8694   27.9238 C   0  0  0  0  0  0  0  0  0  0  0  0
   -9.0501    3.8017   26.2617 C   0  0  0  0  0  0  0  0  0  0  0  0
  -10.0189    4.7608   26.3707 C   0  0  0  0  0  0  0  0  0  0  0  0
   -8.6973    5.9722   27.8968 C   0  0  0  0  0  0  0  0  0  0  0  0
   -9.8216    5.8946   27.1241 C   0  0  0  0  0  0  0  0  0  0  0  0
   -9.1437    2.6293   25.4175 C   0  0  0  0  0  0  0  0  0  0  0  0
   -8.6170    1.4258   25.8177 C   0  0  0  0  0  0  0  0  0  0  0  0
   -8.6844    0.3194   24.9788 C   0  0  0  0  0  0  0  0  0  0  0  0
   -9.3359    0.4939   23.7289 C   0  0  0  0  0  0  0  0  0  0  0  0
   -9.8521    1.7195   23.3158 C   0  0  0  0  0  0  0  0  0  0  0  0
   -9.7240    2.7821   24.1593 C   0  0  0  0  0  0  0  0  0  0  0  0
   -9.4499   -0.8719   22.6463 Cl  0  0  0  0  0  0  0  0  0  0  0  0
  -10.6502    1.8937   21.6351 Br  0  0  0  0  0  0  0  0  0  0  0  0
   -6.6839    5.1156   28.6930 O   0  0  0  0  0  0  0  0  0  0  0  0
   -8.1128   -0.9680   25.3739 C   0  0  0  0  0  0  0  0  0  0  0  0
   -7.1132   -0.9248   26.1602 C   0  0  0  0  0  0  0  0  0  0  0  0
   -6.7915   -2.2035   26.9335 C   0  0  0  0  0  0  0  0  0  0  0  0
   -7.3330   -3.3061   26.4508 C   0  0  0  0  0  0  0  0  0  0  0  0
   -8.3056   -3.2796   25.4970 C   0  0  0  0  0  0  0  0  0  0  0  0
   -8.7755   -2.1022   24.9936 C   0  0  0  0  0  0  0  0  0  0  0  0
   -8.9282   -4.4091   25.1136 O   0  0  0  0  0  0  0  0  0  0  0  0
   -9.7217   -4.6070   24.2202 C   0  0  0  0  0  0  0  0  0  0  0  0
  -10.3579   -5.9247   23.8855 C   0  0  0  0  0  0  0  0  0  0  0  0
  -11.1289   -6.0819   23.0629 O   0  0  0  0  0  0  0  0  0  0  0  0
   -9.9219   -6.8892   24.6184 O   0  0  0  0  0  0  0  0  0  0  0  0
   -5.6533   -2.0939   27.8976 C   0  0  0  0  0  0  0  0  0  0  0  0
   -5.4065   -1.1500   28.2440 F   0  0  0  0  0  0  0  0  0  0  0  0
   -6.1200   -2.7343   29.0568 F   0  0  0  0  0  0  0  0  0  0  0  0
   -4.6638   -2.7994   27.4473 F   0  0  0  0  0  0  0  0  0  0  0  0
  3  7  1  0
 10 13  1  0
 11 14  1  0
  2 15  1  0
  9 16  1  0
 20 22  1  0
 22 23  1  0
 23 24  1  0
 24 25  1  0
 24 26  2  0
 18 27  1  0
 27 28  1  0
 27 29  1  0
 27 30  1  0
  1  2  2  0
  2  5  1  0
  5  6  2  0
  6  4  1  0
  4  3  2  0
  3  1  1  0
  7  8  2  0
  8  9  1  0
  9 10  2  0
 10 11  1  0
 11 12  2  0
 12  7  1  0
 16 17  2  0
 17 18  1  0
 18 19  2  0
 19 20  1  0
 20 21  2  0
 21 16  1  0
M  END
$$$$
