No_3349-complexes_sdf/6BKW-FPZ/2024-09-17-14-21-01/
     RDKit          3D

 40 44  0  0  0  0  0  0  0  0999 V2000
   -7.9040    3.9820   27.1177 C   0  0  0  0  0  0  0  0  0  0  0  0
   -7.8663    4.8694   27.9238 C   0  0  0  0  0  0  0  0  0  0  0  0
   -9.0953    3.1697   27.0532 C   0  0  0  0  0  0  0  0  0  0  0  0
  -10.1313    3.4052   27.8871 C   0  0  0  0  0  0  0  0  0  0  0  0
   -8.9489    5.3814   28.6671 C   0  0  0  0  0  0  0  0  0  0  0  0
  -10.1039    4.5714   28.7102 C   0  0  0  0  0  0  0  0  0  0  0  0
   -8.8386    1.9749   26.1386 C   0  0  0  0  0  0  0  0  0  0  0  0
   -8.1731    0.8709   26.5833 C   0  0  0  0  0  0  0  0  0  0  0  0
   -7.9167   -0.1979   25.8444 C   0  0  0  0  0  0  0  0  0  0  0  0
   -8.4446   -0.1553   24.5236 C   0  0  0  0  0  0  0  0  0  0  0  0
   -9.1189    0.9524   24.0157 C   0  0  0  0  0  0  0  0  0  0  0  0
   -9.3093    2.0416   24.8625 C   0  0  0  0  0  0  0  0  0  0  0  0
   -9.9839    3.2386   24.2927 C   0  0  0  0  0  0  0  0  0  0  0  0
  -10.7159    3.2515   23.1531 C   0  0  0  0  0  0  0  0  0  0  0  0
  -11.3884    4.3945   22.7882 C   0  0  0  0  0  0  0  0  0  0  0  0
  -11.1096    5.5678   23.5335 C   0  0  0  0  0  0  0  0  0  0  0  0
  -10.2541    5.5379   24.6129 C   0  0  0  0  0  0  0  0  0  0  0  0
   -9.7218    4.4670   25.0497 C   0  0  0  0  0  0  0  0  0  0  0  0
  -11.3212    2.5629   27.8897 C   0  0  0  0  0  0  0  0  0  0  0  0
  -12.3152    2.8432   28.7991 C   0  0  0  0  0  0  0  0  0  0  0  0
  -13.4701    1.9913   28.9530 C   0  0  0  0  0  0  0  0  0  0  0  0
  -13.4516    0.8555   28.1488 C   0  0  0  0  0  0  0  0  0  0  0  0
  -12.4572    0.5604   27.2391 C   0  0  0  0  0  0  0  0  0  0  0  0
  -11.3804    1.4173   27.1636 C   0  0  0  0  0  0  0  0  0  0  0  0
  -12.5778   -0.5325   26.5262 F   0  0  0  0  0  0  0  0  0  0  0  0
   -7.6318    0.8385   28.0499 C   0  0  0  0  0  0  0  0  0  0  0  0
   -6.6092    5.8502   28.0247 C   0  0  0  0  0  0  0  0  0  0  0  0
   -6.2247    0.2370   28.0835 C   0  0  0  0  0  0  0  0  0  0  0  0
   -5.1382    1.0778   27.9417 C   0  0  0  0  0  0  0  0  0  0  0  0
   -3.8362    0.6106   28.0779 C   0  0  0  0  0  0  0  0  0  0  0  0
   -3.6181   -0.7222   28.3218 C   0  0  0  0  0  0  0  0  0  0  0  0
   -4.7161   -1.5728   28.3800 C   0  0  0  0  0  0  0  0  0  0  0  0
   -6.0195   -1.1033   28.2847 C   0  0  0  0  0  0  0  0  0  0  0  0
   -2.2146   -1.1606   28.4809 C   0  0  0  0  0  0  0  0  0  0  0  0
   -1.4197   -1.1271   27.4057 C   0  0  0  0  0  0  0  0  0  0  0  0
   -1.7576   -1.6032   29.7687 C   0  0  0  0  0  0  0  0  0  0  0  0
   -2.3953   -1.1701   30.9275 C   0  0  0  0  0  0  0  0  0  0  0  0
   -2.1010   -1.7435   32.2029 C   0  0  0  0  0  0  0  0  0  0  0  0
   -0.9786   -2.5112   32.3112 C   0  0  0  0  0  0  0  0  0  0  0  0
   -0.2619   -2.8982   31.1995 C   0  0  0  0  0  0  0  0  0  0  0  0
  3  7  1  0
 12 13  1  0
  4 19  1  0
 23 25  1  0
  8 26  1  0
  2 27  1  0
 26 28  1  0
 31 34  1  0
 34 35  1  0
 34 36  1  0
 36 37  1  0
 37 38  2  3
 38 39  1  0
 39 40  2  0
 19 20  2  0
 20 21  1  0
 21 22  2  0
 22 23  1  0
 23 24  2  0
 24 19  1  0
  7  8  1  0
  8  9  2  0
  9 10  1  0
 10 11  2  0
 11 12  1  0
 12  7  2  0
 28 29  2  0
 29 30  1  0
 30 31  2  0
 31 32  1  0
 32 33  2  0
 33 28  1  0
 13 14  2  0
 14 15  1  0
 15 16  2  0
 16 17  1  0
 17 18  2  0
 18 13  1  0
  1  2  2  0
  2  5  1  0
  5  6  2  0
  6  4  1  0
  4  3  2  0
  3  1  1  0
M  END
$$$$
