No_3154-complexes_sdf/6BKW-FPZ/2024-09-17-14-21-01/
     RDKit          3D

 27 31  0  0  0  0  0  0  0  0999 V2000
   -7.7129    4.2099   27.0854 C   0  0  0  0  0  0  0  0  0  0  0  0
   -8.2112    3.0637   26.9225 C   0  0  0  0  0  0  0  0  0  0  0  0
   -9.4446    2.8304   26.1868 C   0  0  0  0  0  0  0  0  0  0  0  0
   -8.4697    5.3956   26.7238 C   0  0  0  0  0  0  0  0  0  0  0  0
   -9.6172    5.2111   25.9513 C   0  0  0  0  0  0  0  0  0  0  0  0
  -10.0424    3.9782   25.6873 C   0  0  0  0  0  0  0  0  0  0  0  0
   -7.5056    1.8167   27.4088 C   0  0  0  0  0  0  0  0  0  0  0  0
   -6.2319    1.8972   27.8053 N   0  0  0  0  0  0  0  0  0  0  0  0
   -5.5697    0.7500   28.1820 C   0  0  0  0  0  0  0  0  0  0  0  0
   -6.2045   -0.4233   28.0802 C   0  0  0  0  0  0  0  0  0  0  0  0
   -7.9663    0.5060   27.3448 C   0  0  0  0  0  0  0  0  0  0  0  0
   -7.4302   -0.5480   27.7381 C   0  0  0  0  0  0  0  0  0  0  0  0
   -4.2063    0.9780   28.5355 N   0  0  0  0  0  0  0  0  0  0  0  0
   -7.9724    6.5852   26.9714 F   0  0  0  0  0  0  0  0  0  0  0  0
   -3.4636   -0.0833   29.0444 C   0  0  0  0  0  0  0  0  0  0  0  0
   -2.1250    0.1643   29.3668 C   0  0  0  0  0  0  0  0  0  0  0  0
   -4.0076   -1.3314   29.3458 C   0  0  0  0  0  0  0  0  0  0  0  0
   -5.3893   -1.5175   28.8094 C   0  0  0  0  0  0  0  0  0  0  0  0
  -11.2600    3.8072   24.8598 C   0  0  0  0  0  0  0  0  0  0  0  0
  -12.4502    3.5717   25.3864 C   0  0  0  0  0  0  0  0  0  0  0  0
  -11.1944    4.1064   23.4500 C   0  0  0  0  0  0  0  0  0  0  0  0
  -12.2400    4.0504   22.6124 C   0  0  0  0  0  0  0  0  0  0  0  0
  -13.6116    3.5397   24.5737 C   0  0  0  0  0  0  0  0  0  0  0  0
  -13.4688    3.8096   23.1772 C   0  0  0  0  0  0  0  0  0  0  0  0
   -1.3792   -0.9567   29.9170 C   0  0  0  0  0  0  0  0  0  0  0  0
   -2.0157   -2.1900   30.1257 C   0  0  0  0  0  0  0  0  0  0  0  0
   -3.3227   -2.3745   29.8297 C   0  0  0  0  0  0  0  0  0  0  0  0
  2  7  1  0
  4 14  1  0
  6 19  1  0
  1  2  2  0
  2  3  1  0
  3  6  2  0
  6  5  1  0
  5  4  2  0
  4  1  1  0
 19 20  2  0
 20 23  1  0
 23 24  2  0
 24 22  1  0
 22 21  2  0
 21 19  1  0
  7  8  2  0
  8  9  1  0
 10 12  1  0
 12 11  2  0
 11  7  1  0
 15 16  1  0
 16 25  2  0
 25 26  1  0
 26 27  2  0
 27 17  1  0
  9 10  2  0
 10 18  1  0
 18 17  2  0
 17 15  1  0
 15 13  2  0
 13  9  1  0
M  END
$$$$
