No_3243-complexes_sdf/6BKW-FPZ/2024-09-17-14-21-01/
     RDKit          3D

 27 29  0  0  0  0  0  0  0  0999 V2000
   -7.9040    3.9820   27.1177 C   0  0  0  0  0  0  0  0  0  0  0  0
   -9.0711    4.3164   27.0630 C   0  0  0  0  0  0  0  0  0  0  0  0
   -9.5182    5.5541   27.5777 C   0  0  0  0  0  0  0  0  0  0  0  0
   -7.4468    2.6843   26.6499 C   0  0  0  0  0  0  0  0  0  0  0  0
   -8.3856    1.7878   26.2216 C   0  0  0  0  0  0  0  0  0  0  0  0
   -9.6812    2.2328   26.0889 C   0  0  0  0  0  0  0  0  0  0  0  0
  -10.0147    3.4312   26.5259 C   0  0  0  0  0  0  0  0  0  0  0  0
   -7.9143    0.4677   25.8109 C   0  0  0  0  0  0  0  0  0  0  0  0
   -8.0689    0.0509   24.7032 N   0  0  0  0  0  0  0  0  0  0  0  0
   -7.2734   -0.8470   24.0383 C   0  0  0  0  0  0  0  0  0  0  0  0
   -7.8411   -0.3659   26.7401 O   0  0  0  0  0  0  0  0  0  0  0  0
   -8.9118    6.6056   27.1438 F   0  0  0  0  0  0  0  0  0  0  0  0
  -10.8702    5.8518   27.2506 F   0  0  0  0  0  0  0  0  0  0  0  0
   -9.3992    5.6432   28.8290 F   0  0  0  0  0  0  0  0  0  0  0  0
   -6.1020   -0.8678   24.3308 C   0  0  0  0  0  0  0  0  0  0  0  0
   -7.8959   -1.6580   22.9953 C   0  0  0  0  0  0  0  0  0  0  0  0
   -5.1961   -1.9433   23.7242 C   0  0  0  0  0  0  0  0  0  0  0  0
   -5.7320   -3.1080   23.7075 C   0  0  0  0  0  0  0  0  0  0  0  0
   -7.0301   -2.9861   22.7732 C   0  0  0  0  0  0  0  0  0  0  0  0
   -6.8869    4.6957   27.7751 O   0  0  0  0  0  0  0  0  0  0  0  0
   -9.1534    0.5620   23.7182 C   0  0  0  0  0  0  0  0  0  0  0  0
   -8.8280    1.3351   22.6719 C   0  0  0  0  0  0  0  0  0  0  0  0
   -9.8137    1.8912   21.8246 C   0  0  0  0  0  0  0  0  0  0  0  0
  -11.1445    1.7526   22.1668 C   0  0  0  0  0  0  0  0  0  0  0  0
  -11.4586    0.9338   23.2564 C   0  0  0  0  0  0  0  0  0  0  0  0
  -10.4985    0.4169   24.0761 C   0  0  0  0  0  0  0  0  0  0  0  0
  -12.1824    2.3148   21.2765 C   0  0  0  0  0  0  0  0  0  0  0  0
  2  3  1  0
  5  8  1  0
  8  9  1  0
  9 10  1  0
  8 11  2  0
  3 12  1  0
  3 13  1  0
  3 14  1  0
  1 20  1  0
  9 21  1  0
 24 27  1  0
  1  2  2  0
  2  7  1  0
  7  6  2  0
  6  5  1  0
  5  4  2  0
  4  1  1  0
 10 15  2  0
 15 17  1  0
 17 18  2  0
 18 19  1  0
 19 16  2  0
 16 10  1  0
 21 22  2  0
 22 23  1  0
 23 24  2  0
 24 25  1  0
 25 26  2  0
 26 21  1  0
M  END
$$$$
