No_3656-complexes_sdf/6BKW-FPZ/2024-09-17-14-21-01/
     RDKit          3D

 25 27  0  0  0  0  0  0  0  0999 V2000
   -7.9040    3.9820   27.1177 C   0  0  0  0  0  0  0  0  0  0  0  0
   -7.8663    4.8694   27.9238 C   0  0  0  0  0  0  0  0  0  0  0  0
   -9.0491    3.8523   26.2542 C   0  0  0  0  0  0  0  0  0  0  0  0
   -8.7661    5.9491   27.9690 C   0  0  0  0  0  0  0  0  0  0  0  0
   -9.9295    4.8502   26.2323 C   0  0  0  0  0  0  0  0  0  0  0  0
   -9.8077    5.9288   27.0933 C   0  0  0  0  0  0  0  0  0  0  0  0
   -6.6950    2.5005   27.2061 Br  0  0  0  0  0  0  0  0  0  0  0  0
   -9.1250    2.6961   25.2945 C   0  0  0  0  0  0  0  0  0  0  0  0
  -10.2304    1.9982   25.5125 C   0  0  0  0  0  0  0  0  0  0  0  0
  -10.3869    0.9177   24.7104 C   0  0  0  0  0  0  0  0  0  0  0  0
  -10.1059    0.5801   23.7834 C   0  0  0  0  0  0  0  0  0  0  0  0
  -10.2817   -0.6148   23.0000 C   0  0  0  0  0  0  0  0  0  0  0  0
   -9.7431   -0.9146   21.7329 C   0  0  0  0  0  0  0  0  0  0  0  0
   -8.9044    0.1005   21.1608 C   0  0  0  0  0  0  0  0  0  0  0  0
   -8.6815    1.2702   21.7872 C   0  0  0  0  0  0  0  0  0  0  0  0
   -9.1300    1.5402   22.9784 C   0  0  0  0  0  0  0  0  0  0  0  0
  -11.2375    2.2703   26.5332 C   0  0  0  0  0  0  0  0  0  0  0  0
  -11.8454    1.1387   27.0981 C   0  0  0  0  0  0  0  0  0  0  0  0
  -11.5149    0.0934   25.4164 C   0  0  0  0  0  0  0  0  0  0  0  0
  -12.1472    0.2263   26.4917 C   0  0  0  0  0  0  0  0  0  0  0  0
  -13.0431   -0.8885   26.9705 C   0  0  1  0  0  0  0  0  0  0  0  0
  -13.8503   -1.9067   26.1467 Cl  0  0  0  0  0  0  0  0  0  0  0  0
  -13.0960   -1.0405   28.5042 C   0  0  0  0  0  0  0  0  0  0  0  0
  -13.3815   -0.0302   28.9500 F   0  0  0  0  0  0  0  0  0  0  0  0
  -11.8687   -1.5007   28.8685 F   0  0  0  0  0  0  0  0  0  0  0  0
  1  7  1  0
  3  8  1  0
  8  9  1  0
 20 21  1  0
 21 22  1  6
 21 23  1  0
 23 24  1  0
 23 25  1  0
 10 11  1  0
 11 12  2  0
 12 13  1  0
 13 14  2  0
 14 15  1  0
 15 16  2  0
 16 11  1  0
  9 10  2  0
 10 19  1  0
 19 20  2  0
 20 18  1  0
 18 17  2  0
 17  9  1  0
  1  2  2  0
  2  4  1  0
  4  6  2  0
  6  5  1  0
  5  3  2  0
  3  1  1  0
M  END
$$$$
