No_3589-complexes_sdf/6BKW-FPZ/2024-09-17-14-21-01/
     RDKit          3D

 28 31  0  0  0  0  0  0  0  0999 V2000
   -7.9040    3.9820   27.1177 C   0  0  0  0  0  0  0  0  0  0  0  0
   -7.8663    4.8694   27.9238 C   0  0  0  0  0  0  0  0  0  0  0  0
   -7.4547    2.7080   27.4594 C   0  0  0  0  0  0  0  0  0  0  0  0
   -8.7044    6.0412   27.8492 C   0  0  0  0  0  0  0  0  0  0  0  0
   -7.9501    1.5743   26.8848 C   0  0  0  0  0  0  0  0  0  0  0  0
   -8.8711    1.7575   25.8527 C   0  0  0  0  0  0  0  0  0  0  0  0
   -9.3585    2.9740   25.5109 C   0  0  0  0  0  0  0  0  0  0  0  0
   -8.8963    4.1169   26.2090 C   0  0  0  0  0  0  0  0  0  0  0  0
   -9.5489    5.3391   26.1902 C   0  0  0  0  0  0  0  0  0  0  0  0
   -9.3820    6.3910   26.9038 C   0  0  0  0  0  0  0  0  0  0  0  0
   -7.3479    0.2445   27.1197 C   0  0  1  0  0  0  0  0  0  0  0  0
   -5.8555    0.1171   27.8461 Cl  0  0  0  0  0  0  0  0  0  0  0  0
   -7.9949   -0.9628   26.8155 C   0  0  0  0  0  0  0  0  0  0  0  0
   -9.0280   -1.4038   27.0572 C   0  0  0  0  0  0  0  0  0  0  0  0
   -9.8134   -2.0561   27.2616 C   0  0  1  0  0  0  0  0  0  0  0  0
  -10.9536   -2.4807   27.7075 C   0  0  0  0  0  0  0  0  0  0  0  0
  -12.1196   -2.3284   28.0750 C   0  0  0  0  0  0  0  0  0  0  0  0
  -12.7952   -3.5021   28.4197 C   0  0  0  0  0  0  0  0  0  0  0  0
  -12.2944   -4.6686   28.3883 C   0  0  0  0  0  0  0  0  0  0  0  0
  -11.0809   -4.9580   28.0129 C   0  0  0  0  0  0  0  0  0  0  0  0
  -10.3152   -3.8317   27.6406 C   0  0  0  0  0  0  0  0  0  0  0  0
  -10.4605   -1.0102   26.5140 N   0  0  0  0  0  0  0  0  0  0  0  0
  -11.2229   -0.8122   25.6186 C   0  0  0  0  0  0  0  0  0  0  0  0
  -10.7901   -1.0790   24.3178 C   0  0  0  0  0  0  0  0  0  0  0  0
  -12.5453   -0.4185   25.7979 C   0  0  0  0  0  0  0  0  0  0  0  0
  -11.6183   -0.8876   23.2328 C   0  0  0  0  0  0  0  0  0  0  0  0
  -13.4029   -0.1575   24.7178 C   0  0  0  0  0  0  0  0  0  0  0  0
  -12.9319   -0.4010   23.4559 C   0  0  0  0  0  0  0  0  0  0  0  0
  5 11  1  0
 11 12  1  1
 11 13  1  0
 13 14  2  3
 14 15  1  0
 15 22  1  6
 22 23  1  0
 15 16  1  0
  1  3  1  0
  3  5  2  0
  5  6  1  0
  6  7  2  0
  7  8  1  0
 16 17  2  0
 17 18  1  0
 18 19  2  0
 19 20  1  0
 20 21  2  0
 21 16  1  0
 23 24  2  0
 24 26  1  0
 26 28  2  0
 28 27  1  0
 27 25  2  0
 25 23  1  0
  1  2  2  0
  2  4  1  0
  4 10  2  0
 10  9  1  0
  9  8  2  0
  8  1  1  0
M  END
$$$$
