No_3372-complexes_sdf/6BKW-FPZ/2024-09-17-14-21-01/
     RDKit          3D

 16 17  0  0  0  0  0  0  0  0999 V2000
   -7.2496    3.8871   27.4508 C   0  0  0  0  0  0  0  0  0  0  0  0
   -7.6161    2.7143   27.1523 C   0  0  0  0  0  0  0  0  0  0  0  0
   -8.8302    2.4659   26.5056 C   0  0  0  0  0  0  0  0  0  0  0  0
   -8.1584    5.0089   27.3234 C   0  0  0  0  0  0  0  0  0  0  0  0
   -7.8138    6.3406   27.7108 C   0  0  0  0  0  0  0  0  0  0  0  0
   -9.7360    3.4989   26.3532 C   0  0  0  0  0  0  0  0  0  0  0  0
   -9.3942    4.8432   26.7521 C   0  0  0  0  0  0  0  0  0  0  0  0
   -9.1857    1.0968   26.1448 C   0  0  0  0  0  0  0  0  0  0  0  0
   -9.6641    0.1591   26.9685 C   0  0  0  0  0  0  0  0  0  0  0  0
  -10.4586    0.4442   27.9609 C   0  0  0  0  0  0  0  0  0  0  0  0
  -11.0649   -0.5163   28.8544 C   0  0  0  0  0  0  0  0  0  0  0  0
  -10.6346   -1.8245   28.7067 C   0  0  0  0  0  0  0  0  0  0  0  0
   -9.7382   -2.1850   27.7794 C   0  0  0  0  0  0  0  0  0  0  0  0
   -9.2538   -1.2171   26.9258 C   0  0  0  0  0  0  0  0  0  0  0  0
   -8.9553    0.7503   24.7752 C   0  0  0  0  0  0  0  0  0  0  0  0
   -7.8922    0.1156   24.3962 C   0  0  0  0  0  0  0  0  0  0  0  0
  4  5  1  0
  3  8  1  0
  8  9  1  0
  8 15  1  0
 15 16  2  0
  1  2  2  0
  2  3  1  0
  3  6  2  0
  6  7  1  0
  7  4  2  0
  4  1  1  0
  9 10  2  0
 10 11  1  0
 11 12  2  0
 12 13  1  0
 13 14  2  0
 14  9  1  0
M  END
$$$$
