No_3043-complexes_sdf/6BKW-FPZ/2024-09-17-14-21-01/
     RDKit          3D

 26 28  0  0  0  0  0  0  0  0999 V2000
   -7.9040    3.9820   27.1177 C   0  0  0  0  0  0  0  0  0  0  0  0
   -9.0711    4.3164   27.0630 C   0  0  0  0  0  0  0  0  0  0  0  0
   -9.9692    3.7224   26.1073 C   0  0  0  0  0  0  0  0  0  0  0  0
   -7.4776    2.6994   26.6283 C   0  0  0  0  0  0  0  0  0  0  0  0
   -8.4406    1.9440   25.9776 C   0  0  0  0  0  0  0  0  0  0  0  0
   -9.6379    2.5001   25.6881 C   0  0  0  0  0  0  0  0  0  0  0  0
   -6.7701    4.7886   28.1891 Cl  0  0  0  0  0  0  0  0  0  0  0  0
  -10.5380    1.9279   24.8765 F   0  0  0  0  0  0  0  0  0  0  0  0
   -9.5141    6.0120   27.5707 Cl  0  0  0  0  0  0  0  0  0  0  0  0
   -8.0657    0.6306   25.4710 C   0  0  0  0  0  0  0  0  0  0  0  0
   -7.3527   -0.1593   26.3700 C   0  0  0  0  0  0  0  0  0  0  0  0
   -6.9598   -1.4850   26.0270 C   0  0  0  0  0  0  0  0  0  0  0  0
   -6.2558   -2.2414   26.9508 C   0  0  0  0  0  0  0  0  0  0  0  0
   -5.9521   -1.7773   28.2390 C   0  0  0  0  0  0  0  0  0  0  0  0
   -6.4149   -0.4370   28.5669 C   0  0  0  0  0  0  0  0  0  0  0  0
   -7.0254    0.3227   27.7315 C   0  0  0  0  0  0  0  0  0  0  0  0
   -5.2418   -2.5836   29.2408 C   0  0  1  0  0  0  0  0  0  0  0  0
   -4.2452   -2.1212   29.9088 C   0  0  2  0  0  0  0  0  0  0  0  0
   -3.6658   -0.9069   29.7630 C   0  0  0  0  0  0  0  0  0  0  0  0
   -2.8056   -0.7005   28.7803 C   0  0  0  0  0  0  0  0  0  0  0  0
   -2.0293   -1.6523   28.1314 C   0  0  0  0  0  0  0  0  0  0  0  0
   -1.8760   -2.6694   28.5783 C   0  0  0  0  0  0  0  0  0  0  0  0
   -2.5442   -3.3942   29.5971 C   0  0  0  0  0  0  0  0  0  0  0  0
   -3.1208   -3.1064   29.9164 C   0  0  0  0  0  0  0  0  0  0  0  0
   -6.0572   -3.6670   29.7278 C   0  0  0  0  0  0  0  0  0  0  0  0
   -6.4240   -3.6763   31.0054 C   0  0  0  0  0  0  0  0  0  0  0  0
  1  7  1  0
  6  8  1  0
  2  9  1  0
  5 10  1  0
 14 17  1  0
 17 18  1  0
 18 19  1  0
 19 20  2  0
 20 21  1  0
 21 22  2  0
 22 23  1  0
 18 24  1  6
 23 24  1  0
 17 25  1  1
 25 26  2  0
 10 11  1  0
 11 12  2  0
 12 13  1  0
 13 14  2  0
 14 15  1  0
 15 16  2  0
 16 11  1  0
  1  2  2  0
  2  3  1  0
  3  6  2  0
  6  5  1  0
  5  4  2  0
  4  1  1  0
M  END
$$$$
