No_3264-complexes_sdf/6BKW-FPZ/2024-09-17-14-21-01/
     RDKit          3D

 24 26  0  0  0  0  0  0  0  0999 V2000
   -7.2496    3.8871   27.4508 C   0  0  0  0  0  0  0  0  0  0  0  0
   -7.9379    4.9063   27.8518 C   0  0  0  0  0  0  0  0  0  0  0  0
   -7.4895    6.2027   27.7481 C   0  0  0  0  0  0  0  0  0  0  0  0
   -7.8057    2.6324   27.3137 C   0  0  0  0  0  0  0  0  0  0  0  0
   -9.1872    2.4678   27.5434 C   0  0  0  0  0  0  0  0  0  0  0  0
   -9.9237    3.5447   27.9999 C   0  0  0  0  0  0  0  0  0  0  0  0
   -9.3832    4.8080   28.1012 C   0  0  0  0  0  0  0  0  0  0  0  0
  -11.3676    3.2981   28.3203 C   0  0  0  0  0  0  0  0  0  0  0  0
  -12.2299    3.2661   27.4132 C   0  0  0  0  0  0  0  0  0  0  0  0
  -11.9115    3.3221   26.0454 C   0  0  0  0  0  0  0  0  0  0  0  0
  -10.8382    3.5765   25.5669 C   0  0  0  0  0  0  0  0  0  0  0  0
  -10.7201    3.8139   23.9935 C   0  0  0  0  0  0  0  0  0  0  0  0
  -11.8259    3.7869   23.2775 C   0  0  0  0  0  0  0  0  0  0  0  0
  -13.0580    3.5963   23.9067 C   0  0  0  0  0  0  0  0  0  0  0  0
  -13.1675    3.4838   25.2176 C   0  0  0  0  0  0  0  0  0  0  0  0
   -7.0770    1.5718   26.9874 F   0  0  0  0  0  0  0  0  0  0  0  0
   -6.3060    6.4415   27.5476 F   0  0  0  0  0  0  0  0  0  0  0  0
   -8.1497    6.9679   26.7712 F   0  0  0  0  0  0  0  0  0  0  0  0
  -13.6788    3.2135   27.8171 C   0  0  0  0  0  0  0  0  0  0  0  0
  -13.8483    3.0719   29.2135 C   0  0  0  0  0  0  0  0  0  0  0  0
  -14.5689    2.5135   29.6313 C   0  0  0  0  0  0  0  0  0  0  0  0
  -15.5772    1.8050   28.8340 C   0  0  0  0  0  0  0  0  0  0  0  0
  -15.5614    2.1023   27.5177 C   0  0  0  0  0  0  0  0  0  0  0  0
  -14.5165    2.6750   27.0041 C   0  0  0  0  0  0  0  0  0  0  0  0
  2  3  1  0
  6  8  1  0
  8  9  2  3
  9 10  1  0
  4 16  1  0
  3 17  1  0
  3 18  1  0
  9 19  1  0
  1  2  2  0
  2  7  1  0
  7  6  2  0
  6  5  1  0
  5  4  2  0
  4  1  1  0
 10 11  2  0
 11 12  1  0
 12 13  2  0
 13 14  1  0
 14 15  2  0
 15 10  1  0
 19 20  2  0
 20 21  1  0
 21 22  2  0
 22 23  1  0
 23 24  2  0
 24 19  1  0
M  END
$$$$
