No_3515-complexes_sdf/6BKW-FPZ/2024-09-17-14-21-01/
     RDKit          3D

 27 29  0  0  0  0  0  0  0  0999 V2000
   -7.9040    3.9820   27.1177 C   0  0  0  0  0  0  0  0  0  0  0  0
   -8.2057    2.8231   26.8733 C   0  0  0  0  0  0  0  0  0  0  0  0
   -9.2962    2.4021   26.1155 C   0  0  0  0  0  0  0  0  0  0  0  0
   -8.7358    5.0662   26.5917 C   0  0  0  0  0  0  0  0  0  0  0  0
   -8.4603    6.4492   26.8781 C   0  0  0  0  0  0  0  0  0  0  0  0
  -10.1146    3.3815   25.6105 C   0  0  0  0  0  0  0  0  0  0  0  0
   -9.8194    4.7235   25.8263 C   0  0  0  0  0  0  0  0  0  0  0  0
   -8.0995    6.9133   28.0601 N   0  0  0  0  0  0  0  0  0  0  0  0
   -8.5971    7.3755   25.9147 N   0  0  0  0  0  0  0  0  0  0  0  0
   -7.3082    1.6778   27.4256 C   0  0  0  0  0  0  0  0  0  0  0  0
   -7.6599    0.3317   27.3544 C   0  0  0  0  0  0  0  0  0  0  0  0
   -8.8921    0.0386   26.7584 C   0  0  0  0  0  0  0  0  0  0  0  0
   -9.6916    1.0190   26.0553 C   0  0  0  0  0  0  0  0  0  0  0  0
   -6.8644   -0.6461   28.0042 C   0  0  0  0  0  0  0  0  0  0  0  0
   -5.5349   -0.3625   28.3352 C   0  0  0  0  0  0  0  0  0  0  0  0
   -4.7437   -1.2643   29.1693 C   0  0  0  0  0  0  0  0  0  0  0  0
   -5.3316   -2.4482   29.5074 C   0  0  0  0  0  0  0  0  0  0  0  0
   -7.1860   -1.8735   28.6312 C   0  0  0  0  0  0  0  0  0  0  0  0
   -6.5714   -2.6900   29.3379 C   0  0  0  0  0  0  0  0  0  0  0  0
   -3.2968   -0.8596   29.4027 C   0  0  0  0  0  0  0  0  0  0  0  0
   -3.0632    0.2165   28.9930 F   0  0  0  0  0  0  0  0  0  0  0  0
   -3.0873   -0.8084   30.7782 F   0  0  0  0  0  0  0  0  0  0  0  0
   -2.5377   -1.8058   28.9406 F   0  0  0  0  0  0  0  0  0  0  0  0
  -10.8293    0.5775   25.3639 C   0  0  0  0  0  0  0  0  0  0  0  0
  -11.3316    1.4649   24.8301 F   0  0  0  0  0  0  0  0  0  0  0  0
  -11.5873   -0.0498   26.2672 F   0  0  0  0  0  0  0  0  0  0  0  0
  -10.2570   -0.3280   24.4972 F   0  0  0  0  0  0  0  0  0  0  0  0
  4  5  1  0
  5  8  2  0
  5  9  1  0
 11 14  1  0
 16 20  1  0
 20 21  1  0
 20 22  1  0
 20 23  1  0
 13 24  1  0
 24 25  1  0
 24 26  1  0
 24 27  1  0
  1  2  2  0
  3  6  2  0
  6  7  1  0
  7  4  2  0
  4  1  1  0
 14 15  2  0
 15 16  1  0
 16 17  2  0
 17 19  1  0
 19 18  2  0
 18 14  1  0
  2  3  1  0
  3 13  1  0
 13 12  2  0
 12 11  1  0
 11 10  2  0
 10  2  1  0
M  END
$$$$
