No_3822-complexes_sdf/6BKW-FPZ/2024-09-17-14-21-01/
     RDKit          3D

 25 29  0  0  0  0  0  0  0  0999 V2000
   -7.7129    4.2099   27.0854 C   0  0  0  0  0  0  0  0  0  0  0  0
   -8.2112    3.0637   26.9225 C   0  0  0  0  0  0  0  0  0  0  0  0
   -8.4224    5.2106   27.8516 C   0  0  0  0  0  0  0  0  0  0  0  0
   -9.5628    2.7160   27.4089 C   0  0  0  0  0  0  0  0  0  0  0  0
  -10.2639    3.7034   28.1156 C   0  0  0  0  0  0  0  0  0  0  0  0
   -7.8025    6.5389   27.9601 C   0  0  0  0  0  0  0  0  0  0  0  0
   -9.6552    4.9660   28.3153 C   0  0  0  0  0  0  0  0  0  0  0  0
  -10.0740    1.3618   27.2457 C   0  0  0  0  0  0  0  0  0  0  0  0
  -11.1851    1.1071   27.8781 C   0  0  0  0  0  0  0  0  0  0  0  0
  -11.7360   -0.2144   27.7787 C   0  0  0  0  0  0  0  0  0  0  0  0
  -10.9742   -1.1772   27.1848 C   0  0  0  0  0  0  0  0  0  0  0  0
   -9.4077    0.2688   26.7209 C   0  0  0  0  0  0  0  0  0  0  0  0
   -8.0229    0.6716   26.0871 C   0  0  0  0  0  0  0  0  0  0  0  0
   -9.8132   -0.9644   26.6523 C   0  0  0  0  0  0  0  0  0  0  0  0
   -7.5068    1.9292   26.2859 C   0  0  0  0  0  0  0  0  0  0  0  0
   -7.2543   -0.3350   25.4424 C   0  0  0  0  0  0  0  0  0  0  0  0
   -6.2035   -0.9700   26.0239 C   0  0  0  0  0  0  0  0  0  0  0  0
   -7.6790   -0.5830   24.0870 C   0  0  0  0  0  0  0  0  0  0  0  0
   -5.5565   -1.9681   25.3628 C   0  0  0  0  0  0  0  0  0  0  0  0
   -5.9945   -2.7808   24.9544 C   0  0  0  0  0  0  0  0  0  0  0  0
   -6.8352   -2.7760   23.6589 C   0  0  0  0  0  0  0  0  0  0  0  0
   -7.7465   -1.8210   23.5105 C   0  0  0  0  0  0  0  0  0  0  0  0
   -8.3120    7.4613   26.8399 C   0  0  0  0  0  0  0  0  0  0  0  0
  -11.4649    3.4628   28.6567 N   0  0  0  0  0  0  0  0  0  0  0  0
  -11.9999    2.1604   28.5713 C   0  0  0  0  0  0  0  0  0  0  0  0
  3  6  1  0
 13 16  1  0
 16 17  1  0
 16 18  1  0
 17 19  1  0
 19 20  2  0
 20 21  1  0
 18 22  2  0
 21 22  2  0
  6 23  1  0
  9 10  1  0
 10 11  2  0
 11 14  1  0
 14 12  2  0
  1  2  2  0
  5  7  1  0
  7  3  2  0
  3  1  1  0
  4  5  2  0
  5 24  1  0
 24 25  2  0
 25  9  1  0
  9  8  2  0
  2  4  1  0
  4  8  1  0
  8 12  1  0
 12 13  1  0
 13 15  2  0
 15  2  1  0
M  END
$$$$
