No_3207-complexes_sdf/6BKW-FPZ/2024-09-17-14-21-01/
     RDKit          3D

 16 18  0  0  0  0  0  0  0  0999 V2000
   -7.7129    4.2099   27.0854 C   0  0  0  0  0  0  0  0  0  0  0  0
   -7.7814    5.1722   27.8972 C   0  0  0  0  0  0  0  0  0  0  0  0
   -7.3155    2.9700   27.6145 C   0  0  0  0  0  0  0  0  0  0  0  0
   -7.6814    1.8188   26.9581 C   0  0  0  0  0  0  0  0  0  0  0  0
   -8.6377    1.9131   25.9324 C   0  0  0  0  0  0  0  0  0  0  0  0
   -9.1866    3.0673   25.6037 C   0  0  0  0  0  0  0  0  0  0  0  0
   -8.8394    4.1752   26.2513 C   0  0  2  0  0  0  0  0  0  0  0  0
   -8.1875    6.2925   27.8856 N   0  0  0  0  0  0  0  0  0  0  0  0
  -10.1951    3.1550   24.4876 C   0  0  0  0  0  0  0  0  0  0  0  0
  -10.7766    4.3423   24.1874 C   0  0  0  0  0  0  0  0  0  0  0  0
  -10.3959    2.0954   23.6449 C   0  0  0  0  0  0  0  0  0  0  0  0
  -10.6529    5.4300   24.9648 C   0  0  0  0  0  0  0  0  0  0  0  0
   -9.5549    5.4561   25.9228 C   0  0  1  0  0  0  0  0  0  0  0  0
   -9.2267    6.5458   26.7583 C   0  0  0  0  0  0  0  0  0  0  0  0
  -10.4483    2.2070   22.3719 C   0  0  0  0  0  0  0  0  0  0  0  0
  -10.6256    3.5350   21.8617 C   0  0  0  0  0  0  0  0  0  0  0  0
  1  2  1  0
  1  3  2  0
  3  4  1  0
  4  5  2  0
  5  6  1  0
  1  7  1  0
  7  6  1  6
  2  8  1  0
  6  9  1  0
  9 10  2  0
  9 11  1  0
 10 12  1  0
  7 13  1  0
 13 12  1  1
  8 14  2  0
 13 14  1  0
 11 15  2  3
 15 16  1  0
M  END
$$$$
