No_3260-complexes_sdf/6BKW-FPZ/2024-09-17-14-21-01/
     RDKit          3D

 26 28  0  0  0  0  0  0  0  0999 V2000
   -7.9040    3.9820   27.1177 C   0  0  0  0  0  0  0  0  0  0  0  0
   -9.0711    4.3164   27.0630 C   0  0  0  0  0  0  0  0  0  0  0  0
   -9.5294    5.4517   27.7215 C   0  0  0  0  0  0  0  0  0  0  0  0
   -7.4336    2.7132   26.5681 C   0  0  0  0  0  0  0  0  0  0  0  0
   -8.3353    1.8569   26.0442 C   0  0  0  0  0  0  0  0  0  0  0  0
   -9.6437    2.3188   25.9308 C   0  0  0  0  0  0  0  0  0  0  0  0
  -10.0223    3.4772   26.4656 C   0  0  0  0  0  0  0  0  0  0  0  0
   -7.1264    4.7704   27.9398 C   0  0  0  0  0  0  0  0  0  0  0  0
   -7.4497    5.9551   28.4224 N   0  0  0  0  0  0  0  0  0  0  0  0
   -8.6371    6.3542   28.2849 C   0  0  0  0  0  0  0  0  0  0  0  0
   -7.8672    0.6120   25.4714 C   0  0  0  0  0  0  0  0  0  0  0  0
   -8.3207   -0.2280   25.7725 O   0  0  0  0  0  0  0  0  0  0  0  0
   -6.8901    0.6481   24.6304 O   0  0  0  0  0  0  0  0  0  0  0  0
   -5.3780    4.3032   28.1296 Cl  0  0  0  0  0  0  0  0  0  0  0  0
  -11.4356    3.8699   26.1932 C   0  0  1  0  0  0  0  0  0  0  0  0
  -11.9773    4.0731   25.0166 C   0  0  0  0  0  0  0  0  0  0  0  0
  -11.2116    4.1570   23.8413 C   0  0  0  0  0  0  0  0  0  0  0  0
  -11.7389    4.4848   22.5948 C   0  0  0  0  0  0  0  0  0  0  0  0
  -13.0982    4.5725   22.4885 C   0  0  0  0  0  0  0  0  0  0  0  0
  -13.9206    4.4908   23.6182 C   0  0  0  0  0  0  0  0  0  0  0  0
  -13.3683    4.3065   24.8816 C   0  0  0  0  0  0  0  0  0  0  0  0
  -12.2810    3.9618   27.4301 C   0  0  0  0  0  0  0  0  0  0  0  0
  -12.0557    3.9471   28.5220 C   0  0  0  0  0  0  0  0  0  0  0  0
  -13.0192    3.9054   29.6817 C   0  0  0  0  0  0  0  0  0  0  0  0
  -14.3588    4.0436   29.3558 C   0  0  0  0  0  0  0  0  0  0  0  0
  -14.6793    4.1715   27.9958 C   0  0  0  0  0  0  0  0  0  0  0  0
  5 11  1  0
 11 12  2  0
 11 13  1  0
  8 14  1  0
 15  7  1  6
 15 16  1  0
 15 22  1  0
 22 23  2  3
 23 24  1  0
 24 25  2  3
 25 26  1  0
  2  3  2  0
  3 10  1  0
 10  9  2  0
  9  8  1  0
  8  1  2  0
  1  2  1  0
  2  7  1  0
  7  6  2  0
  6  5  1  0
  5  4  2  0
  4  1  1  0
 16 17  2  0
 17 18  1  0
 18 19  2  0
 19 20  1  0
 20 21  2  0
 21 16  1  0
M  END
$$$$
