No_3218-complexes_sdf/6BKW-FPZ/2024-09-17-14-21-01/
     RDKit          3D

 19 20  0  0  0  0  0  0  0  0999 V2000
   -7.7129    4.2099   27.0854 C   0  0  0  0  0  0  0  0  0  0  0  0
   -8.2112    3.0637   26.9225 C   0  0  0  0  0  0  0  0  0  0  0  0
   -8.5108    5.3904   26.9436 C   0  0  0  0  0  0  0  0  0  0  0  0
   -9.7256    5.1955   26.3518 C   0  0  0  0  0  0  0  0  0  0  0  0
   -9.4995    2.8258   26.4878 C   0  0  0  0  0  0  0  0  0  0  0  0
  -10.2542    3.9691   26.2055 C   0  0  0  0  0  0  0  0  0  0  0  0
   -7.8138    6.9227   27.2348 Cl  0  0  0  0  0  0  0  0  0  0  0  0
   -7.5966    1.7179   27.2174 C   0  0  0  0  0  0  0  0  0  0  0  0
   -6.3000    1.8092   27.6756 N   0  0  0  0  0  0  0  0  0  0  0  0
   -5.6438    0.6397   27.9452 C   0  0  0  0  0  0  0  0  0  0  0  0
   -6.2389   -0.5354   27.8929 C   0  0  0  0  0  0  0  0  0  0  0  0
   -8.0509    0.4872   27.1863 C   0  0  0  0  0  0  0  0  0  0  0  0
   -7.5077   -0.6223   27.5419 C   0  0  0  0  0  0  0  0  0  0  0  0
   -4.2727    0.8711   28.3713 N   0  0  0  0  0  0  0  0  0  0  0  0
   -3.3704   -0.1410   28.5432 C   0  0  0  0  0  0  0  0  0  0  0  0
   -2.9123   -0.7695   27.5554 C   0  0  0  0  0  0  0  0  0  0  0  0
   -2.8557   -0.1823   26.3503 C   0  0  0  0  0  0  0  0  0  0  0  0
   -1.6990   -1.5590   27.7950 C   0  0  0  0  0  0  0  0  0  0  0  0
   -3.4321   -0.5672   29.8135 O   0  0  0  0  0  0  0  0  0  0  0  0
  3  7  1  0
  2  8  1  0
 10 14  1  0
 14 15  1  0
 15 16  1  0
 16 17  1  0
 16 18  1  0
 15 19  2  0
  1  2  2  0
  2  5  1  0
  5  6  2  0
  6  4  1  0
  4  3  2  0
  3  1  1  0
  8  9  2  0
  9 10  1  0
 10 11  2  0
 11 13  1  0
 13 12  2  0
 12  8  1  0
M  END
$$$$
