No_3842-complexes_sdf/6BKW-FPZ/2024-09-17-14-21-01/
     RDKit          3D

 17 18  0  0  0  0  0  0  0  0999 V2000
   -7.9040    3.9820   27.1177 C   0  0  0  0  0  0  0  0  0  0  0  0
   -9.0711    4.3164   27.0630 C   0  0  0  0  0  0  0  0  0  0  0  0
   -9.8698    3.9665   25.9495 C   0  0  0  0  0  0  0  0  0  0  0  0
   -7.0332    4.5030   28.2025 C   0  0  0  0  0  0  0  0  0  0  0  0
  -10.9909    4.7237   25.5958 C   0  0  0  0  0  0  0  0  0  0  0  0
   -7.4989    5.5573   28.9524 C   0  0  0  0  0  0  0  0  0  0  0  0
  -11.7350    4.2316   24.5284 C   0  0  0  0  0  0  0  0  0  0  0  0
  -11.2838    3.2467   23.6902 C   0  0  0  0  0  0  0  0  0  0  0  0
  -10.1349    2.5964   24.0049 C   0  0  0  0  0  0  0  0  0  0  0  0
   -9.3929    2.9470   25.1474 C   0  0  0  0  0  0  0  0  0  0  0  0
   -9.4723    5.4338   27.9018 C   0  0  0  0  0  0  0  0  0  0  0  0
   -8.6890    5.9827   28.8022 N   0  0  0  0  0  0  0  0  0  0  0  0
   -9.5725    1.2614   23.0392 Cl  0  0  0  0  0  0  0  0  0  0  0  0
   -5.7447    4.0440   28.2612 O   0  0  0  0  0  0  0  0  0  0  0  0
  -12.0030    2.8508   22.4407 C   0  0  0  0  0  0  0  0  0  0  0  0
  -12.2774    3.7856   21.5686 C   0  0  0  0  0  0  0  0  0  0  0  0
  -11.3085    1.7488   21.7366 C   0  0  0  0  0  0  0  0  0  0  0  0
  9 13  1  0
  4 14  1  0
  8 15  1  0
 15 16  1  0
 15 17  1  0
  3  2  1  0
  1  2  2  0
  2 11  1  0
 11 12  2  0
 12  6  1  0
  6  4  2  0
  4  1  1  0
  3  5  2  0
  5  7  1  0
  7  8  2  0
  8  9  1  0
  9 10  2  0
 10  3  1  0
M  END
$$$$
