No_3196-complexes_sdf/6BKW-FPZ/2024-09-17-14-21-01/
     RDKit          3D

 14 15  0  0  0  0  0  0  0  0999 V2000
   -7.7129    4.2099   27.0854 C   0  0  0  0  0  0  0  0  0  0  0  0
   -8.9133    4.4736   27.0998 C   0  0  0  0  0  0  0  0  0  0  0  0
   -9.7135    3.9633   26.0300 C   0  0  0  0  0  0  0  0  0  0  0  0
   -6.8655    4.8824   28.1822 C   0  0  0  0  0  0  0  0  0  0  0  0
   -9.2221    2.8459   25.3619 C   0  0  0  0  0  0  0  0  0  0  0  0
   -8.0164    2.2957   25.7889 C   0  0  0  0  0  0  0  0  0  0  0  0
   -7.3052    2.9474   26.8072 C   0  0  0  0  0  0  0  0  0  0  0  0
  -10.0330    2.1843   24.3790 C   0  0  0  0  0  0  0  0  0  0  0  0
   -9.7030    1.0091   23.9743 C   0  0  0  0  0  0  0  0  0  0  0  0
  -10.3931    0.3969   22.8929 C   0  0  0  0  0  0  0  0  0  0  0  0
  -11.4367    1.0885   22.2517 C   0  0  0  0  0  0  0  0  0  0  0  0
  -11.0241    2.8836   23.6319 C   0  0  0  0  0  0  0  0  0  0  0  0
  -11.7112    2.3616   22.6419 C   0  0  0  0  0  0  0  0  0  0  0  0
   -9.2470    5.9183   27.5376 C   0  0  0  0  0  0  0  0  0  0  0  0
  1  4  1  0
  5  8  1  0
  2 14  1  0
  8  9  2  0
  9 10  1  0
 10 11  2  0
 11 13  1  0
 13 12  2  0
 12  8  1  0
  1  2  2  0
  2  3  1  0
  3  5  2  0
  5  6  1  0
  6  7  2  0
  7  1  1  0
M  END
$$$$
