No_3442-complexes_sdf/6BKW-FPZ/2024-09-17-14-21-01/
     RDKit          3D

 23 26  0  0  0  0  0  0  0  0999 V2000
   -7.7129    4.2099   27.0854 C   0  0  0  0  0  0  0  0  0  0  0  0
   -7.7814    5.1722   27.8972 C   0  0  0  0  0  0  0  0  0  0  0  0
   -7.2983    2.9533   27.5684 C   0  0  0  0  0  0  0  0  0  0  0  0
   -6.9398    2.0472   26.9820 C   0  0  2  0  0  0  0  0  0  0  0  0
   -7.9093    1.6100   25.9565 C   0  0  0  0  0  0  0  0  0  0  0  0
   -8.8555    2.5434   25.5789 C   0  0  0  0  0  0  0  0  0  0  0  0
   -8.8183    3.9075   26.1652 C   0  0  0  0  0  0  0  0  0  0  0  0
   -6.0668    0.9802   27.6951 C   0  0  0  0  0  0  0  0  0  0  0  0
   -6.3367   -0.3274   27.8820 C   0  0  0  0  0  0  0  0  0  0  0  0
   -5.4174   -1.1402   28.5259 C   0  0  0  0  0  0  0  0  0  0  0  0
   -4.1866   -0.6087   28.9949 C   0  0  0  0  0  0  0  0  0  0  0  0
   -3.9206    0.7230   28.7446 C   0  0  0  0  0  0  0  0  0  0  0  0
   -4.7905    1.5036   28.1499 C   0  0  0  0  0  0  0  0  0  0  0  0
   -3.2326   -1.4889   29.7163 C   0  0  0  0  0  0  0  0  0  0  0  0
   -3.0471   -1.2268   30.8002 O   0  0  0  0  0  0  0  0  0  0  0  0
   -2.7774   -2.4545   29.1045 O   0  0  0  0  0  0  0  0  0  0  0  0
   -9.6657    4.9392   25.6957 C   0  0  0  0  0  0  0  0  0  0  0  0
   -8.6100    6.4325   27.4360 C   0  0  0  0  0  0  0  0  0  0  0  0
   -9.4772    6.2599   26.3451 C   0  0  0  0  0  0  0  0  0  0  0  0
   -9.7269    2.3330   24.4429 C   0  0  0  0  0  0  0  0  0  0  0  0
  -10.8166    2.9834   24.2286 C   0  0  0  0  0  0  0  0  0  0  0  0
  -10.6361    4.6262   24.7200 C   0  0  0  0  0  0  0  0  0  0  0  0
   -7.8991    0.4332   25.4425 O   0  0  0  0  0  0  0  0  0  0  0  0
  1  3  1  0
  3  4  1  0
  4  5  1  0
  5  6  1  0
  4  8  1  1
 11 14  1  0
 14 15  1  0
 14 16  2  0
  5 23  2  0
  1  2  2  0
  2 18  1  0
 18 19  2  0
 19 17  1  0
  7  1  1  0
  8  9  2  0
  9 10  1  0
 10 11  2  0
 11 12  1  0
 12 13  2  0
 13  8  1  0
  6 20  2  0
 20 21  1  0
 21 22  2  0
 22 17  1  0
 17  7  2  0
  7  6  1  0
M  END
$$$$
