No_3090-complexes_sdf/6BKW-FPZ/2024-09-17-14-21-01/
     RDKit          3D

 40 45  0  0  0  0  0  0  0  0999 V2000
   -7.9040    3.9820   27.1177 C   0  0  0  0  0  0  0  0  0  0  0  0
   -7.8663    4.8694   27.9238 C   0  0  0  0  0  0  0  0  0  0  0  0
   -9.0491    3.8523   26.2542 C   0  0  0  0  0  0  0  0  0  0  0  0
   -8.6019    5.9544   27.7203 C   0  0  0  0  0  0  0  0  0  0  0  0
   -9.7838    4.9247   26.0626 C   0  0  0  0  0  0  0  0  0  0  0  0
   -9.6083    6.0325   26.8808 C   0  0  0  0  0  0  0  0  0  0  0  0
   -7.2328    2.6468   27.1945 C   0  0  0  0  0  0  0  0  0  0  0  0
   -7.5765    1.3929   26.7673 C   0  0  0  0  0  0  0  0  0  0  0  0
   -8.7501    1.4946   25.8858 C   0  0  0  0  0  0  0  0  0  0  0  0
   -9.4442    2.6211   25.6104 C   0  0  0  0  0  0  0  0  0  0  0  0
   -6.8550    0.2440   27.0041 C   0  0  0  0  0  0  0  0  0  0  0  0
   -5.7787    0.2923   27.7526 N   0  0  0  0  0  0  0  0  0  0  0  0
   -4.9554    0.9227   27.8553 C   0  0  0  0  0  0  0  0  0  0  0  0
   -3.8986    0.7865   28.9555 C   0  0  0  0  0  0  0  0  0  0  0  0
   -3.7542   -0.5298   29.2991 C   0  0  2  0  0  0  0  0  0  0  0  0
   -5.4528   -0.9674   28.6007 C   0  0  0  0  0  0  0  0  0  0  0  0
   -3.8070   -0.8583   30.7261 C   0  0  0  0  0  0  0  0  0  0  0  0
   -2.6222   -0.8013   31.3825 C   0  0  0  0  0  0  0  0  0  0  0  0
   -2.4617   -1.1813   32.8040 C   0  0  0  0  0  0  0  0  0  0  0  0
   -3.6456   -1.5321   33.4914 C   0  0  0  0  0  0  0  0  0  0  0  0
   -4.8548   -1.5841   32.7765 C   0  0  0  0  0  0  0  0  0  0  0  0
   -4.9320   -1.2259   31.4631 C   0  0  0  0  0  0  0  0  0  0  0  0
   -2.8526   -1.3158   28.4743 C   0  0  0  0  0  0  0  0  0  0  0  0
   -7.3381   -0.8760   26.6116 O   0  0  0  0  0  0  0  0  0  0  0  0
   -1.8022   -0.6959   28.1281 C   0  0  0  0  0  0  0  0  0  0  0  0
   -0.6917   -1.3608   27.4529 C   0  0  0  0  0  0  0  0  0  0  0  0
   -0.9613   -2.5078   26.7921 C   0  0  0  0  0  0  0  0  0  0  0  0
   -3.0812   -2.6011   28.1180 C   0  0  0  0  0  0  0  0  0  0  0  0
   -2.1267   -3.2521   27.2743 C   0  0  0  0  0  0  0  0  0  0  0  0
   -1.1654   -1.1151   33.4829 C   0  0  0  0  0  0  0  0  0  0  0  0
   -0.9700   -0.1753   34.2384 O   0  0  0  0  0  0  0  0  0  0  0  0
   -0.1562   -1.6782   32.9483 O   0  0  0  0  0  0  0  0  0  0  0  0
   -6.0776   -1.8913   33.5689 C   0  0  2  0  0  0  0  0  0  0  0  0
   -6.0201   -1.9391   34.7826 O   0  0  0  0  0  0  0  0  0  0  0  0
   -7.0530   -2.5000   32.9319 N   0  0  0  0  0  0  0  0  0  0  0  0
   -8.2933   -2.8316   33.5644 C   0  0  0  0  0  0  0  0  0  0  0  0
   -9.4120   -2.9128   32.6022 C   0  0  0  0  0  0  0  0  0  0  0  0
   -9.0831   -3.1587   31.2856 C   0  0  0  0  0  0  0  0  0  0  0  0
   -7.7943   -2.9530   30.7209 C   0  0  0  0  0  0  0  0  0  0  0  0
   -6.8877   -2.5740   31.5606 C   0  0  0  0  0  0  0  0  0  0  0  0
  8 11  1  0
 11 12  1  0
 12 13  1  0
 13 14  2  0
 14 15  1  0
 12 16  1  0
 15 16  1  0
 15 17  1  1
 15 23  1  0
 11 24  2  0
 19 30  1  0
 30 31  1  0
 30 32  2  0
 21 33  1  0
 33 34  1  1
 33 35  1  0
 35 36  1  0
 37 38  1  0
 35 40  1  0
 39 40  1  0
 36 37  1  0
 38 39  1  0
  3 10  1  0
 10  9  2  0
  9  8  1  0
  8  7  2  0
  7  1  1  0
 17 18  2  0
 18 19  1  0
 19 20  2  0
 20 21  1  0
 21 22  2  0
 22 17  1  0
  1  2  2  0
  2  4  1  0
  4  6  2  0
  6  5  1  0
  5  3  2  0
  3  1  1  0
 23 25  2  0
 25 26  1  0
 26 27  2  0
 27 29  1  0
 29 28  2  0
 28 23  1  0
M  END
$$$$
