No_3448-complexes_sdf/6BKW-FPZ/2024-09-17-14-21-01/
     RDKit          3D

 23 25  0  0  0  0  0  0  0  0999 V2000
   -7.9040    3.9820   27.1177 C   0  0  0  0  0  0  0  0  0  0  0  0
   -7.8663    4.8694   27.9238 C   0  0  0  0  0  0  0  0  0  0  0  0
   -9.0953    3.1697   27.0532 C   0  0  0  0  0  0  0  0  0  0  0  0
   -9.1405    2.0104   26.1761 C   0  0  2  0  0  0  0  0  0  0  0  0
   -8.9115    5.6986   28.0087 C   0  0  0  0  0  0  0  0  0  0  0  0
   -8.1623    1.2116   26.0953 C   0  0  0  0  0  0  0  0  0  0  0  0
  -10.2526    5.1914   27.8156 C   0  0  0  0  0  0  0  0  0  0  0  0
  -10.2562    3.9687   27.1337 C   0  0  0  0  0  0  0  0  0  0  0  0
   -7.1731    1.2012   27.1443 C   0  0  0  0  0  0  0  0  0  0  0  0
   -6.1192    0.2533   27.1774 C   0  0  0  0  0  0  0  0  0  0  0  0
   -6.1214   -0.6843   26.1924 C   0  0  0  0  0  0  0  0  0  0  0  0
   -8.0560    0.1129   25.1937 C   0  0  0  0  0  0  0  0  0  0  0  0
   -7.0172   -0.7473   25.1899 C   0  0  0  0  0  0  0  0  0  0  0  0
  -10.2494    1.8975   25.2789 C   0  0  0  0  0  0  0  0  0  0  0  0
  -10.4774    2.8842   24.4040 C   0  0  0  0  0  0  0  0  0  0  0  0
  -11.3200    2.9635   23.4827 C   0  0  0  0  0  0  0  0  0  0  0  0
  -11.3905    4.1238   22.5863 C   0  0  0  0  0  0  0  0  0  0  0  0
  -10.5649    5.2671   22.8898 C   0  0  0  0  0  0  0  0  0  0  0  0
   -9.8080    5.2294   24.0377 C   0  0  0  0  0  0  0  0  0  0  0  0
   -9.7112    4.1767   24.8084 C   0  0  0  0  0  0  0  0  0  0  0  0
  -11.2664    3.1729   27.8344 O   0  0  0  0  0  0  0  0  0  0  0  0
  -10.2125    4.6629   26.0744 F   0  0  0  0  0  0  0  0  0  0  0  0
  -11.2319    3.3904   26.4518 F   0  0  0  0  0  0  0  0  0  0  0  0
  3  4  1  0
  4  6  1  0
  4 14  1  6
  8 21  1  0
 20 22  1  0
 21 23  1  0
 14 15  1  0
  6  9  2  0
  9 10  1  0
 10 11  2  0
 11 13  1  0
 13 12  2  0
 12  6  1  0
  1  2  2  0
  2  5  1  0
  5  7  2  0
  7  8  1  0
  8  3  2  0
  3  1  1  0
 15 16  2  0
 16 17  1  0
 17 18  2  0
 18 19  1  0
 19 20  2  0
 20 15  1  0
M  END
$$$$
