No_3818-complexes_sdf/6BKW-FPZ/2024-09-17-14-21-01/
     RDKit          3D

 14 16  0  0  0  0  0  0  0  0999 V2000
   -7.7129    4.2099   27.0854 C   0  0  0  0  0  0  0  0  0  0  0  0
   -7.7814    5.1722   27.8972 C   0  0  0  0  0  0  0  0  0  0  0  0
   -8.8776    3.8408   26.3416 C   0  0  0  0  0  0  0  0  0  0  0  0
   -8.9136    2.6330   25.5655 C   0  0  0  0  0  0  0  0  0  0  0  0
   -8.8361    6.1389   27.9032 C   0  0  0  0  0  0  0  0  0  0  0  0
   -9.9718    4.7048   26.3433 C   0  0  0  0  0  0  0  0  0  0  0  0
   -9.9205    5.8499   27.1013 C   0  0  0  0  0  0  0  0  0  0  0  0
   -9.8225    2.4056   24.5789 C   0  0  0  0  0  0  0  0  0  0  0  0
  -10.6705    3.5356   24.2979 C   0  0  0  0  0  0  0  0  0  0  0  0
  -10.8669    4.5168   25.2282 C   0  0  0  0  0  0  0  0  0  0  0  0
  -11.6089    3.3763   23.1640 C   0  0  0  0  0  0  0  0  0  0  0  0
  -11.9744    2.3240   22.9447 C   0  0  0  0  0  0  0  0  0  0  0  0
  -11.1114    1.2302   22.8442 C   0  0  0  0  0  0  0  0  0  0  0  0
   -9.9770    1.2533   23.8156 C   0  0  0  0  0  0  0  0  0  0  0  0
  9 11  2  0
 11 12  1  0
 12 13  2  0
 13 14  1  0
 14  8  2  0
  3  4  2  0
  4  8  1  0
  8  9  1  0
  9 10  1  0
 10  6  2  0
  1  2  2  0
  2  5  1  0
  5  7  2  0
  7  6  1  0
  6  3  1  0
  3  1  1  0
M  END
$$$$
