No_3937-complexes_sdf/6BKW-FPZ/2024-09-17-14-21-01/
     RDKit          3D

 13 14  0  0  0  0  0  0  0  0999 V2000
   -7.9040    3.9820   27.1177 C   0  0  0  0  0  0  0  0  0  0  0  0
   -7.8663    4.8694   27.9238 C   0  0  0  0  0  0  0  0  0  0  0  0
   -9.0501    3.8017   26.2617 C   0  0  0  0  0  0  0  0  0  0  0  0
  -10.0189    4.7608   26.3707 C   0  0  0  0  0  0  0  0  0  0  0  0
   -8.6770    5.9780   27.9222 C   0  0  0  0  0  0  0  0  0  0  0  0
   -9.8040    5.8752   27.0958 C   0  0  0  0  0  0  0  0  0  0  0  0
   -8.9477    2.5729   25.4381 C   0  0  0  0  0  0  0  0  0  0  0  0
   -9.8351    1.6663   25.8680 C   0  0  0  0  0  0  0  0  0  0  0  0
  -10.8418    1.6624   26.4211 C   0  0  0  0  0  0  0  0  0  0  0  0
  -11.5313    0.4278   26.9198 C   0  0  0  0  0  0  0  0  0  0  0  0
  -10.9383   -0.7556   26.5631 C   0  0  0  0  0  0  0  0  0  0  0  0
   -9.2823    0.2012   25.5851 C   0  0  0  0  0  0  0  0  0  0  0  0
   -9.8744   -0.8641   25.9530 C   0  0  0  0  0  0  0  0  0  0  0  0
  3  7  1  0
  7  8  1  0
  1  2  2  0
  2  5  1  0
  5  6  2  0
  6  4  1  0
  4  3  2  0
  3  1  1  0
  8  9  2  0
  9 10  1  0
 10 11  2  0
 11 13  1  0
 13 12  2  0
 12  8  1  0
M  END
$$$$
