No_3845-complexes_sdf/6BKW-FPZ/2024-09-17-14-21-01/
     RDKit          3D

 40 44  0  0  0  0  0  0  0  0999 V2000
   -7.2496    3.8871   27.4508 C   0  0  0  0  0  0  0  0  0  0  0  0
   -7.9379    4.9063   27.8518 C   0  0  0  0  0  0  0  0  0  0  0  0
   -7.5112    6.1898   27.6280 C   0  0  0  0  0  0  0  0  0  0  0  0
   -7.8078    2.6331   27.2522 C   0  0  0  0  0  0  0  0  0  0  0  0
   -9.1846    2.4724   27.5426 C   0  0  0  0  0  0  0  0  0  0  0  0
   -9.9168    3.5155   28.0405 C   0  0  0  0  0  0  0  0  0  0  0  0
   -9.3366    4.7962   28.1727 C   0  0  0  0  0  0  0  0  0  0  0  0
  -11.3249    3.2653   28.4083 C   0  0  0  0  0  0  0  0  0  0  0  0
  -11.8069    2.0065   28.6522 C   0  0  0  0  0  0  0  0  0  0  0  0
  -13.0916    1.8124   29.0140 C   0  0  0  0  0  0  0  0  0  0  0  0
  -13.9306    2.9229   29.2705 C   0  0  0  0  0  0  0  0  0  0  0  0
  -13.4972    4.1931   29.0161 C   0  0  0  0  0  0  0  0  0  0  0  0
  -12.1919    4.4073   28.6147 C   0  0  0  0  0  0  0  0  0  0  0  0
   -7.0567    1.4356   26.8631 C   0  0  0  0  0  0  0  0  0  0  0  0
   -7.0630    0.3705   27.7286 C   0  0  0  0  0  0  0  0  0  0  0  0
   -6.7863   -0.6885   27.2627 C   0  0  0  0  0  0  0  0  0  0  0  0
   -6.2286   -0.8828   25.9895 C   0  0  0  0  0  0  0  0  0  0  0  0
   -6.5271   -0.0117   25.0243 C   0  0  0  0  0  0  0  0  0  0  0  0
   -6.9666    1.2483   25.4624 C   0  0  0  0  0  0  0  0  0  0  0  0
  -15.3580    2.6408   29.7065 C   0  0  0  0  0  0  0  0  0  0  0  0
  -15.6665    2.7493   30.9926 C   0  0  0  0  0  0  0  0  0  0  0  0
  -16.9898    2.6280   31.3912 C   0  0  0  0  0  0  0  0  0  0  0  0
  -14.6729    3.0416   31.9711 C   0  0  0  0  0  0  0  0  0  0  0  0
  -14.9812    3.1402   33.3958 C   0  0  0  0  0  0  0  0  0  0  0  0
  -17.3055    2.7298   32.8469 C   0  0  0  0  0  0  0  0  0  0  0  0
  -16.3092    3.0218   33.7686 C   0  0  0  0  0  0  0  0  0  0  0  0
  -15.9189    1.8685   29.0077 O   0  0  0  0  0  0  0  0  0  0  0  0
   -6.4234   -1.8277   28.2945 C   0  0  0  0  0  0  0  0  0  0  0  0
   -6.8314   -1.8246   29.2818 C   0  0  0  0  0  0  0  0  0  0  0  0
   -6.6274   -2.8634   30.4294 C   0  0  0  0  0  0  0  0  0  0  0  0
   -5.8854   -3.9205   30.0622 C   0  0  0  0  0  0  0  0  0  0  0  0
   -5.7959   -3.1052   27.8871 C   0  0  0  0  0  0  0  0  0  0  0  0
   -5.4830   -4.0357   28.7802 C   0  0  0  0  0  0  0  0  0  0  0  0
   -4.8010   -5.1238   28.3665 O   0  0  0  0  0  0  0  0  0  0  0  0
   -8.3038    7.2760   26.9568 C   0  0  0  0  0  0  0  0  0  0  0  0
   -4.6259   -5.5288   27.2599 C   0  0  0  0  0  0  0  0  0  0  0  0
   -5.5752   -5.8570   26.4560 C   0  0  0  0  0  0  0  0  0  0  0  0
   -5.4005   -6.1738   25.0830 C   0  0  0  0  0  0  0  0  0  0  0  0
   -4.0986   -6.1531   24.6018 C   0  0  0  0  0  0  0  0  0  0  0  0
   -3.0557   -5.7903   25.3868 C   0  0  0  0  0  0  0  0  0  0  0  0
  6  8  1  0
  4 14  1  0
 11 20  1  0
 20 21  1  0
 20 27  2  0
 16 28  1  0
 33 34  1  0
  3 35  1  0
 34 36  1  0
 36 37  2  3
 37 38  1  0
 38 39  2  3
 39 40  1  0
  3  2  1  0
 28 29  2  0
 29 30  1  0
 30 31  2  0
 31 33  1  0
 33 32  2  0
 32 28  1  0
  1  2  2  0
  2  7  1  0
  7  6  2  0
  6  5  1  0
  5  4  2  0
  4  1  1  0
 14 15  2  0
 15 16  1  0
 16 17  2  0
 17 18  1  0
 18 19  2  0
 19 14  1  0
 21 22  2  0
 22 25  1  0
 25 26  2  0
 26 24  1  0
 24 23  2  0
 23 21  1  0
  8  9  2  0
  9 10  1  0
 10 11  2  0
 11 12  1  0
 12 13  2  0
 13  8  1  0
M  END
$$$$
