No_3577-complexes_sdf/6BKW-FPZ/2024-09-17-14-21-01/
     RDKit          3D

 34 37  0  0  0  0  0  0  0  0999 V2000
   -7.2496    3.8871   27.4508 C   0  0  0  0  0  0  0  0  0  0  0  0
   -7.6161    2.7143   27.1523 C   0  0  0  0  0  0  0  0  0  0  0  0
   -8.8302    2.4659   26.5056 C   0  0  0  0  0  0  0  0  0  0  0  0
   -8.1584    5.0090   27.3234 C   0  0  0  0  0  0  0  0  0  0  0  0
   -9.3788    4.7965   26.7695 C   0  0  0  0  0  0  0  0  0  0  0  0
   -9.6929    3.6658   26.3395 C   0  0  0  0  0  0  0  0  0  0  0  0
   -6.9440    1.4390   27.3183 C   0  0  0  0  0  0  0  0  0  0  0  0
   -5.6408    1.5253   28.0335 C   0  0  0  0  0  0  0  0  0  0  0  0
   -4.8874    0.3545   28.2471 C   0  0  0  0  0  0  0  0  0  0  0  0
   -5.4510   -0.8555   27.9242 C   0  0  0  0  0  0  0  0  0  0  0  0
   -7.2312    0.1310   27.1493 C   0  0  0  0  0  0  0  0  0  0  0  0
   -6.6574   -0.9374   27.4247 C   0  0  0  0  0  0  0  0  0  0  0  0
   -7.6584    6.3488   27.8149 C   0  0  0  0  0  0  0  0  0  0  0  0
   -3.5220    0.5544   28.8574 C   0  0  0  0  0  0  0  0  0  0  0  0
   -3.4131   -0.0599   30.1531 C   0  0  0  0  0  0  0  0  0  0  0  0
   -2.5700   -1.1731   30.4017 C   0  0  0  0  0  0  0  0  0  0  0  0
   -2.4665   -1.6141   31.7663 C   0  0  0  0  0  0  0  0  0  0  0  0
   -3.1646   -0.9658   32.7992 C   0  0  0  0  0  0  0  0  0  0  0  0
   -4.0890    0.4780   31.3061 C   0  0  0  0  0  0  0  0  0  0  0  0
   -3.0407   -1.4900   34.1641 C   0  0  0  0  0  0  0  0  0  0  0  0
   -4.0076    0.0435   32.5221 C   0  0  0  0  0  0  0  0  0  0  0  0
   -2.2997   -0.9823   34.8794 O   0  0  0  0  0  0  0  0  0  0  0  0
   -3.5767   -2.6577   34.3974 O   0  0  0  0  0  0  0  0  0  0  0  0
  -10.9987    3.4300   25.6108 C   0  0  2  0  0  0  0  0  0  0  0  0
  -10.9498    3.6679   24.2538 C   0  0  0  0  0  0  0  0  0  0  0  0
  -10.0772    4.3122   23.6463 C   0  0  0  0  0  0  0  0  0  0  0  0
  -12.1585    3.1524   23.5195 C   0  0  0  0  0  0  0  0  0  0  0  0
  -10.2364    4.7311   22.2524 C   0  0  0  0  0  0  0  0  0  0  0  0
  -12.3653    3.5285   22.1969 C   0  0  0  0  0  0  0  0  0  0  0  0
  -11.3218    4.3229   21.5676 C   0  0  0  0  0  0  0  0  0  0  0  0
  -12.0893    3.1642   26.4450 C   0  0  0  0  0  0  0  0  0  0  0  0
  -12.8685    4.2412   26.8475 C   0  0  0  0  0  0  0  0  0  0  0  0
  -14.0522    4.1381   27.6520 C   0  0  0  0  0  0  0  0  0  0  0  0
  -14.3874    2.8279   27.9316 C   0  0  0  0  0  0  0  0  0  0  0  0
  2  7  1  0
  4 13  1  0
  9 14  1  0
 14 15  1  0
 18 20  1  0
 20 22  2  0
 20 23  1  0
  6 24  1  0
 24 25  1  0
 24 31  1  1
 31 32  1  0
 32 33  2  3
 33 34  1  0
  7  8  2  0
  8  9  1  0
  9 10  2  0
 10 12  1  0
 12 11  2  0
 11  7  1  0
 25 26  2  0
 26 28  1  0
 28 30  2  0
 30 29  1  0
 29 27  2  0
 27 25  1  0
  1  2  2  0
  2  3  1  0
  3  6  2  0
  6  5  1  0
  5  4  2  0
  4  1  1  0
 15 16  2  0
 16 17  1  0
 17 18  2  0
 18 21  1  0
 21 19  2  0
 19 15  1  0
M  END
$$$$
