No_3108-complexes_sdf/6BKW-FPZ/2024-09-17-14-21-01/
     RDKit          3D

 19 21  0  0  0  0  0  0  0  0999 V2000
   -7.9040    3.9820   27.1177 C   0  0  0  0  0  0  0  0  0  0  0  0
   -9.0711    4.3164   27.0630 C   0  0  0  0  0  0  0  0  0  0  0  0
   -9.9692    3.7224   26.1073 C   0  0  0  0  0  0  0  0  0  0  0  0
   -7.4776    2.6994   26.6283 C   0  0  0  0  0  0  0  0  0  0  0  0
   -8.4406    1.9440   25.9776 C   0  0  0  0  0  0  0  0  0  0  0  0
   -9.6379    2.5001   25.6881 C   0  0  0  0  0  0  0  0  0  0  0  0
   -6.9250    4.4834   27.9795 N   0  0  0  0  0  0  0  0  0  0  0  0
  -10.5189    1.5856   24.8872 C   0  0  0  0  0  0  0  0  0  0  0  0
  -11.3891    1.8853   24.1160 C   0  0  0  0  0  0  0  0  0  0  0  0
  -12.2201    1.0103   23.3433 C   0  0  0  0  0  0  0  0  0  0  0  0
  -11.8948   -0.3410   23.4399 C   0  0  0  0  0  0  0  0  0  0  0  0
  -10.2845    0.1036   24.8266 C   0  0  0  0  0  0  0  0  0  0  0  0
  -10.9498   -0.7464   24.1927 C   0  0  0  0  0  0  0  0  0  0  0  0
   -7.3263    5.5735   28.7408 C   0  0  0  0  0  0  0  0  0  0  0  0
   -9.4071    5.6597   27.5575 C   0  0  0  0  0  0  0  0  0  0  0  0
   -8.4753    6.2150   28.4397 N   0  0  0  0  0  0  0  0  0  0  0  0
  -10.6427   -2.2103   24.2402 C   0  0  0  0  0  0  0  0  0  0  0  0
  -10.7750   -2.8446   25.2198 O   0  0  0  0  0  0  0  0  0  0  0  0
  -10.1713   -2.7258   23.1478 O   0  0  0  0  0  0  0  0  0  0  0  0
  6  8  1  0
 13 17  1  0
 17 18  1  0
 17 19  2  0
  2  3  2  0
  3  6  1  0
  6  5  2  0
  5  4  1  0
  4  1  2  0
  8  9  2  0
  9 10  1  0
 10 11  2  0
 11 13  1  0
 13 12  2  0
 12  8  1  0
  1  2  1  0
  2 15  1  0
 15 16  2  0
 16 14  1  0
 14  7  2  0
  7  1  1  0
M  END
$$$$
