No_3097-complexes_sdf/6BKW-FPZ/2024-09-17-14-21-01/
     RDKit          3D

 16 17  0  0  0  0  0  0  0  0999 V2000
   -7.9040    3.9820   27.1177 C   0  0  0  0  0  0  0  0  0  0  0  0
   -7.8663    4.8694   27.9238 C   0  0  0  0  0  0  0  0  0  0  0  0
   -7.4547    2.7080   27.4594 C   0  0  0  0  0  0  0  0  0  0  0  0
   -6.9358    5.8140   27.8323 C   0  0  0  0  0  0  0  0  0  0  0  0
   -7.6941    1.5260   26.7057 C   0  0  0  0  0  0  0  0  0  0  0  0
   -7.1476    0.3407   27.0302 C   0  0  0  0  0  0  0  0  0  0  0  0
   -7.8485   -0.8083   26.7823 C   0  0  0  0  0  0  0  0  0  0  0  0
   -8.9650   -0.7242   25.9178 C   0  0  0  0  0  0  0  0  0  0  0  0
   -9.4840    0.4878   25.5419 C   0  0  0  0  0  0  0  0  0  0  0  0
   -8.8663    1.6470   26.0133 C   0  0  0  0  0  0  0  0  0  0  0  0
   -8.7072    4.0975   25.9342 C   0  0  0  0  0  0  0  0  0  0  0  0
   -9.3568    2.9081   25.4579 C   0  0  0  0  0  0  0  0  0  0  0  0
   -8.9893    5.1268   28.9251 C   0  0  0  0  0  0  0  0  0  0  0  0
  -10.3011    3.0343   24.4133 C   0  0  0  0  0  0  0  0  0  0  0  0
  -10.2315    2.5078   23.2848 C   0  0  0  0  0  0  0  0  0  0  0  0
  -10.9629    2.6457   22.2104 C   0  0  0  0  0  0  0  0  0  0  0  0
  1  2  1  0
  2  4  1  0
  2 13  1  0
 12 14  1  0
 14 15  2  3
 15 16  1  0
  1  3  2  0
  3  5  1  0
 10 12  1  0
 12 11  2  0
 11  1  1  0
  5  6  2  0
  6  7  1  0
  7  8  2  0
  8  9  1  0
  9 10  2  0
 10  5  1  0
M  END
$$$$
