No_3828-complexes_sdf/6BKW-FPZ/2024-09-17-14-21-01/
     RDKit          3D

 40 46  0  0  0  0  0  0  0  0999 V2000
   -7.9040    3.9820   27.1177 C   0  0  0  0  0  0  0  0  0  0  0  0
   -8.2057    2.8231   26.8733 C   0  0  0  0  0  0  0  0  0  0  0  0
   -7.0130    4.3706   28.1140 C   0  0  0  0  0  0  0  0  0  0  0  0
   -9.3829    2.4374   26.1668 C   0  0  0  0  0  0  0  0  0  0  0  0
  -10.0975    3.4171   25.5988 C   0  0  0  0  0  0  0  0  0  0  0  0
   -9.7085    4.7741   25.7618 C   0  0  0  0  0  0  0  0  0  0  0  0
   -8.7070    5.1118   26.5885 C   0  0  0  0  0  0  0  0  0  0  0  0
   -8.3930    6.4627   26.8949 C   0  0  0  0  0  0  0  0  0  0  0  0
   -7.3472    6.7816   27.7386 C   0  0  0  0  0  0  0  0  0  0  0  0
   -6.7825    5.7818   28.3990 C   0  0  0  0  0  0  0  0  0  0  0  0
   -7.4315    1.6406   27.4651 C   0  0  0  0  0  0  0  0  0  0  0  0
   -6.0427    1.7560   27.6399 C   0  0  0  0  0  0  0  0  0  0  0  0
   -5.3010    0.6679   28.1596 C   0  0  0  0  0  0  0  0  0  0  0  0
   -5.9365   -0.5555   28.3671 C   0  0  0  0  0  0  0  0  0  0  0  0
   -7.9427    0.3421   27.5986 C   0  0  0  0  0  0  0  0  0  0  0  0
   -7.2387   -0.6828   28.1055 C   0  0  0  0  0  0  0  0  0  0  0  0
   -3.6077    0.9226   28.5425 Cl  0  0  0  0  0  0  0  0  0  0  0  0
  -11.1942    3.1264   24.6523 C   0  0  0  0  0  0  0  0  0  0  0  0
  -11.1888    3.6768   23.4715 C   0  0  0  0  0  0  0  0  0  0  0  0
  -12.2064    3.4502   22.4683 C   0  0  0  0  0  0  0  0  0  0  0  0
  -13.1506    2.5875   22.7532 C   0  0  0  0  0  0  0  0  0  0  0  0
  -12.1554    2.1649   24.8942 C   0  0  0  0  0  0  0  0  0  0  0  0
  -13.1445    1.9243   23.9705 C   0  0  0  0  0  0  0  0  0  0  0  0
   -7.8795   -1.9790   28.3329 C   0  0  0  0  0  0  0  0  0  0  0  0
   -8.7834   -2.4571   27.7136 C   0  0  0  0  0  0  0  0  0  0  0  0
   -9.4554   -3.7200   28.0052 C   0  0  0  0  0  0  0  0  0  0  0  0
   -8.9823   -4.4029   29.0937 C   0  0  0  0  0  0  0  0  0  0  0  0
   -7.9801   -3.9130   29.8591 C   0  0  0  0  0  0  0  0  0  0  0  0
   -7.3738   -2.7007   29.5865 C   0  0  0  0  0  0  0  0  0  0  0  0
   -7.4974   -4.6781   31.0533 C   0  0  0  0  0  0  0  0  0  0  0  0
   -6.5415   -4.3350   31.5668 C   0  0  0  0  0  0  0  0  0  0  0  0
   -5.8999   -3.0018   31.3021 C   0  0  0  0  0  0  0  0  0  0  0  0
   -6.2543   -2.2487   30.3633 C   0  0  0  0  0  0  0  0  0  0  0  0
  -10.5426   -4.1469   27.1809 C   0  0  0  0  0  0  0  0  0  0  0  0
  -10.9095   -3.6559   26.2333 N   0  0  0  0  0  0  0  0  0  0  0  0
  -11.9015   -3.8509   25.4254 C   0  0  0  0  0  0  0  0  0  0  0  0
  -12.7788   -4.6888   25.7402 C   0  0  0  0  0  0  0  0  0  0  0  0
  -11.1788   -5.3657   27.5318 C   0  0  0  0  0  0  0  0  0  0  0  0
  -12.4131   -5.5828   26.8662 C   0  0  0  0  0  0  0  0  0  0  0  0
  -12.2277   -2.8639   24.3276 C   0  0  0  0  0  0  0  0  0  0  0  0
  2 11  1  0
 13 17  1  0
  5 18  1  0
 16 24  1  0
 26 34  1  0
 36 40  1  0
 24 25  2  0
 25 26  1  0
 26 27  2  0
 27 28  1  0
 29 24  1  0
  1  3  2  0
  3 10  1  0
 10  9  2  0
  9  8  1  0
  8  7  2  0
 18 19  2  0
 19 20  1  0
 20 21  2  0
 21 23  1  0
 23 22  2  0
 22 18  1  0
 11 12  2  0
 12 13  1  0
 13 14  2  0
 14 16  1  0
 16 15  2  0
 15 11  1  0
 28 29  2  0
 29 33  1  0
 33 32  2  0
 32 31  1  0
 31 30  2  0
 30 28  1  0
  1  2  1  0
  2  4  2  0
  4  5  1  0
  5  6  2  0
  6  7  1  0
  7  1  1  0
 34 35  2  0
 35 36  1  0
 36 37  2  0
 37 39  1  0
 39 38  2  0
 38 34  1  0
M  END
$$$$
