No_3382-complexes_sdf/6BKW-FPZ/2024-09-17-14-21-01/
     RDKit          3D

 37 40  0  0  0  0  0  0  0  0999 V2000
   -7.7129    4.2099   27.0854 C   0  0  0  0  0  0  0  0  0  0  0  0
   -8.2112    3.0637   26.9225 C   0  0  0  0  0  0  0  0  0  0  0  0
   -7.0021    4.5281   28.2396 C   0  0  0  0  0  0  0  0  0  0  0  0
   -7.5497    1.9016   27.4549 C   0  0  0  0  0  0  0  0  0  0  0  0
   -8.0700    0.6173   27.2932 C   0  0  0  0  0  0  0  0  0  0  0  0
   -9.3589    0.5577   26.6828 C   0  0  0  0  0  0  0  0  0  0  0  0
   -9.9025   -0.7645   26.5707 C   0  0  2  0  0  0  0  0  0  0  0  0
   -9.2846    2.8556   26.1072 C   0  0  0  0  0  0  0  0  0  0  0  0
   -9.8551    1.5737   26.0348 C   0  0  0  0  0  0  0  0  0  0  0  0
   -8.7586    5.3436   26.8266 C   0  0  0  0  0  0  0  0  0  0  0  0
   -8.3392    6.7481   27.0412 C   0  0  0  0  0  0  0  0  0  0  0  0
   -9.2342    7.7362   26.5168 C   0  0  0  0  0  0  0  0  0  0  0  0
  -11.0755   -0.8969   26.5921 C   0  0  0  0  0  0  0  0  0  0  0  0
  -11.7851   -2.2258   26.5797 C   0  0  0  0  0  0  0  0  0  0  0  0
  -13.1884   -2.3296   26.6139 C   0  0  0  0  0  0  0  0  0  0  0  0
  -13.9562   -1.1536   26.6768 C   0  0  0  0  0  0  0  0  0  0  0  0
  -13.3946    0.0704   26.7208 C   0  0  0  0  0  0  0  0  0  0  0  0
  -12.0646    0.2637   26.7610 C   0  0  0  0  0  0  0  0  0  0  0  0
   -9.0019   -1.9220   26.6191 C   0  0  0  0  0  0  0  0  0  0  0  0
   -8.5444   -2.3935   27.7541 C   0  0  0  0  0  0  0  0  0  0  0  0
   -7.6991   -3.5327   27.8225 C   0  0  0  0  0  0  0  0  0  0  0  0
   -7.4384   -4.1002   26.5946 C   0  0  0  0  0  0  0  0  0  0  0  0
   -8.6286   -2.6162   25.4740 C   0  0  0  0  0  0  0  0  0  0  0  0
   -7.8909   -3.6649   25.4450 C   0  0  0  0  0  0  0  0  0  0  0  0
   -6.9054    6.8426   26.9991 C   0  0  0  0  0  0  0  0  0  0  0  0
   -6.7279    8.1923   27.2030 N   0  0  0  0  0  0  0  0  0  0  0  0
   -6.7750    5.9168   28.5965 C   0  0  0  0  0  0  0  0  0  0  0  0
   -9.1807   -2.0562   24.1404 C   0  0  0  0  0  0  0  0  0  0  0  0
   -8.6326   -1.0397   23.5611 N   0  0  0  0  0  0  0  0  0  0  0  0
   -7.3766   -0.7257   23.6330 C   0  0  0  0  0  0  0  0  0  0  0  0
   -9.4558   -0.1547   22.7575 C   0  0  0  0  0  0  0  0  0  0  0  0
   -8.9237    0.9293   22.1630 C   0  0  0  0  0  0  0  0  0  0  0  0
  -10.8432   -0.3840   22.6096 C   0  0  0  0  0  0  0  0  0  0  0  0
  -11.6736    0.6075   22.0690 C   0  0  0  0  0  0  0  0  0  0  0  0
   -9.7275    1.9228   21.5145 C   0  0  0  0  0  0  0  0  0  0  0  0
  -11.0847    1.7507   21.4816 C   0  0  0  0  0  0  0  0  0  0  0  0
  -11.9156    2.7440   20.7764 C   0  0  0  0  0  0  0  0  0  0  0  0
  1  2  1  0
  7  6  1  1
 11 12  1  0
  7 19  1  0
 23 28  1  0
 28 29  1  0
 29 30  1  0
 29 31  1  0
 31 32  2  3
 31 33  1  0
 33 34  2  0
 32 35  1  0
 35 36  2  3
 36 37  1  0
  7 13  1  0
 26 25  1  0
  1  3  2  0
  3 27  1  0
 27 25  2  0
 25 11  1  0
 11 10  2  0
 10  1  1  0
 13 14  2  0
 14 15  1  0
 15 16  2  0
 16 17  1  0
 17 18  2  0
 18 13  1  0
  2  4  2  0
  4  5  1  0
  5  6  2  0
  6  9  1  0
  9  8  2  0
  8  2  1  0
 19 20  2  0
 20 21  1  0
 21 22  2  0
 22 24  1  0
 24 23  2  0
 23 19  1  0
M  END
$$$$
