No_3725-complexes_sdf/6BKW-FPZ/2024-09-17-14-21-01/
     RDKit          3D

 27 29  0  0  0  0  0  0  0  0999 V2000
   -7.7129    4.2099   27.0854 C   0  0  0  0  0  0  0  0  0  0  0  0
   -7.7814    5.1722   27.8972 C   0  0  0  0  0  0  0  0  0  0  0  0
   -7.3155    2.9699   27.6145 C   0  0  0  0  0  0  0  0  0  0  0  0
   -7.6814    1.8188   26.9581 C   0  0  0  0  0  0  0  0  0  0  0  0
   -8.6377    1.9131   25.9324 C   0  0  0  0  0  0  0  0  0  0  0  0
   -9.1866    3.0673   25.6037 C   0  0  0  0  0  0  0  0  0  0  0  0
   -8.8394    4.1752   26.2513 C   0  0  0  0  0  0  0  0  0  0  0  0
   -7.0891    5.2647   29.0138 N   0  0  0  0  0  0  0  0  0  0  0  0
   -8.2742    6.4612   27.4851 N   0  0  0  0  0  0  0  0  0  0  0  0
  -10.1402    2.8441   24.5107 C   0  0  0  0  0  0  0  0  0  0  0  0
  -10.1802    1.9150   23.6311 C   0  0  0  0  0  0  0  0  0  0  0  0
  -11.0476    1.8795   22.5255 C   0  0  0  0  0  0  0  0  0  0  0  0
  -11.8963    2.9841   22.3337 C   0  0  0  0  0  0  0  0  0  0  0  0
  -10.9511    4.0096   24.0933 C   0  0  0  0  0  0  0  0  0  0  0  0
  -11.7751    4.0914   23.1368 C   0  0  0  0  0  0  0  0  0  0  0  0
   -7.0191    0.5395   27.3216 C   0  0  0  0  0  0  0  0  0  0  0  0
   -7.5932   -0.6038   27.1564 N   0  0  0  0  0  0  0  0  0  0  0  0
   -8.6117   -0.9629   27.1885 C   0  0  0  0  0  0  0  0  0  0  0  0
   -9.3146   -1.4217   27.7412 C   0  0  0  0  0  0  0  0  0  0  0  0
  -10.8076   -1.6582   27.6634 C   0  0  0  0  0  0  0  0  0  0  0  0
  -11.2820   -1.2431   26.4622 C   0  0  0  0  0  0  0  0  0  0  0  0
  -10.5226   -0.7322   25.5038 C   0  0  0  0  0  0  0  0  0  0  0  0
   -9.1594   -0.4785   25.7954 C   0  0  0  0  0  0  0  0  0  0  0  0
   -8.2300   -0.5019   24.6291 C   0  0  0  0  0  0  0  0  0  0  0  0
   -8.7696    0.9049   25.2181 F   0  0  0  0  0  0  0  0  0  0  0  0
   -7.0458   -0.9837   24.7990 C   0  0  0  0  0  0  0  0  0  0  0  0
   -8.8143   -0.7840   23.3781 C   0  0  0  0  0  0  0  0  0  0  0  0
  1  2  1  0
  2  8  2  0
  2  9  1  0
  6 10  1  0
  4 16  1  0
 16 17  1  0
 17 18  1  0
 23 24  1  0
  5 25  1  0
 24 26  1  0
 24 27  1  0
 18 19  2  0
 19 20  1  0
 20 21  2  0
 21 22  1  0
 22 23  2  0
 23 18  1  0
 10 11  2  0
 11 12  1  0
 12 13  2  0
 13 15  1  0
 15 14  2  0
 14 10  1  0
  1  3  2  0
  3  4  1  0
  4  5  2  0
  5  6  1  0
  6  7  2  0
  7  1  1  0
M  END
$$$$
