No_3147-complexes_sdf/6BKW-FPZ/2024-09-17-14-21-01/
     RDKit          3D

 23 26  0  0  0  0  0  0  0  0999 V2000
   -7.2496    3.8871   27.4508 C   0  0  0  0  0  0  0  0  0  0  0  0
   -8.5096    4.0291   27.2770 C   0  0  0  0  0  0  0  0  0  0  0  0
   -9.2677    5.1714   27.5773 C   0  0  0  0  0  0  0  0  0  0  0  0
   -6.5711    2.6400   27.2842 C   0  0  0  0  0  0  0  0  0  0  0  0
   -5.3357    2.3703   27.8498 C   0  0  0  0  0  0  0  0  0  0  0  0
   -7.3155    1.5190   26.8396 C   0  0  0  0  0  0  0  0  0  0  0  0
   -8.6222    1.7120   26.4490 C   0  0  0  0  0  0  0  0  0  0  0  0
   -9.2783    2.9160   26.7700 C   0  0  0  0  0  0  0  0  0  0  0  0
   -4.7025    1.1010   27.8950 C   0  0  0  0  0  0  0  0  0  0  0  0
   -5.5245    0.0248   27.4316 C   0  0  0  0  0  0  0  0  0  0  0  0
   -6.8002    0.2307   26.9421 C   0  0  0  0  0  0  0  0  0  0  0  0
   -8.5697    6.4245   27.6179 C   0  0  0  0  0  0  0  0  0  0  0  0
  -10.6534    5.1489   27.9266 C   0  0  0  0  0  0  0  0  0  0  0  0
   -3.4040    0.9309   28.4447 C   0  0  0  0  0  0  0  0  0  0  0  0
   -3.0535   -0.3935   28.7990 C   0  0  0  0  0  0  0  0  0  0  0  0
   -1.9547   -0.6774   29.4789 C   0  0  0  0  0  0  0  0  0  0  0  0
   -1.5527   -2.0117   29.8563 C   0  0  0  0  0  0  0  0  0  0  0  0
   -2.4450   -2.9931   29.4534 C   0  0  0  0  0  0  0  0  0  0  0  0
   -3.5490   -2.7466   28.7806 C   0  0  0  0  0  0  0  0  0  0  0  0
   -3.8774   -1.4535   28.4507 C   0  0  0  0  0  0  0  0  0  0  0  0
   -5.0995   -1.1914   27.7855 C   0  0  0  0  0  0  0  0  0  0  0  0
   -5.9121   -2.3363   27.3986 C   0  0  0  0  0  0  0  0  0  0  0  0
   -5.9509   -2.6251   26.1028 C   0  0  0  0  0  0  0  0  0  0  0  0
  3 12  1  0
  3 13  1  0
 21 22  1  0
 22 23  2  0
  3  2  1  0
  1  2  2  0
  2  8  1  0
  8  7  2  0
  7  6  1  0
  4  1  1  0
 15 16  1  0
 16 17  2  0
 17 18  1  0
 18 19  2  0
 19 20  1  0
  4  5  2  0
  5  9  1  0
 10 11  1  0
 11  6  2  0
  6  4  1  0
  9 10  2  0
 10 21  1  0
 21 20  2  0
 20 15  1  0
 15 14  2  0
 14  9  1  0
M  END
$$$$
