No_3358-complexes_sdf/6BKW-FPZ/2024-09-17-14-21-01/
     RDKit          3D

 18 18  0  0  0  0  0  0  0  0999 V2000
   -7.9040    3.9820   27.1177 C   0  0  0  0  0  0  0  0  0  0  0  0
   -8.2057    2.8231   26.8733 C   0  0  0  0  0  0  0  0  0  0  0  0
   -8.7695    5.0740   26.7916 C   0  0  0  0  0  0  0  0  0  0  0  0
   -9.9618    4.7598   26.1630 C   0  0  0  0  0  0  0  0  0  0  0  0
   -9.4200    2.4524   26.2849 C   0  0  0  0  0  0  0  0  0  0  0  0
  -10.2590    3.4815   25.9250 C   0  0  0  0  0  0  0  0  0  0  0  0
   -8.3840    6.4693   27.0829 C   0  0  0  0  0  0  0  0  0  0  0  0
   -8.7958    7.4358   26.4217 N   0  0  0  0  0  0  0  0  0  0  0  0
   -7.3661    6.5260   27.9364 F   0  0  0  0  0  0  0  0  0  0  0  0
   -7.2836    1.6609   27.2781 C   0  0  0  0  0  0  0  0  0  0  0  0
   -6.3057    2.0427   27.9785 F   0  0  0  0  0  0  0  0  0  0  0  0
   -7.4655    0.3689   26.9312 C   0  0  0  0  0  0  0  0  0  0  0  0
   -6.7117   -0.4397   26.9457 N   0  0  0  0  0  0  0  0  0  0  0  0
   -6.7783   -1.7420   26.5751 C   0  0  0  0  0  0  0  0  0  0  0  0
   -5.8898   -2.5089   26.5781 C   0  0  0  0  0  0  0  0  0  0  0  0
   -8.1010   -2.1532   26.0458 C   0  0  0  0  0  0  0  0  0  0  0  0
   -8.7044    0.1259   26.6093 O   0  0  0  0  0  0  0  0  0  0  0  0
   -4.5379   -2.1261   27.1454 C   0  0  0  0  0  0  0  0  0  0  0  0
  3  7  1  0
  7  8  2  0
  7  9  1  0
  2 10  1  0
 10 11  1  0
 10 12  1  0
 12 13  1  0
 13 14  1  0
 14 15  2  3
 14 16  1  0
 12 17  2  0
 15 18  1  0
  1  2  2  0
  2  5  1  0
  5  6  2  0
  6  4  1  0
  4  3  2  0
  3  1  1  0
M  END
$$$$
