No_3056-complexes_sdf/6BKW-FPZ/2024-09-17-14-21-01/
     RDKit          3D

 26 28  0  0  0  0  0  0  0  0999 V2000
   -7.7129    4.2099   27.0854 C   0  0  0  0  0  0  0  0  0  0  0  0
   -8.9133    4.4736   27.0998 C   0  0  0  0  0  0  0  0  0  0  0  0
   -9.7135    3.9633   26.0300 C   0  0  0  0  0  0  0  0  0  0  0  0
   -6.8420    4.9760   28.0851 C   0  0  0  0  0  0  0  0  0  0  0  0
  -10.9164    3.4776   26.1172 C   0  0  0  0  0  0  0  0  0  0  0  0
  -11.6897    3.8137   27.2914 C   0  0  0  0  0  0  0  0  0  0  0  0
  -10.9876    4.2901   28.4232 C   0  0  0  0  0  0  0  0  0  0  0  0
   -9.6492    4.5388   28.3533 C   0  0  0  0  0  0  0  0  0  0  0  0
  -13.1233    3.4856   27.4111 C   0  0  1  0  0  0  0  0  0  0  0  0
  -14.2047    3.4053   26.6975 Cl  0  0  0  0  0  0  0  0  0  0  0  0
  -13.3142    2.9034   28.9013 C   0  0  0  0  0  0  0  0  0  0  0  0
  -13.8035    3.5846   29.8588 C   0  0  0  0  0  0  0  0  0  0  0  0
  -13.8662    3.1300   31.1865 C   0  0  0  0  0  0  0  0  0  0  0  0
  -14.1412    3.9687   32.2808 C   0  0  0  0  0  0  0  0  0  0  0  0
  -13.8229    3.6824   33.6043 C   0  0  0  0  0  0  0  0  0  0  0  0
  -13.8467    4.5934   34.6875 C   0  0  0  0  0  0  0  0  0  0  0  0
  -14.4672    5.8121   34.3620 C   0  0  0  0  0  0  0  0  0  0  0  0
  -14.8336    6.0989   33.0788 C   0  0  0  0  0  0  0  0  0  0  0  0
  -14.6259    5.2759   32.0240 C   0  0  0  0  0  0  0  0  0  0  0  0
  -14.6023    6.6653   35.6264 C   0  0  0  0  0  0  0  0  0  0  0  0
  -15.4767    7.5005   35.6738 N   0  0  0  0  0  0  0  0  0  0  0  0
  -13.6230    6.6141   36.5530 N   0  0  0  0  0  0  0  0  0  0  0  0
  -13.8252    7.5907   37.5163 C   0  0  0  0  0  0  0  0  0  0  0  0
  -15.6447    8.4557   36.6189 C   0  0  0  0  0  0  0  0  0  0  0  0
  -14.7425    8.4870   37.6614 C   0  0  0  0  0  0  0  0  0  0  0  0
   -7.3516    6.0514   28.4513 O   0  0  0  0  0  0  0  0  0  0  0  0
  1  2  1  0
  1  4  1  0
  6  9  1  0
  9 10  1  6
  9 11  1  0
 11 12  1  0
 12 13  2  3
 13 14  1  0
 17 20  1  0
  4 26  1  0
 14 15  2  0
 15 16  1  0
 16 17  2  0
 17 18  1  0
 18 19  2  0
 19 14  1  0
  2  3  2  0
  3  5  1  0
  5  6  2  0
  6  7  1  0
  7  8  2  0
  8  2  1  0
 20 21  2  0
 21 24  1  0
 24 25  2  0
 25 23  1  0
 23 22  2  0
 22 20  1  0
M  END
$$$$
