No_328-complexes_sdf/6BKW-FPZ/2024-09-17-14-21-01/
     RDKit          3D

 13 14  0  0  0  0  0  0  0  0999 V2000
   -7.2496    3.8871   27.4508 C   0  0  0  0  0  0  0  0  0  0  0  0
   -7.9379    4.9063   27.8518 C   0  0  0  0  0  0  0  0  0  0  0  0
   -9.3376    4.8647   27.7795 C   0  0  0  0  0  0  0  0  0  0  0  0
   -7.8544    2.6294   27.0414 C   0  0  0  0  0  0  0  0  0  0  0  0
   -7.1614    1.5016   26.7557 C   0  0  0  0  0  0  0  0  0  0  0  0
   -9.2736    2.6261   27.0257 C   0  0  0  0  0  0  0  0  0  0  0  0
  -10.0045    3.7370   27.4296 C   0  0  0  0  0  0  0  0  0  0  0  0
   -7.2916    0.3541   27.4994 C   0  0  0  0  0  0  0  0  0  0  0  0
   -6.4676   -0.7639   27.2485 C   0  0  0  0  0  0  0  0  0  0  0  0
   -6.4619   -1.7908   27.7538 C   0  0  0  0  0  0  0  0  0  0  0  0
   -7.4862   -2.0624   28.7868 C   0  0  0  0  0  0  0  0  0  0  0  0
   -8.5364   -1.1557   28.8811 C   0  0  0  0  0  0  0  0  0  0  0  0
   -8.4655    0.0654   28.2468 C   0  0  0  0  0  0  0  0  0  0  0  0
  4  5  1  0
  5  8  1  0
  8  9  2  0
  9 10  1  0
 10 11  2  0
 11 12  1  0
 12 13  2  0
 13  8  1  0
  1  2  2  0
  2  3  1  0
  3  7  2  0
  7  6  1  0
  6  4  2  0
  4  1  1  0
M  END
$$$$
