No_3378-complexes_sdf/6BKW-FPZ/2024-09-17-14-21-01/
     RDKit          3D

 16 18  0  0  0  0  0  0  0  0999 V2000
   -7.7129    4.2099   27.0854 C   0  0  0  0  0  0  0  0  0  0  0  0
   -7.7814    5.1722   27.8972 C   0  0  0  0  0  0  0  0  0  0  0  0
   -8.8776    3.8408   26.3416 C   0  0  0  0  0  0  0  0  0  0  0  0
   -9.9844    4.6492   26.4743 C   0  0  0  0  0  0  0  0  0  0  0  0
   -8.8033    6.1375   27.8728 C   0  0  0  0  0  0  0  0  0  0  0  0
   -9.9554    5.8280   27.1736 C   0  0  0  0  0  0  0  0  0  0  0  0
   -8.8740    2.6184   25.5584 C   0  0  0  0  0  0  0  0  0  0  0  0
   -8.2513    1.5373   26.0855 N   0  0  0  0  0  0  0  0  0  0  0  0
   -7.7161    1.5499   27.2323 C   0  0  2  0  0  0  0  0  0  0  0  0
   -7.0162    2.8245   27.5861 C   0  0  0  0  0  0  0  0  0  0  0  0
   -8.4624    0.2715   25.3792 C   0  0  2  0  0  0  0  0  0  0  0  0
   -8.0829   -0.6242   25.7578 C   0  0  0  0  0  0  0  0  0  0  0  0
   -9.1502    0.4059   24.0980 C   0  0  0  0  0  0  0  0  0  0  0  0
   -7.4396   -0.8641   27.0889 C   0  0  0  0  0  0  0  0  0  0  0  0
   -7.0576    0.3597   27.7409 C   0  0  0  0  0  0  0  0  0  0  0  0
   -9.6477    2.6687   24.5761 O   0  0  0  0  0  0  0  0  0  0  0  0
  3  7  1  0
  7  8  1  0
  8  9  1  0
  1 10  1  0
  9 10  1  6
  8 11  1  0
 11 13  1  6
 12 14  1  0
  9 15  1  0
  7 16  2  0
 15 14  1  0
 12 11  1  0
  1  2  2  0
  2  5  1  0
  5  6  2  0
  6  4  1  0
  4  3  2  0
  3  1  1  0
M  END
$$$$
