No_3135-complexes_sdf/6BKW-FPZ/2024-09-17-14-21-01/
     RDKit          3D

 33 37  0  0  0  0  0  0  0  0999 V2000
   -7.9040    3.9820   27.1177 C   0  0  0  0  0  0  0  0  0  0  0  0
   -7.8663    4.8694   27.9238 C   0  0  0  0  0  0  0  0  0  0  0  0
   -7.4547    2.7080   27.4594 C   0  0  0  0  0  0  0  0  0  0  0  0
   -8.0927    6.2909   27.5184 C   0  0  0  0  0  0  0  0  0  0  0  0
   -8.9150    6.5640   26.4331 C   0  0  0  0  0  0  0  0  0  0  0  0
   -6.8235    2.5106   28.5630 C   0  0  0  0  0  0  0  0  0  0  0  0
   -9.1960    5.4121   25.6224 C   0  0  0  0  0  0  0  0  0  0  0  0
   -8.7388    4.1278   25.9043 C   0  0  0  0  0  0  0  0  0  0  0  0
   -7.7829    1.5821   26.5242 C   0  0  0  0  0  0  0  0  0  0  0  0
   -5.9779    1.2460   28.6067 C   0  0  0  0  0  0  0  0  0  0  0  0
   -7.1624    0.3586   26.7224 C   0  0  0  0  0  0  0  0  0  0  0  0
   -6.2408    0.1940   27.7547 C   0  0  0  0  0  0  0  0  0  0  0  0
   -5.5452   -1.0820   27.9065 C   0  0  1  0  0  0  0  0  0  0  0  0
   -5.9482   -2.1160   27.8197 N   0  0  0  0  0  0  0  0  0  0  0  0
   -7.1222   -2.4327   27.7782 C   0  0  0  0  0  0  0  0  0  0  0  0
   -4.0153   -0.8571   27.3701 C   0  0  2  0  0  0  0  0  0  0  0  0
   -8.0392   -2.1959   28.3531 C   0  0  0  0  0  0  0  0  0  0  0  0
   -9.4857   -2.5126   28.2610 C   0  0  0  0  0  0  0  0  0  0  0  0
   -9.7384   -3.2179   27.1586 C   0  0  0  0  0  0  0  0  0  0  0  0
   -8.7657   -3.5999   26.2998 C   0  0  0  0  0  0  0  0  0  0  0  0
   -7.4933   -3.2332   26.5395 C   0  0  0  0  0  0  0  0  0  0  0  0
   -5.1072   -3.1811   28.5056 C   0  0  0  0  0  0  0  0  0  0  0  0
   -3.9308   -3.3832   27.8650 C   0  0  2  0  0  0  0  0  0  0  0  0
   -3.1450   -1.9572   27.7394 C   0  0  0  0  0  0  0  0  0  0  0  0
   -3.5031    0.3899   26.9327 C   0  0  0  0  0  0  0  0  0  0  0  0
   -3.1040    1.2696   27.7102 O   0  0  0  0  0  0  0  0  0  0  0  0
   -3.5492    0.5525   25.6298 O   0  0  0  0  0  0  0  0  0  0  0  0
   -3.9683   -4.1127   26.5366 C   0  0  0  0  0  0  0  0  0  0  0  0
   -4.0478   -5.4360   26.8047 C   0  0  0  0  0  0  0  0  0  0  0  0
   -4.4379   -6.2394   25.6931 C   0  0  0  0  0  0  0  0  0  0  0  0
   -4.4560   -5.7032   24.4129 C   0  0  0  0  0  0  0  0  0  0  0  0
   -4.2390   -4.3049   24.2345 C   0  0  0  0  0  0  0  0  0  0  0  0
   -4.0290   -3.5030   25.3360 C   0  0  0  0  0  0  0  0  0  0  0  0
  1  3  1  0
 13 12  1  6
 13 14  1  0
 14 15  1  0
 13 16  1  0
 14 22  1  0
 16 24  1  0
 23 24  1  0
 16 25  1  1
 25 26  2  0
 25 27  1  0
 23 28  1  6
 23 22  1  0
  3  6  2  0
  6 10  1  0
 10 12  2  0
 12 11  1  0
 11  9  2  0
  9  3  1  0
 28 29  2  0
 29 30  1  0
 30 31  2  0
 31 32  1  0
 32 33  2  0
 33 28  1  0
 15 17  2  0
 17 18  1  0
 18 19  2  0
 19 20  1  0
 20 21  2  0
 21 15  1  0
  1  2  2  0
  2  4  1  0
  4  5  2  0
  5  7  1  0
  7  8  2  0
  8  1  1  0
M  END
$$$$
