No_3505-complexes_sdf/6BKW-FPZ/2024-09-17-14-21-01/
     RDKit          3D

 11 11  0  0  0  0  0  0  0  0999 V2000
   -7.7129    4.2099   27.0854 C   0  0  0  0  0  0  0  0  0  0  0  0
   -8.2112    3.0637   26.9225 C   0  0  0  0  0  0  0  0  0  0  0  0
   -7.5138    1.9223   27.4249 C   0  0  0  0  0  0  0  0  0  0  0  0
   -7.4530    4.7989   28.0777 C   0  0  0  0  0  0  0  0  0  0  0  0
   -6.2059    2.3234   28.0199 C   0  0  0  0  0  0  0  0  0  0  0  0
   -6.1126    4.5577   28.6331 C   0  0  0  0  0  0  0  0  0  0  0  0
   -5.6462    3.3107   28.6327 C   0  0  0  0  0  0  0  0  0  0  0  0
   -9.2833    2.6244   26.0110 C   0  0  0  0  0  0  0  0  0  0  0  0
  -10.2447    3.5290   25.6512 C   0  0  0  0  0  0  0  0  0  0  0  0
  -11.1488    3.3286   24.6222 C   0  0  0  0  0  0  0  0  0  0  0  0
  -12.0213    4.3580   24.2020 C   0  0  0  0  0  0  0  0  0  0  0  0
  1  2  2  0
  2  3  1  0
  1  4  1  0
  3  5  2  0
  4  6  1  0
  5  7  1  0
  6  7  1  0
  2  8  1  0
  8  9  1  0
  9 10  2  3
 10 11  1  0
M  END
$$$$
