No_3942-complexes_sdf/6BKW-FPZ/2024-09-17-14-21-01/
     RDKit          3D

 21 22  0  0  0  0  0  0  0  0999 V2000
   -7.7129    4.2099   27.0854 C   0  0  0  0  0  0  0  0  0  0  0  0
   -8.2112    3.0637   26.9225 C   0  0  0  0  0  0  0  0  0  0  0  0
   -9.4446    2.8304   26.1868 C   0  0  0  0  0  0  0  0  0  0  0  0
   -8.4697    5.3956   26.7238 C   0  0  0  0  0  0  0  0  0  0  0  0
   -9.6172    5.2111   25.9513 C   0  0  0  0  0  0  0  0  0  0  0  0
  -10.0424    3.9782   25.6873 C   0  0  0  0  0  0  0  0  0  0  0  0
   -7.3903    1.6267   27.5078 Cl  0  0  0  0  0  0  0  0  0  0  0  0
   -7.9459    6.7347   26.9869 C   0  0  2  0  0  0  0  0  0  0  0  0
   -7.1261    6.7859   27.9646 F   0  0  0  0  0  0  0  0  0  0  0  0
   -8.3815    7.9131   26.4428 C   0  0  0  0  0  0  0  0  0  0  0  0
  -11.2707    3.8154   24.8817 C   0  0  1  0  0  0  0  0  0  0  0  0
  -11.4629    4.3652   23.6937 Cl  0  0  0  0  0  0  0  0  0  0  0  0
  -11.9055    2.4821   25.0826 C   0  0  0  0  0  0  0  0  0  0  0  0
  -13.2286    2.6368   24.8146 C   0  0  0  0  0  0  0  0  0  0  0  0
  -13.9784    3.5558   25.1587 N   0  0  0  0  0  0  0  0  0  0  0  0
  -14.0834    3.8227   26.4796 C   0  0  0  0  0  0  0  0  0  0  0  0
  -14.7714    5.0511   26.9029 C   0  0  0  0  0  0  0  0  0  0  0  0
  -14.5989    5.5052   28.2641 C   0  0  0  0  0  0  0  0  0  0  0  0
  -13.9141    4.6766   29.1733 C   0  0  0  0  0  0  0  0  0  0  0  0
  -13.3518    3.2980   27.4536 N   0  0  0  0  0  0  0  0  0  0  0  0
  -13.2454    3.6375   28.7141 C   0  0  0  0  0  0  0  0  0  0  0  0
  2  7  1  0
  4  8  1  0
  8  9  1  0
  8 10  1  1
  6 11  1  0
 11 12  1  6
 11 13  1  0
 13 14  1  0
 14 15  1  0
 15 16  1  0
  1  2  2  0
  2  3  1  0
  3  6  2  0
  6  5  1  0
  5  4  2  0
  4  1  1  0
 16 17  2  0
 17 18  1  0
 18 19  2  0
 19 21  1  0
 21 20  2  0
 20 16  1  0
M  END
$$$$
