No_3398-complexes_sdf/6BKW-FPZ/2024-09-17-14-21-01/
     RDKit          3D

 29 32  0  0  0  0  0  0  0  0999 V2000
   -7.2496    3.8871   27.4508 C   0  0  0  0  0  0  0  0  0  0  0  0
   -7.9379    4.9063   27.8518 C   0  0  0  0  0  0  0  0  0  0  0  0
   -7.4895    6.2027   27.7481 C   0  0  0  0  0  0  0  0  0  0  0  0
   -7.8057    2.6324   27.3137 C   0  0  0  0  0  0  0  0  0  0  0  0
   -9.1037    2.5748   27.2441 C   0  0  0  0  0  0  0  0  0  0  0  0
   -9.7488    1.2488   27.0673 C   0  0  0  0  0  0  0  0  0  0  0  0
   -9.3903    4.7272   27.9349 C   0  0  0  0  0  0  0  0  0  0  0  0
   -9.9288    3.5102   27.7900 C   0  0  0  0  0  0  0  0  0  0  0  0
   -9.1314    0.1874   26.7289 C   0  0  0  0  0  0  0  0  0  0  0  0
   -9.8060   -1.0927   26.5134 C   0  0  0  0  0  0  0  0  0  0  0  0
  -11.1647   -1.1173   26.7715 C   0  0  0  0  0  0  0  0  0  0  0  0
  -11.8301   -0.0359   27.3007 C   0  0  0  0  0  0  0  0  0  0  0  0
  -11.1756    1.1467   27.4909 C   0  0  0  0  0  0  0  0  0  0  0  0
   -6.4238    6.4605   28.3269 F   0  0  0  0  0  0  0  0  0  0  0  0
   -7.4534    6.7278   26.5364 F   0  0  0  0  0  0  0  0  0  0  0  0
  -12.0083   -2.6129   26.5520 Cl  0  0  0  0  0  0  0  0  0  0  0  0
   -8.3581    7.0353   28.3268 F   0  0  0  0  0  0  0  0  0  0  0  0
  -13.2806   -0.1319   27.6536 C   0  0  0  0  0  0  0  0  0  0  0  0
  -14.1115   -0.4589   27.1644 C   0  0  0  0  0  0  0  0  0  0  0  0
  -14.1087   -0.6854   25.7459 C   0  0  0  0  0  0  0  0  0  0  0  0
  -14.2125    0.4651   24.9542 C   0  0  0  0  0  0  0  0  0  0  0  0
  -14.0817    0.3750   23.5508 C   0  0  0  0  0  0  0  0  0  0  0  0
  -13.9760   -0.9109   23.0315 C   0  0  0  0  0  0  0  0  0  0  0  0
  -13.9947   -2.0286   23.7739 C   0  0  0  0  0  0  0  0  0  0  0  0
  -14.0188   -1.8975   25.0959 C   0  0  0  0  0  0  0  0  0  0  0  0
  -15.3504   -0.9418   27.7281 C   0  0  0  0  0  0  0  0  0  0  0  0
  -15.5606   -0.5394   28.9467 C   0  0  0  0  0  0  0  0  0  0  0  0
  -13.3753    0.1590   29.1638 C   0  0  0  0  0  0  0  0  0  0  0  0
  -14.5088   -0.0744   29.7642 C   0  0  0  0  0  0  0  0  0  0  0  0
  2  3  1  0
  5  6  1  0
  3 14  1  0
  3 15  1  0
 11 16  1  0
  3 17  1  0
 12 18  1  0
 19 20  1  0
 20 21  2  0
 21 22  1  0
 22 23  2  0
 23 24  1  0
 24 25  2  0
 25 20  1  0
 18 19  1  0
 19 26  2  0
 26 27  1  0
 27 29  2  0
 29 28  1  0
 28 18  2  0
  1  2  2  0
  2  7  1  0
  7  8  2  0
  8  5  1  0
  5  4  2  0
  4  1  1  0
  6  9  2  0
  9 10  1  0
 10 11  2  0
 11 12  1  0
 12 13  2  0
 13  6  1  0
M  END
$$$$
