No_3290-complexes_sdf/6BKW-FPZ/2024-09-17-14-21-01/
     RDKit          3D

 15 15  0  0  0  0  0  0  0  0999 V2000
   -7.9040    3.9820   27.1177 C   0  0  0  0  0  0  0  0  0  0  0  0
   -9.0711    4.3164   27.0630 C   0  0  0  0  0  0  0  0  0  0  0  0
   -9.5182    5.5541   27.5777 C   0  0  0  0  0  0  0  0  0  0  0  0
   -7.4468    2.6843   26.6499 C   0  0  0  0  0  0  0  0  0  0  0  0
   -8.3856    1.7878   26.2216 C   0  0  0  0  0  0  0  0  0  0  0  0
   -9.6812    2.2328   26.0889 C   0  0  0  0  0  0  0  0  0  0  0  0
  -10.0147    3.4312   26.5259 C   0  0  0  0  0  0  0  0  0  0  0  0
   -7.9143    0.4677   25.8109 C   0  0  0  0  0  0  0  0  0  0  0  0
   -7.1754   -0.2890   26.5788 N   0  0  0  0  0  0  0  0  0  0  0  0
   -6.2635   -0.9488   26.2980 C   0  0  0  0  0  0  0  0  0  0  0  0
   -5.3333   -1.5037   27.2942 C   0  0  0  0  0  0  0  0  0  0  0  0
   -4.2538   -1.4772   27.4392 C   0  0  0  0  0  0  0  0  0  0  0  0
   -3.5003   -1.7801   28.6987 C   0  0  0  0  0  0  0  0  0  0  0  0
   -4.3186   -2.0128   29.8302 C   0  0  0  0  0  0  0  0  0  0  0  0
   -5.6628   -1.9372   29.7174 C   0  0  0  0  0  0  0  0  0  0  0  0
  2  3  1  0
  5  8  1  0
  8  9  1  0
  9 10  1  0
 10 11  2  3
 11 12  1  0
 12 13  2  3
 13 14  1  0
 14 15  2  0
  1  2  2  0
  2  7  1  0
  7  6  2  0
  6  5  1  0
  5  4  2  0
  4  1  1  0
M  END
$$$$
