No_313-complexes_sdf/6BKW-FPZ/2024-09-17-14-21-01/
     RDKit          3D

 25 28  0  0  0  0  0  0  0  0999 V2000
   -7.9040    3.9820   27.1177 C   0  0  0  0  0  0  0  0  0  0  0  0
   -8.2057    2.8231   26.8733 C   0  0  0  0  0  0  0  0  0  0  0  0
   -9.2962    2.4021   26.1155 C   0  0  0  0  0  0  0  0  0  0  0  0
   -8.7358    5.0662   26.5917 C   0  0  0  0  0  0  0  0  0  0  0  0
   -8.4603    6.4492   26.8781 C   0  0  0  0  0  0  0  0  0  0  0  0
  -10.1146    3.3815   25.6105 C   0  0  0  0  0  0  0  0  0  0  0  0
   -9.8194    4.7235   25.8263 C   0  0  0  0  0  0  0  0  0  0  0  0
   -8.0989    7.5398   27.0611 N   0  0  0  0  0  0  0  0  0  0  0  0
   -9.5383    0.9649   25.9178 C   0  0  0  0  0  0  0  0  0  0  0  0
  -10.5149    0.4301   26.4488 C   0  0  0  0  0  0  0  0  0  0  0  0
  -10.6760   -0.9364   26.5435 C   0  0  0  0  0  0  0  0  0  0  0  0
   -8.6680    0.2736   25.0831 C   0  0  0  0  0  0  0  0  0  0  0  0
   -8.7797   -1.1272   25.0341 C   0  0  0  0  0  0  0  0  0  0  0  0
   -9.8386   -1.7046   25.7624 C   0  0  0  0  0  0  0  0  0  0  0  0
  -10.0115   -3.0717   25.7080 O   0  0  0  0  0  0  0  0  0  0  0  0
   -7.3659    1.8694   27.4387 F   0  0  0  0  0  0  0  0  0  0  0  0
   -9.0857   -3.8612   25.5612 C   0  0  0  0  0  0  0  0  0  0  0  0
   -9.2647   -5.0854   25.6922 C   0  0  0  0  0  0  0  0  0  0  0  0
   -8.1941   -6.0704   25.4973 C   0  0  0  0  0  0  0  0  0  0  0  0
   -6.9202   -5.5820   25.1378 C   0  0  0  0  0  0  0  0  0  0  0  0
   -6.7441   -4.2114   24.9636 C   0  0  0  0  0  0  0  0  0  0  0  0
   -7.7215   -3.3389   25.1846 C   0  0  0  0  0  0  0  0  0  0  0  0
   -7.6148   -1.8952   24.9798 C   0  0  1  0  0  0  0  0  0  0  0  0
   -6.3120   -1.3505   24.5188 C   0  0  0  0  0  0  0  0  0  0  0  0
   -5.9011   -0.2898   24.9573 O   0  0  0  0  0  0  0  0  0  0  0  0
  4  5  1  0
  5  8  3  0
  3  9  1  0
 14 15  1  0
  2 16  1  0
 15 17  1  0
 13 23  1  0
 22 23  1  0
 23 24  1  6
 24 25  1  0
  1  2  2  0
  2  3  1  0
  3  6  2  0
  6  7  1  0
  7  4  2  0
  4  1  1  0
  9 10  2  0
 10 11  1  0
 11 14  2  0
 14 13  1  0
 13 12  2  0
 12  9  1  0
 17 18  2  0
 18 19  1  0
 19 20  2  0
 20 21  1  0
 21 22  2  0
 22 17  1  0
M  END
$$$$
