No_3674-complexes_sdf/6BKW-FPZ/2024-09-17-14-21-01/
     RDKit          3D

 28 32  0  0  0  0  0  0  0  0999 V2000
   -7.2496    3.8871   27.4508 C   0  0  0  0  0  0  0  0  0  0  0  0
   -7.9379    4.9063   27.8518 C   0  0  2  0  0  0  0  0  0  0  0  0
   -9.3376    4.8647   27.7795 C   0  0  0  0  0  0  0  0  0  0  0  0
   -7.8544    2.6294   27.0414 C   0  0  0  0  0  0  0  0  0  0  0  0
   -9.2665    2.6175   27.0340 C   0  0  2  0  0  0  0  0  0  0  0  0
   -9.9836    3.7042   27.4150 C   0  0  1  0  0  0  0  0  0  0  0  0
   -9.9053    1.3367   26.6546 C   0  0  0  0  0  0  0  0  0  0  0  0
  -10.5453    0.7121   27.6210 C   0  0  0  0  0  0  0  0  0  0  0  0
  -10.9793   -0.6129   27.5217 C   0  0  0  0  0  0  0  0  0  0  0  0
  -11.6472   -1.2433   28.6069 C   0  0  0  0  0  0  0  0  0  0  0  0
   -9.7537    0.8665   25.3723 C   0  0  0  0  0  0  0  0  0  0  0  0
   -9.3101    1.6159   24.3892 C   0  0  0  0  0  0  0  0  0  0  0  0
   -9.2490    1.3206   23.0333 C   0  0  0  0  0  0  0  0  0  0  0  0
   -9.5033    0.0059   22.7456 C   0  0  0  0  0  0  0  0  0  0  0  0
   -9.8540   -0.9020   23.7264 C   0  0  0  0  0  0  0  0  0  0  0  0
   -9.9913   -0.4622   25.0016 C   0  0  0  0  0  0  0  0  0  0  0  0
  -10.7104   -1.2135   26.1953 C   0  0  0  0  0  0  0  0  0  0  0  0
  -12.5557   -0.6708   29.1806 O   0  0  0  0  0  0  0  0  0  0  0  0
  -11.5106   -2.6064   28.6554 N   0  0  0  0  0  0  0  0  0  0  0  0
  -12.1857   -3.3508   29.6842 C   0  0  0  0  0  0  0  0  0  0  0  0
   -7.3374    6.0747   28.1715 O   0  0  0  0  0  0  0  0  0  0  0  0
  -11.1693    3.4634   27.8304 F   0  0  0  0  0  0  0  0  0  0  0  0
  -12.1013   -4.5623   29.5649 C   0  0  0  0  0  0  0  0  0  0  0  0
  -11.2477   -5.1441   28.6982 C   0  0  0  0  0  0  0  0  0  0  0  0
  -10.5588   -4.4391   27.7322 C   0  0  0  0  0  0  0  0  0  0  0  0
  -10.6666   -3.1685   27.7721 C   0  0  1  0  0  0  0  0  0  0  0  0
  -10.6830   -2.6592   26.2649 C   0  0  0  0  0  0  0  0  0  0  0  0
   -7.1568    1.5727   26.8080 O   0  0  0  0  0  0  0  0  0  0  0  0
  1  2  1  0
  1  4  1  0
  4  5  1  0
  3  6  1  0
  5  6  1  0
  5  7  1  1
  9 10  1  0
 10 18  2  0
 10 19  1  0
 19 20  1  0
  2 21  1  6
  6 22  1  1
 23 24  1  0
 19 26  1  0
 26 25  1  6
 17 27  1  0
 26 27  1  0
  4 28  2  0
 20 23  1  0
 24 25  1  0
  2  3  1  0
 11 12  2  0
 12 13  1  0
 13 14  2  0
 14 15  1  0
 15 16  2  0
  7  8  2  0
  8  9  1  0
  9 17  2  0
 17 16  1  0
 16 11  1  0
 11  7  1  0
M  END
$$$$
