No_3991-complexes_sdf/6BKW-FPZ/2024-09-17-14-21-01/
     RDKit          3D

 24 26  0  0  0  0  0  0  0  0999 V2000
   -7.9040    3.9820   27.1177 C   0  0  0  0  0  0  0  0  0  0  0  0
   -7.8663    4.8694   27.9238 C   0  0  0  0  0  0  0  0  0  0  0  0
   -9.0501    3.8017   26.2617 C   0  0  0  0  0  0  0  0  0  0  0  0
  -10.0189    4.7608   26.3707 C   0  0  0  0  0  0  0  0  0  0  0  0
   -8.6973    5.9722   27.8968 C   0  0  0  0  0  0  0  0  0  0  0  0
   -9.8216    5.8946   27.1241 C   0  0  0  0  0  0  0  0  0  0  0  0
   -9.1445    2.6271   25.4265 C   0  0  0  0  0  0  0  0  0  0  0  0
   -8.6427    1.4143   25.8470 C   0  0  0  0  0  0  0  0  0  0  0  0
   -8.7182    0.2943   25.0299 C   0  0  0  0  0  0  0  0  0  0  0  0
   -9.2896    0.4616   23.7674 C   0  0  0  0  0  0  0  0  0  0  0  0
   -9.7777    1.6912   23.3100 C   0  0  0  0  0  0  0  0  0  0  0  0
   -9.6729    2.7693   24.1474 C   0  0  0  0  0  0  0  0  0  0  0  0
  -10.3494    1.8036   21.9782 C   0  0  0  0  0  0  0  0  0  0  0  0
  -10.3922    3.0619   21.4948 C   0  0  0  0  0  0  0  0  0  0  0  0
  -10.4666    4.1887   22.3662 C   0  0  0  0  0  0  0  0  0  0  0  0
  -10.0707    4.0836   23.6337 C   0  0  0  0  0  0  0  0  0  0  0  0
   -8.2318   -0.9786   25.4935 C   0  0  0  0  0  0  0  0  0  0  0  0
   -7.2555   -1.1115   25.9213 N   0  0  0  0  0  0  0  0  0  0  0  0
   -6.4226   -1.5528   26.5812 C   0  0  0  0  0  0  0  0  0  0  0  0
   -5.5562   -1.5074   27.3884 C   0  0  0  0  0  0  0  0  0  0  0  0
   -5.6116   -0.8738   28.6405 C   0  0  0  0  0  0  0  0  0  0  0  0
   -4.4980   -0.5795   29.5697 C   0  0  0  0  0  0  0  0  0  0  0  0
   -3.2638   -1.0167   29.0474 C   0  0  0  0  0  0  0  0  0  0  0  0
   -3.0754   -1.5834   27.8562 C   0  0  0  0  0  0  0  0  0  0  0  0
  3  7  1  0
  9 17  1  0
 17 18  1  0
 18 19  1  0
 19 20  2  3
 20 21  1  0
 21 22  2  3
 22 23  1  0
 23 24  2  0
 12 16  2  0
 16 15  1  0
 15 14  2  0
 14 13  1  0
 13 11  2  0
  1  2  2  0
  2  5  1  0
  5  6  2  0
  6  4  1  0
  4  3  2  0
  3  1  1  0
  7  8  2  0
  8  9  1  0
  9 10  2  0
 10 11  1  0
 11 12  1  0
 12  7  1  0
M  END
$$$$
