No_3109-complexes_sdf/6BKW-FPZ/2024-09-17-14-21-01/
     RDKit          3D

 32 35  0  0  0  0  0  0  0  0999 V2000
   -7.9040    3.9820   27.1177 C   0  0  0  0  0  0  0  0  0  0  0  0
   -8.2057    2.8231   26.8733 C   0  0  0  0  0  0  0  0  0  0  0  0
   -7.4766    1.7477   27.4593 C   0  0  0  0  0  0  0  0  0  0  0  0
   -8.7468    5.1251   26.6967 C   0  0  0  0  0  0  0  0  0  0  0  0
   -9.7234    4.8589   25.8202 C   0  0  0  0  0  0  0  0  0  0  0  0
   -9.9711    3.5858   25.4266 C   0  0  0  0  0  0  0  0  0  0  0  0
   -9.2266    2.4957   25.9600 C   0  0  0  0  0  0  0  0  0  0  0  0
   -7.8394    0.3721   27.3404 C   0  0  0  0  0  0  0  0  0  0  0  0
   -8.9869    0.1878   26.4476 C   0  0  0  0  0  0  0  0  0  0  0  0
   -9.6379    1.1710   25.7653 C   0  0  0  0  0  0  0  0  0  0  0  0
   -8.3917    6.5365   27.0771 C   0  0  0  0  0  0  0  0  0  0  0  0
   -8.6764    7.5576   26.4104 N   0  0  0  0  0  0  0  0  0  0  0  0
   -7.6078    6.5700   28.1428 O   0  0  0  0  0  0  0  0  0  0  0  0
   -7.1510   -0.6588   28.0038 C   0  0  0  0  0  0  0  0  0  0  0  0
   -5.9192   -0.4899   28.4157 N   0  0  0  0  0  0  0  0  0  0  0  0
   -5.3198   -1.1924   29.4401 C   0  0  0  0  0  0  0  0  0  0  0  0
   -4.0827   -1.1955   29.4855 C   0  0  0  0  0  0  0  0  0  0  0  0
   -3.2477   -0.2944   28.6740 C   0  0  0  0  0  0  0  0  0  0  0  0
   -3.8651    0.4437   27.7002 C   0  0  0  0  0  0  0  0  0  0  0  0
   -5.1516    0.3449   27.5516 C   0  0  0  0  0  0  0  0  0  0  0  0
   -7.6625   -1.7963   28.0942 O   0  0  0  0  0  0  0  0  0  0  0  0
   -3.0208    1.1930   26.9748 F   0  0  0  0  0  0  0  0  0  0  0  0
  -10.6722    0.7874   24.9029 C   0  0  1  0  0  0  0  0  0  0  0  0
  -10.2837    0.3485   23.6495 C   0  0  0  0  0  0  0  0  0  0  0  0
   -9.5026   -0.5533   23.4284 C   0  0  0  0  0  0  0  0  0  0  0  0
   -9.1177   -1.0353   22.0649 C   0  0  0  0  0  0  0  0  0  0  0  0
   -9.7800   -0.4144   20.9903 C   0  0  0  0  0  0  0  0  0  0  0  0
  -10.6617    0.6364   21.2303 C   0  0  0  0  0  0  0  0  0  0  0  0
  -10.9301    1.0492   22.4959 C   0  0  0  0  0  0  0  0  0  0  0  0
  -12.0110    0.7827   25.3363 C   0  0  0  0  0  0  0  0  0  0  0  0
  -12.6814   -0.1738   25.6105 C   0  0  0  0  0  0  0  0  0  0  0  0
  -14.0481   -0.1601   25.9933 C   0  0  0  0  0  0  0  0  0  0  0  0
  4 11  1  0
 11 12  1  0
 11 13  2  0
  8 14  1  0
 14 15  1  0
 15 16  1  0
 17 18  1  0
 15 20  1  0
 19 20  1  0
 14 21  2  0
 19 22  1  0
 23 10  1  1
 23 24  1  0
 23 30  1  0
 30 31  2  3
 31 32  1  0
 16 17  1  0
 18 19  1  0
 24 25  2  0
 25 26  1  0
 26 27  2  0
 27 28  1  0
 28 29  2  0
 29 24  1  0
  1  2  2  0
  7  6  2  0
  6  5  1  0
  5  4  2  0
  4  1  1  0
  2  3  1  0
  3  8  2  0
  8  9  1  0
  9 10  2  0
 10  7  1  0
  7  2  1  0
M  END
$$$$
