No_3913-complexes_sdf/6BKW-FPZ/2024-09-17-14-21-01/
     RDKit          3D

 23 25  0  0  0  0  0  0  0  0999 V2000
   -7.9040    3.9820   27.1177 C   0  0  0  0  0  0  0  0  0  0  0  0
   -9.0711    4.3164   27.0630 C   0  0  0  0  0  0  0  0  0  0  0  0
   -9.5294    5.4517   27.7215 C   0  0  0  0  0  0  0  0  0  0  0  0
   -7.4336    2.7132   26.5681 C   0  0  0  0  0  0  0  0  0  0  0  0
   -8.3353    1.8569   26.0442 C   0  0  0  0  0  0  0  0  0  0  0  0
   -9.6477    2.2853   25.9146 C   0  0  0  0  0  0  0  0  0  0  0  0
  -10.0346    3.4497   26.4483 C   0  0  2  0  0  0  0  0  0  0  0  0
   -7.8750    0.5509   25.5918 C   0  0  0  0  0  0  0  0  0  0  0  0
   -8.0040    0.2730   24.4392 O   0  0  0  0  0  0  0  0  0  0  0  0
   -7.1075   -0.0974   26.3993 O   0  0  0  0  0  0  0  0  0  0  0  0
   -6.9072    4.6992   27.8672 N   0  0  0  0  0  0  0  0  0  0  0  0
   -7.2527    5.8683   28.4621 C   0  0  0  0  0  0  0  0  0  0  0  0
   -8.5660    6.2505   28.3318 N   0  0  0  0  0  0  0  0  0  0  0  0
  -11.4161    3.8767   26.1668 C   0  0  0  0  0  0  0  0  0  0  0  0
  -12.2433    3.0029   26.6539 C   0  0  0  0  0  0  0  0  0  0  0  0
  -13.5802    3.3753   26.6646 C   0  0  0  0  0  0  0  0  0  0  0  0
  -14.5477    2.6951   27.3827 C   0  0  0  0  0  0  0  0  0  0  0  0
  -14.2777    2.0280   28.1662 C   0  0  0  0  0  0  0  0  0  0  0  0
  -12.8930    1.4817   28.4112 C   0  0  0  0  0  0  0  0  0  0  0  0
  -11.9144    2.1553   27.7136 C   0  0  0  0  0  0  0  0  0  0  0  0
   -7.2588   -1.3943   26.5997 C   0  0  0  0  0  0  0  0  0  0  0  0
   -8.2220   -1.9954   26.6079 C   0  0  0  0  0  0  0  0  0  0  0  0
   -8.3633   -3.3880   26.8613 C   0  0  0  0  0  0  0  0  0  0  0  0
  1  4  1  0
  4  5  1  0
  5  6  1  0
  2  7  1  0
  6  7  1  0
  5  8  1  0
  8  9  2  0
  8 10  1  0
  7 14  1  6
 14 15  1  0
 10 21  1  0
 21 22  2  3
 22 23  1  0
 15 16  2  0
 16 17  1  0
 17 18  2  0
 18 19  1  0
 19 20  2  0
 20 15  1  0
  1  2  1  0
  2  3  2  0
  3 13  1  0
 13 12  2  0
 12 11  1  0
 11  1  2  0
M  END
$$$$
