No_3020-complexes_sdf/6BKW-FPZ/2024-09-17-14-21-01/
     RDKit          3D

 15 16  0  0  0  0  0  0  0  0999 V2000
   -7.9040    3.9820   27.1177 C   0  0  0  0  0  0  0  0  0  0  0  0
   -7.8663    4.8694   27.9238 C   0  0  0  0  0  0  0  0  0  0  0  0
   -9.0491    3.8523   26.2542 C   0  0  0  0  0  0  0  0  0  0  0  0
   -8.7661    5.9491   27.9690 C   0  0  0  0  0  0  0  0  0  0  0  0
   -9.9295    4.8502   26.2323 C   0  0  0  0  0  0  0  0  0  0  0  0
   -9.8077    5.9288   27.0933 C   0  0  0  0  0  0  0  0  0  0  0  0
   -7.0120    2.8934   27.1747 N   0  0  0  0  0  0  0  0  0  0  0  0
   -5.9584    2.9314   27.9624 C   0  0  0  0  0  0  0  0  0  0  0  0
   -5.1656    1.7153   27.9579 N   0  0  0  0  0  0  0  0  0  0  0  0
   -5.6833    0.6681   27.4948 C   0  0  0  0  0  0  0  0  0  0  0  0
   -7.2087    1.4416   26.9779 C   0  0  0  0  0  0  0  0  0  0  0  0
   -5.5379   -0.5920   27.4323 C   0  0  0  0  0  0  0  0  0  0  0  0
   -4.9894   -1.2582   28.0425 O   0  0  0  0  0  0  0  0  0  0  0  0
   -5.9538   -1.0882   26.1922 O   0  0  0  0  0  0  0  0  0  0  0  0
   -9.1426    2.5716   25.1174 Cl  0  0  0  0  0  0  0  0  0  0  0  0
  1  7  1  0
  7  8  1  0
  8  9  2  0
  9 10  1  0
  7 11  1  0
 10 11  2  0
 10 12  1  0
 12 13  2  0
 12 14  1  0
  3 15  1  0
  1  2  2  0
  2  4  1  0
  4  6  2  0
  6  5  1  0
  5  3  2  0
  3  1  1  0
M  END
$$$$
