No_3106-complexes_sdf/6BKW-FPZ/2024-09-17-14-21-01/
     RDKit          3D

 12 13  0  0  0  0  0  0  0  0999 V2000
   -7.2496    3.8871   27.4508 C   0  0  0  0  0  0  0  0  0  0  0  0
   -8.5096    4.0291   27.2770 C   0  0  0  0  0  0  0  0  0  0  0  0
   -9.2677    5.1714   27.5773 C   0  0  0  0  0  0  0  0  0  0  0  0
   -9.2765    2.8248   26.8371 C   0  0  0  0  0  0  0  0  0  0  0  0
  -10.4623    3.0171   26.3237 C   0  0  0  0  0  0  0  0  0  0  0  0
  -10.8972    2.6250   25.3350 C   0  0  0  0  0  0  0  0  0  0  0  0
  -10.3416    1.8494   24.5924 C   0  0  0  0  0  0  0  0  0  0  0  0
   -9.0764    1.2555   25.1347 C   0  0  0  0  0  0  0  0  0  0  0  0
   -8.5068    1.7277   26.4151 C   0  0  0  0  0  0  0  0  0  0  0  0
   -6.5506    5.0042   28.1975 C   0  0  0  0  0  0  0  0  0  0  0  0
   -8.5639    6.3446   28.0850 C   0  0  0  0  0  0  0  0  0  0  0  0
   -7.2105    6.2183   28.2583 C   0  0  0  0  0  0  0  0  0  0  0  0
  2  4  1  0
  1  2  2  0
  2  3  1  0
  3 11  2  0
 11 12  1  0
 12 10  2  0
 10  1  1  0
  4  5  2  0
  5  6  1  0
  6  7  2  0
  7  8  1  0
  8  9  2  0
  9  4  1  0
M  END
$$$$
