No_3136-complexes_sdf/6BKW-FPZ/2024-09-17-14-21-01/
     RDKit          3D

 29 33  0  0  0  0  0  0  0  0999 V2000
   -7.9040    3.9820   27.1177 C   0  0  0  0  0  0  0  0  0  0  0  0
   -7.8663    4.8694   27.9238 C   0  0  0  0  0  0  0  0  0  0  0  0
   -9.0953    3.1697   27.0532 C   0  0  0  0  0  0  0  0  0  0  0  0
  -10.1313    3.4052   27.8871 C   0  0  0  0  0  0  0  0  0  0  0  0
   -8.9489    5.3814   28.6671 C   0  0  0  0  0  0  0  0  0  0  0  0
  -10.1039    4.5714   28.7102 C   0  0  0  0  0  0  0  0  0  0  0  0
   -9.2517    1.9372   26.2582 C   0  0  2  0  0  0  0  0  0  0  0  0
  -10.0097    2.0069   25.1878 C   0  0  1  0  0  0  0  0  0  0  0  0
  -10.7129    3.2675   24.8940 C   0  0  0  0  0  0  0  0  0  0  0  0
  -11.4477    3.4081   23.6568 C   0  0  0  0  0  0  0  0  0  0  0  0
  -11.3736    2.3801   22.7548 C   0  0  0  0  0  0  0  0  0  0  0  0
  -10.6535    1.2059   22.9943 C   0  0  0  0  0  0  0  0  0  0  0  0
   -9.9345    1.0565   24.1416 C   0  0  2  0  0  0  0  0  0  0  0  0
   -9.0152    0.6311   26.9218 C   0  0  0  0  0  0  0  0  0  0  0  0
   -8.1393    0.3657   27.7306 C   0  0  0  0  0  0  0  0  0  0  0  0
   -7.8116   -0.9254   28.1766 C   0  0  0  0  0  0  0  0  0  0  0  0
   -8.6897   -1.9401   27.7691 C   0  0  0  0  0  0  0  0  0  0  0  0
   -9.8960   -0.4161   26.4133 C   0  0  0  0  0  0  0  0  0  0  0  0
   -9.7147   -1.6746   26.9782 C   0  0  0  0  0  0  0  0  0  0  0  0
  -10.7273   -0.2271   25.2332 C   0  0  0  0  0  0  0  0  0  0  0  0
   -8.4728    0.6788   23.8873 C   0  0  0  0  0  0  0  0  0  0  0  0
  -10.6404   -2.7556   26.5436 C   0  0  0  0  0  0  0  0  0  0  0  0
  -10.4835   -3.8423   26.9482 C   0  0  0  0  0  0  0  0  0  0  0  0
  -11.3822   -4.8557   26.6154 C   0  0  0  0  0  0  0  0  0  0  0  0
  -12.4039   -4.5712   25.7240 C   0  0  0  0  0  0  0  0  0  0  0  0
  -12.5529   -3.2743   25.2390 C   0  0  0  0  0  0  0  0  0  0  0  0
  -11.7307   -2.3542   25.6610 C   0  0  0  0  0  0  0  0  0  0  0  0
  -11.5864   -0.6641   24.7824 O   0  0  0  0  0  0  0  0  0  0  0  0
  -12.8586   -1.2857   26.5451 P   0  0  0  0  0  0  0  0  0  0  0  0
  7  3  1  1
  8  9  1  6
 10 11  1  0
  8 13  1  0
 12 13  1  0
  7 14  1  0
 13 20  1  0
 18 20  1  0
 13 21  1  6
 19 22  1  0
 20 28  2  0
 27 29  1  0
  8  7  1  0
  9 10  1  0
 11 12  1  0
  1  2  2  0
  2  5  1  0
  5  6  2  0
  6  4  1  0
  4  3  2  0
  3  1  1  0
 22 23  2  0
 23 24  1  0
 24 25  2  0
 25 26  1  0
 26 27  2  0
 27 22  1  0
 14 15  2  0
 15 16  1  0
 16 17  2  0
 17 19  1  0
 19 18  2  0
 18 14  1  0
M  END
$$$$
