No_324-complexes_sdf/6BKW-FPZ/2024-09-17-14-21-01/
     RDKit          3D

 40 44  0  0  0  0  0  0  0  0999 V2000
   -7.7129    4.2099   27.0854 C   0  0  0  0  0  0  0  0  0  0  0  0
   -8.9133    4.4736   27.0998 C   0  0  0  0  0  0  0  0  0  0  0  0
   -9.7937    3.7368   26.2091 C   0  0  0  0  0  0  0  0  0  0  0  0
   -6.8266    5.0441   28.0594 C   0  0  0  0  0  0  0  0  0  0  0  0
   -9.2322    2.6276   25.6126 C   0  0  0  0  0  0  0  0  0  0  0  0
   -7.9794    2.1924   25.9863 C   0  0  0  0  0  0  0  0  0  0  0  0
   -7.2411    2.9387   26.9009 C   0  0  0  0  0  0  0  0  0  0  0  0
  -10.0593    1.7685   24.7435 C   0  0  0  0  0  0  0  0  0  0  0  0
  -10.5873    2.1266   23.7304 N   0  0  0  0  0  0  0  0  0  0  0  0
  -10.8535    3.3476   23.5008 C   0  0  0  0  0  0  0  0  0  0  0  0
  -10.8492    1.2641   22.6191 C   0  0  0  0  0  0  0  0  0  0  0  0
  -11.3587    4.1908   23.9599 C   0  0  0  0  0  0  0  0  0  0  0  0
  -10.2916    3.7683   22.0376 C   0  0  0  0  0  0  0  0  0  0  0  0
  -10.1269    2.8853   21.0538 C   0  0  0  0  0  0  0  0  0  0  0  0
  -10.2304    1.5663   21.3342 C   0  0  0  0  0  0  0  0  0  0  0  0
   -9.8916    0.4788   25.0469 O   0  0  0  0  0  0  0  0  0  0  0  0
   -9.4707    5.8384   27.4847 C   0  0  0  0  0  0  0  0  0  0  0  0
   -7.3649    6.3037   28.4370 C   0  0  0  0  0  0  0  0  0  0  0  0
   -8.6329    6.7084   28.1133 C   0  0  0  0  0  0  0  0  0  0  0  0
   -6.0664    2.4631   27.3466 O   0  0  0  0  0  0  0  0  0  0  0  0
   -5.8442    1.1318   27.6052 C   0  0  2  0  0  0  0  0  0  0  0  0
   -4.5907    0.9797   28.3731 C   0  0  2  0  0  0  0  0  0  0  0  0
   -3.5701    1.0838   28.0178 C   0  0  0  0  0  0  0  0  0  0  0  0
   -3.4662    1.0049   26.5848 C   0  0  2  0  0  0  0  0  0  0  0  0
   -4.1898    0.1154   26.0029 O   0  0  0  0  0  0  0  0  0  0  0  0
   -5.3650    0.4843   26.2823 C   0  0  1  0  0  0  0  0  0  0  0  0
   -6.5972   -0.6264   25.4740 P   0  0  0  0  0  0  0  0  0  0  0  0
   -5.8158   -1.9142   25.3324 O   0  0  0  0  0  0  0  0  0  0  0  0
   -7.6068   -0.9184   26.5279 O   0  0  0  0  0  0  0  0  0  0  0  0
   -7.1240   -0.1058   24.2413 O   0  0  0  0  0  0  0  0  0  0  0  0
   -4.8794   -0.2150   29.3498 O   0  0  0  0  0  0  0  0  0  0  0  0
   -4.2267   -0.3692   30.4953 C   0  0  0  0  0  0  0  0  0  0  0  0
   -4.8966   -1.0707   31.5130 C   0  0  0  0  0  0  0  0  0  0  0  0
   -4.4716   -1.8521   31.9842 C   0  0  0  0  0  0  0  0  0  0  0  0
   -2.9635   -2.0525   32.2687 C   0  0  0  0  0  0  0  0  0  0  0  0
   -2.2719   -1.3437   31.2487 C   0  0  0  0  0  0  0  0  0  0  0  0
   -2.8070   -0.5019   30.4532 C   0  0  0  0  0  0  0  0  0  0  0  0
   -2.0511    0.6363   26.3661 O   0  0  0  0  0  0  0  0  0  0  0  0
   -2.3679   -2.9022   33.2383 C   0  0  0  0  0  0  0  0  0  0  0  0
   -2.4277   -2.7628   34.3772 O   0  0  0  0  0  0  0  0  0  0  0  0
  5  8  1  0
  8  9  1  0
  9 10  1  0
  9 11  1  0
 10 13  1  0
 13 14  1  0
 11 15  1  0
  8 16  2  0
  7 20  1  0
 21 20  1  6
 21 22  1  0
 22 23  1  0
 23 24  1  0
 24 25  1  0
 21 26  1  0
 25 26  1  0
 26 27  1  1
 27 28  2  0
 27 29  1  0
 27 30  1  0
 22 31  1  6
 31 32  1  0
 24 38  1  1
 35 39  1  0
 39 40  2  0
 12 10  1  0
 14 15  1  0
 32 33  2  0
 33 34  1  0
 34 35  2  0
 35 36  1  0
 36 37  2  0
 37 32  1  0
  2 17  1  0
 17 19  2  0
 19 18  1  0
 18  4  2  0
  4  1  1  0
  1  2  1  0
  2  3  2  0
  3  5  1  0
  5  6  2  0
  6  7  1  0
  7  1  2  0
M  END
$$$$
