No_302-complexes_sdf/6BKW-FPZ/2024-09-17-14-21-01/
     RDKit          3D

 28 30  0  0  0  0  0  0  0  0999 V2000
   -7.9040    3.9820   27.1177 C   0  0  0  0  0  0  0  0  0  0  0  0
   -9.0711    4.3164   27.0630 C   0  0  0  0  0  0  0  0  0  0  0  0
   -9.5294    5.4517   27.7215 C   0  0  0  0  0  0  0  0  0  0  0  0
   -7.4336    2.7132   26.5681 C   0  0  0  0  0  0  0  0  0  0  0  0
   -8.3353    1.8569   26.0442 C   0  0  0  0  0  0  0  0  0  0  0  0
   -7.9243    0.5609   25.6726 C   0  0  0  0  0  0  0  0  0  0  0  0
  -10.0396    3.4856   26.3639 C   0  0  0  0  0  0  0  0  0  0  0  0
   -9.6183    2.2835   25.9020 C   0  0  0  0  0  0  0  0  0  0  0  0
   -8.5401   -0.3900   26.0095 O   0  0  0  0  0  0  0  0  0  0  0  0
   -6.9373    4.7212   27.8681 N   0  0  0  0  0  0  0  0  0  0  0  0
   -7.3080    5.8797   28.4761 C   0  0  0  0  0  0  0  0  0  0  0  0
   -8.5968    6.2419   28.3447 N   0  0  0  0  0  0  0  0  0  0  0  0
   -6.7668    0.3489   25.1337 O   0  0  0  0  0  0  0  0  0  0  0  0
  -11.6458    3.9675   26.0567 Cl  0  0  0  0  0  0  0  0  0  0  0  0
   -6.2586   -0.9651   24.9791 C   0  0  0  0  0  0  0  0  0  0  0  0
   -5.0846   -1.1907   25.7486 C   0  0  1  0  0  0  0  0  0  0  0  0
   -4.5933   -0.1760   26.4784 C   0  0  0  0  0  0  0  0  0  0  0  0
   -4.8268   -0.0348   27.8327 C   0  0  0  0  0  0  0  0  0  0  0  0
   -3.8326   -0.3942   28.7857 C   0  0  0  0  0  0  0  0  0  0  0  0
   -4.1571   -0.1467   30.1705 C   0  0  0  0  0  0  0  0  0  0  0  0
   -2.5914   -0.8412   28.4061 C   0  0  0  0  0  0  0  0  0  0  0  0
   -3.1310   -0.3902   31.1791 C   0  0  0  0  0  0  0  0  0  0  0  0
   -1.6167   -1.1269   29.4497 C   0  0  0  0  0  0  0  0  0  0  0  0
   -1.9230   -0.9029   30.7921 C   0  0  0  0  0  0  0  0  0  0  0  0
   -4.5655   -2.5321   25.7710 C   0  0  0  0  0  0  0  0  0  0  0  0
   -3.4832   -2.7802   26.2938 C   0  0  0  0  0  0  0  0  0  0  0  0
   -2.8471   -4.0946   26.3402 C   0  0  0  0  0  0  0  0  0  0  0  0
   -3.6084   -5.0832   25.7922 C   0  0  0  0  0  0  0  0  0  0  0  0
  5  6  1  0
  6  9  2  0
  6 13  1  0
  7 14  1  0
 13 15  1  0
 16 15  1  1
 16 17  1  0
 17 18  1  0
 18 19  1  0
 16 25  1  0
 25 26  2  3
 26 27  1  0
 27 28  2  0
 19 20  2  0
 20 22  1  0
 22 24  2  0
 24 23  1  0
 23 21  2  0
 21 19  1  0
  2  7  1  0
  7  8  2  0
  8  5  1  0
  5  4  2  0
  4  1  1  0
  1  2  1  0
  2  3  2  0
  3 12  1  0
 12 11  2  0
 11 10  1  0
 10  1  2  0
M  END
$$$$
