No_3603-complexes_sdf/6BKW-FPZ/2024-09-17-14-21-01/
     RDKit          3D

 20 21  0  0  0  0  0  0  0  0999 V2000
   -7.2496    3.8871   27.4508 C   0  0  0  0  0  0  0  0  0  0  0  0
   -7.6161    2.7143   27.1523 C   0  0  0  0  0  0  0  0  0  0  0  0
   -8.8302    2.4659   26.5056 C   0  0  0  0  0  0  0  0  0  0  0  0
   -8.1584    5.0089   27.3234 C   0  0  0  0  0  0  0  0  0  0  0  0
   -9.3788    4.7965   26.7695 C   0  0  0  0  0  0  0  0  0  0  0  0
   -9.7028    3.5649   26.3276 C   0  0  0  0  0  0  0  0  0  0  0  0
   -6.5643    1.3669   27.4061 Cl  0  0  0  0  0  0  0  0  0  0  0  0
   -7.7201    6.2071   27.7257 F   0  0  0  0  0  0  0  0  0  0  0  0
  -11.0175    3.3542   25.6699 C   0  0  1  0  0  0  0  0  0  0  0  0
  -10.9733    3.0690   24.3462 C   0  0  0  0  0  0  0  0  0  0  0  0
  -10.3470    2.7879   23.6129 C   0  0  0  0  0  0  0  0  0  0  0  0
  -10.4551    2.5516   22.1895 C   0  0  0  0  0  0  0  0  0  0  0  0
  -11.6216    2.8225   21.5894 C   0  0  0  0  0  0  0  0  0  0  0  0
  -12.5946    3.3071   22.4389 C   0  0  0  0  0  0  0  0  0  0  0  0
  -12.3774    3.5397   23.7544 C   0  0  0  0  0  0  0  0  0  0  0  0
  -12.1028    3.4064   26.5385 C   0  0  0  0  0  0  0  0  0  0  0  0
  -13.2392    3.2487   26.5071 C   0  0  0  0  0  0  0  0  0  0  0  0
  -14.2250    3.4481   27.4664 C   0  0  0  0  0  0  0  0  0  0  0  0
  -13.7256    3.7792   28.7476 C   0  0  0  0  0  0  0  0  0  0  0  0
  -12.3838    3.8607   29.0352 C   0  0  0  0  0  0  0  0  0  0  0  0
  2  7  1  0
  4  8  1  0
  9  6  1  1
  9 10  1  0
  9 16  1  0
 16 17  2  3
 17 18  1  0
 18 19  2  3
 19 20  1  0
  1  2  2  0
  2  3  1  0
  3  6  2  0
  6  5  1  0
  5  4  2  0
  4  1  1  0
 10 11  2  0
 11 12  1  0
 12 13  2  0
 13 14  1  0
 14 15  2  0
 15 10  1  0
M  END
$$$$
