No_3917-complexes_sdf/6BKW-FPZ/2024-09-17-14-21-01/
     RDKit          3D

 19 20  0  0  0  0  0  0  0  0999 V2000
   -7.9040    3.9820   27.1177 C   0  0  0  0  0  0  0  0  0  0  0  0
   -9.0711    4.3164   27.0630 C   0  0  0  0  0  0  0  0  0  0  0  0
   -9.8698    3.9665   25.9494 C   0  0  0  0  0  0  0  0  0  0  0  0
   -7.0332    4.5030   28.2025 C   0  0  0  0  0  0  0  0  0  0  0  0
   -9.4357    2.9501   25.1393 C   0  0  0  0  0  0  0  0  0  0  0  0
   -8.2567    2.3218   25.4797 C   0  0  0  0  0  0  0  0  0  0  0  0
   -7.5105    2.7966   26.5752 C   0  0  0  0  0  0  0  0  0  0  0  0
  -10.2472    2.5204   24.0264 C   0  0  0  0  0  0  0  0  0  0  0  0
  -11.4891    2.6395   24.0267 C   0  0  0  0  0  0  0  0  0  0  0  0
   -9.6066    1.9576   22.8718 C   0  0  0  0  0  0  0  0  0  0  0  0
   -7.4765    5.4166   28.9940 F   0  0  0  0  0  0  0  0  0  0  0  0
   -6.3500    3.6110   28.8567 F   0  0  0  0  0  0  0  0  0  0  0  0
  -12.3091    2.3391   23.0000 C   0  0  0  0  0  0  0  0  0  0  0  0
  -10.3204    1.5824   21.7646 C   0  0  0  0  0  0  0  0  0  0  0  0
  -11.7009    1.7860   21.8298 C   0  0  0  0  0  0  0  0  0  0  0  0
  -12.4738    1.3815   20.7735 O   0  0  0  0  0  0  0  0  0  0  0  0
  -12.0903    0.9936   19.6583 C   0  0  0  0  0  0  0  0  0  0  0  0
   -6.0634    5.2356   27.5355 F   0  0  0  0  0  0  0  0  0  0  0  0
  -13.5906    2.5106   22.9625 F   0  0  0  0  0  0  0  0  0  0  0  0
  1  4  1  0
  5  8  1  0
  4 11  1  0
  4 12  1  0
 15 16  1  0
 16 17  1  0
  4 18  1  0
 13 19  1  0
  8  9  2  0
  9 13  1  0
 13 15  2  0
 15 14  1  0
 14 10  2  0
 10  8  1  0
  1  2  2  0
  2  3  1  0
  3  5  2  0
  5  6  1  0
  6  7  2  0
  7  1  1  0
M  END
$$$$
