No_3726-complexes_sdf/6BKW-FPZ/2024-09-17-14-21-01/
     RDKit          3D

 12 13  0  0  0  0  0  0  0  0999 V2000
   -7.9040    3.9820   27.1177 C   0  0  0  0  0  0  0  0  0  0  0  0
   -8.2057    2.8231   26.8733 C   0  0  0  0  0  0  0  0  0  0  0  0
   -7.0130    4.3706   28.1140 C   0  0  0  0  0  0  0  0  0  0  0  0
   -7.3740    1.7588   27.2586 C   0  0  0  0  0  0  0  0  0  0  0  0
   -6.8741    5.7769   28.4526 C   0  0  0  0  0  0  0  0  0  0  0  0
   -7.7113    0.3987   27.0710 C   0  0  0  0  0  0  0  0  0  0  0  0
   -8.7261    5.1235   26.6549 C   0  0  0  0  0  0  0  0  0  0  0  0
   -8.6133    6.4373   26.9874 C   0  0  0  0  0  0  0  0  0  0  0  0
   -7.6257    6.7460   27.8920 C   0  0  0  0  0  0  0  0  0  0  0  0
   -9.3850    2.2870   26.3770 C   0  0  0  0  0  0  0  0  0  0  0  0
   -9.7581    1.0367   26.1057 C   0  0  0  0  0  0  0  0  0  0  0  0
   -8.8510    0.0687   26.5447 C   0  0  0  0  0  0  0  0  0  0  0  0
  1  2  1  0
  1  3  2  0
  3  5  1  0
  5  9  2  0
  9  8  1  0
  8  7  2  0
  7  1  1  0
  2  4  2  0
  4  6  1  0
  6 12  2  0
 12 11  1  0
 11 10  2  0
 10  2  1  0
M  END
$$$$
