No_3821-complexes_sdf/6BKW-FPZ/2024-09-17-14-21-01/
     RDKit          3D

 15 17  0  0  0  0  0  0  0  0999 V2000
   -7.9040    3.9820   27.1177 C   0  0  0  0  0  0  0  0  0  0  0  0
   -7.8663    4.8694   27.9238 C   0  0  0  0  0  0  0  0  0  0  0  0
   -9.0501    3.8017   26.2617 C   0  0  0  0  0  0  0  0  0  0  0  0
   -9.1826    2.7026   25.3575 C   0  0  0  0  0  0  0  0  0  0  0  0
   -8.6940    6.0131   27.8614 C   0  0  0  0  0  0  0  0  0  0  0  0
   -9.9755    4.8547   26.2361 C   0  0  0  0  0  0  0  0  0  0  0  0
   -9.7463    5.9398   27.0365 C   0  0  0  0  0  0  0  0  0  0  0  0
   -8.7079    1.4615   25.7719 C   0  0  0  0  0  0  0  0  0  0  0  0
   -9.8679    2.8075   24.1351 C   0  0  0  0  0  0  0  0  0  0  0  0
   -8.1461    1.2670   26.9807 C   0  0  0  0  0  0  0  0  0  0  0  0
   -7.4144    2.5688   27.5482 C   0  0  0  0  0  0  0  0  0  0  0  0
   -9.9793    1.7797   23.2266 C   0  0  0  0  0  0  0  0  0  0  0  0
   -9.3633    0.5332   23.6670 C   0  0  0  0  0  0  0  0  0  0  0  0
   -8.7852    0.3908   24.8511 C   0  0  0  0  0  0  0  0  0  0  0  0
   -9.0447    0.8792   28.0622 C   0  0  0  0  0  0  0  0  0  0  0  0
 10 15  1  0
  8 14  2  0
 14 13  1  0
 13 12  2  0
 12  9  1  0
  9  4  2  0
  1  2  2  0
  2  5  1  0
  5  7  2  0
  7  6  1  0
  6  3  2  0
  1  3  1  0
  3  4  1  0
  4  8  1  0
  8 10  1  0
 10 11  2  0
 11  1  1  0
M  END
$$$$
