No_3359-complexes_sdf/6BKW-FPZ/2024-09-17-14-21-01/
     RDKit          3D

 25 28  0  0  0  0  0  0  0  0999 V2000
   -7.2496    3.8871   27.4508 C   0  0  0  0  0  0  0  0  0  0  0  0
   -7.6161    2.7143   27.1523 C   0  0  0  0  0  0  0  0  0  0  0  0
   -8.8302    2.4659   26.5056 C   0  0  0  0  0  0  0  0  0  0  0  0
   -8.1584    5.0090   27.3234 C   0  0  0  0  0  0  0  0  0  0  0  0
   -9.3788    4.7965   26.7695 C   0  0  0  0  0  0  0  0  0  0  0  0
  -10.2565    5.9224   26.5388 C   0  0  0  0  0  0  0  0  0  0  0  0
   -9.7413    3.5289   26.3208 C   0  0  0  0  0  0  0  0  0  0  0  0
   -6.7167    1.5313   27.3525 C   0  0  0  0  0  0  0  0  0  0  0  0
   -5.4590    1.7292   28.0373 C   0  0  0  0  0  0  0  0  0  0  0  0
   -4.5898    0.6403   28.2577 C   0  0  0  0  0  0  0  0  0  0  0  0
   -5.0129   -0.6376   27.9742 C   0  0  0  0  0  0  0  0  0  0  0  0
   -6.9582    0.1607   27.2680 C   0  0  0  0  0  0  0  0  0  0  0  0
   -6.2437   -0.8308   27.5058 C   0  0  0  0  0  0  0  0  0  0  0  0
   -7.6961    6.3186   27.8333 C   0  0  0  0  0  0  0  0  0  0  0  0
   -3.3486    0.9400   28.8105 O   0  0  0  0  0  0  0  0  0  0  0  0
  -10.9816    3.3043   25.6216 C   0  0  0  0  0  0  0  0  0  0  0  0
  -11.7913    3.9025   25.5042 C   0  0  0  0  0  0  0  0  0  0  0  0
  -11.7272    5.2169   26.0374 C   0  0  0  0  0  0  0  0  0  0  0  0
  -13.1157    3.8165   24.8757 C   0  0  0  0  0  0  0  0  0  0  0  0
  -13.1942    3.2465   23.7149 C   0  0  0  0  0  0  0  0  0  0  0  0
  -14.4486    3.0100   23.0277 C   0  0  0  0  0  0  0  0  0  0  0  0
  -14.4562    2.3118   21.8351 C   0  0  0  0  0  0  0  0  0  0  0  0
  -13.2372    1.8825   21.2640 C   0  0  0  0  0  0  0  0  0  0  0  0
  -12.0216    2.1358   21.8333 C   0  0  0  0  0  0  0  0  0  0  0  0
  -12.0026    2.8621   23.0711 C   0  0  0  0  0  0  0  0  0  0  0  0
  2  8  1  0
  4 14  1  0
 10 15  1  0
 17 19  1  0
 19 20  1  0
  8  9  2  0
  9 10  1  0
 10 11  2  0
 11 13  1  0
 13 12  2  0
 12  8  1  0
  1  2  2  0
  2  3  1  0
  3  7  2  0
  5  4  2  0
  4  1  1  0
 20 21  2  0
 21 22  1  0
 22 23  2  0
 23 24  1  0
 24 25  2  0
 25 20  1  0
  5  6  1  0
  6 18  2  0
 18 17  1  0
 17 16  2  0
 16  7  1  0
  7  5  1  0
M  END
$$$$
