No_3582-complexes_sdf/6BKW-FPZ/2024-09-17-14-21-01/
     RDKit          3D

 28 30  0  0  0  0  0  0  0  0999 V2000
   -7.9040    3.9820   27.1177 C   0  0  0  0  0  0  0  0  0  0  0  0
   -7.8663    4.8694   27.9238 C   0  0  0  0  0  0  0  0  0  0  0  0
   -9.0491    3.8523   26.2542 C   0  0  0  0  0  0  0  0  0  0  0  0
   -8.7661    5.9491   27.9690 C   0  0  0  0  0  0  0  0  0  0  0  0
   -9.9295    4.8502   26.2323 C   0  0  0  0  0  0  0  0  0  0  0  0
   -9.8077    5.9288   27.0933 C   0  0  0  0  0  0  0  0  0  0  0  0
   -6.9606    2.7994   27.1981 C   0  0  0  0  0  0  0  0  0  0  0  0
   -7.3659    1.5557   26.7971 N   0  0  0  0  0  0  0  0  0  0  0  0
   -5.8069    2.9094   27.7673 N   0  0  0  0  0  0  0  0  0  0  0  0
   -6.3093    0.7532   27.1818 C   0  0  0  0  0  0  0  0  0  0  0  0
   -5.3484    1.5776   27.7809 C   0  0  0  0  0  0  0  0  0  0  0  0
   -4.1363    1.2363   28.3045 N   0  0  0  0  0  0  0  0  0  0  0  0
   -3.7137   -0.0550   28.5936 C   0  0  0  0  0  0  0  0  0  0  0  0
   -2.9413   -0.0943   29.5898 C   0  0  0  0  0  0  0  0  0  0  0  0
   -3.1934   -1.1410   30.6051 C   0  0  0  0  0  0  0  0  0  0  0  0
   -2.4754   -1.1060   31.6145 F   0  0  0  0  0  0  0  0  0  0  0  0
   -3.0386   -2.3435   30.1023 F   0  0  0  0  0  0  0  0  0  0  0  0
   -4.5376   -0.9760   31.0065 F   0  0  0  0  0  0  0  0  0  0  0  0
   -8.5250    1.0497   26.2099 C   0  0  0  0  0  0  0  0  0  0  0  0
   -8.6959   -0.2791   26.7441 C   0  0  0  0  0  0  0  0  0  0  0  0
   -9.5689   -0.4016   27.6980 C   0  0  0  0  0  0  0  0  0  0  0  0
  -10.7072   -0.8617   27.4885 C   0  0  0  0  0  0  0  0  0  0  0  0
  -11.8601   -0.4709   28.3534 C   0  0  0  0  0  0  0  0  0  0  0  0
  -12.6909    0.4369   28.0248 C   0  0  0  0  0  0  0  0  0  0  0  0
  -13.7579    0.8900   28.9612 C   0  0  0  0  0  0  0  0  0  0  0  0
  -13.9143    0.1980   30.1277 C   0  0  0  0  0  0  0  0  0  0  0  0
  -13.1313   -0.8755   30.4255 C   0  0  0  0  0  0  0  0  0  0  0  0
  -12.0695   -1.2165   29.6269 C   0  0  0  0  0  0  0  0  0  0  0  0
  1  7  1  0
  7  8  1  0
  7  9  2  0
  8 10  1  0
  9 11  1  0
 10 11  1  0
 11 12  1  0
 12 13  1  0
 13 14  1  0
 14 15  1  0
 15 16  1  0
 15 17  1  0
 15 18  1  0
  8 19  1  0
 19 20  1  0
 20 21  1  0
 21 22  2  3
 22 23  1  0
 23 24  2  0
 24 25  1  0
 25 26  2  0
 26 27  1  0
 27 28  2  0
 28 23  1  0
  1  2  2  0
  2  4  1  0
  4  6  2  0
  6  5  1  0
  5  3  2  0
  3  1  1  0
M  END
$$$$
