No_3118-complexes_sdf/6BKW-FPZ/2024-09-17-14-21-01/
     RDKit          3D

 34 37  0  0  0  0  0  0  0  0999 V2000
   -7.7129    4.2099   27.0854 C   0  0  0  0  0  0  0  0  0  0  0  0
   -8.9133    4.4736   27.0998 C   0  0  0  0  0  0  0  0  0  0  0  0
   -9.7135    3.9633   26.0300 C   0  0  0  0  0  0  0  0  0  0  0  0
   -7.1708    2.9509   26.6517 C   0  0  0  0  0  0  0  0  0  0  0  0
   -8.1422    2.1350   26.0104 C   0  0  0  0  0  0  0  0  0  0  0  0
   -9.3363    2.7131   25.6563 C   0  0  0  0  0  0  0  0  0  0  0  0
   -9.0660    6.0184   27.4103 C   0  0  0  0  0  0  0  0  0  0  0  0
   -7.7642    0.7776   25.6547 C   0  0  0  0  0  0  0  0  0  0  0  0
   -8.1068    0.2563   24.6159 O   0  0  0  0  0  0  0  0  0  0  0  0
   -7.0249    0.0498   26.6167 N   0  0  0  0  0  0  0  0  0  0  0  0
   -6.6360   -1.2935   26.4227 C   0  0  0  0  0  0  0  0  0  0  0  0
   -6.4097   -1.9558   27.3671 C   0  0  0  0  0  0  0  0  0  0  0  0
   -6.2481   -1.3645   28.7532 C   0  0  0  0  0  0  0  0  0  0  0  0
   -5.9001   -2.1397   29.9097 C   0  0  0  0  0  0  0  0  0  0  0  0
   -5.5729   -1.3966   31.0509 C   0  0  0  0  0  0  0  0  0  0  0  0
   -5.0477   -0.0890   31.0016 C   0  0  0  0  0  0  0  0  0  0  0  0
   -4.9667    0.4730   29.6779 C   0  0  0  0  0  0  0  0  0  0  0  0
   -5.4691   -0.1714   28.5831 C   0  0  0  0  0  0  0  0  0  0  0  0
   -6.3486    0.7251   27.6836 C   0  0  0  0  0  0  0  0  0  0  0  0
   -5.4421   -2.0856   32.3902 C   0  0  1  0  0  0  0  0  0  0  0  0
   -5.8198   -1.4578   33.3720 O   0  0  0  0  0  0  0  0  0  0  0  0
   -5.2544   -3.2452   32.4322 F   0  0  0  0  0  0  0  0  0  0  0  0
   -4.8304   -0.9282   34.2067 C   0  0  0  0  0  0  0  0  0  0  0  0
   -4.3542   -1.7952   35.2372 C   0  0  1  0  0  0  0  0  0  0  0  0
   -3.4543   -1.3399   35.9653 C   0  0  0  0  0  0  0  0  0  0  0  0
   -2.9406    0.0199   35.9370 C   0  0  0  0  0  0  0  0  0  0  0  0
   -2.0110    0.4087   36.9473 C   0  0  0  0  0  0  0  0  0  0  0  0
   -1.6228   -0.4150   37.9265 C   0  0  0  0  0  0  0  0  0  0  0  0
   -2.0906   -1.6519   38.0440 C   0  0  0  0  0  0  0  0  0  0  0  0
   -3.0167   -2.0785   37.1216 C   0  0  0  0  0  0  0  0  0  0  0  0
   -5.5725   -2.3214   36.0242 C   0  0  0  0  0  0  0  0  0  0  0  0
   -6.0793   -3.5725   35.7400 C   0  0  0  0  0  0  0  0  0  0  0  0
   -6.8688   -4.0029   36.4237 C   0  0  0  0  0  0  0  0  0  0  0  0
   -7.5694   -5.3030   36.1253 C   0  0  0  0  0  0  0  0  0  0  0  0
  2  7  1  0
  5  8  1  0
  8  9  2  0
  8 10  1  0
 10 11  1  0
 12 13  1  0
 10 19  1  0
 18 19  1  0
 15 20  1  0
 20 21  1  0
 20 22  1  6
 21 23  1  0
 24 23  1  6
 24 31  1  0
 31 32  2  3
 32 33  1  0
 33 34  2  0
 24 25  1  0
 11 12  1  0
 13 14  2  0
 14 15  1  0
 15 16  2  0
 16 17  1  0
 17 18  2  0
 18 13  1  0
  1  2  2  0
  2  3  1  0
  3  6  2  0
  6  5  1  0
  5  4  2  0
  4  1  1  0
 25 26  2  0
 26 27  1  0
 27 28  2  0
 28 29  1  0
 29 30  2  0
 30 25  1  0
M  END
$$$$
