No_3619-complexes_sdf/6BKW-FPZ/2024-09-17-14-21-01/
     RDKit          3D

 21 23  0  0  0  0  0  0  0  0999 V2000
   -7.7129    4.2099   27.0854 C   0  0  0  0  0  0  0  0  0  0  0  0
   -7.7814    5.1722   27.8972 C   0  0  0  0  0  0  0  0  0  0  0  0
   -8.8776    3.8408   26.3416 C   0  0  0  0  0  0  0  0  0  0  0  0
   -8.9136    2.6330   25.5655 C   0  0  0  0  0  0  0  0  0  0  0  0
   -8.8361    6.1389   27.9032 C   0  0  0  0  0  0  0  0  0  0  0  0
   -9.9718    4.7048   26.3433 C   0  0  0  0  0  0  0  0  0  0  0  0
   -9.9205    5.8499   27.1013 C   0  0  0  0  0  0  0  0  0  0  0  0
   -9.7340    1.6862   26.0433 C   0  0  0  0  0  0  0  0  0  0  0  0
  -10.6339    1.6864   26.8329 C   0  0  0  0  0  0  0  0  0  0  0  0
  -11.3497    0.4996   27.3709 C   0  0  0  0  0  0  0  0  0  0  0  0
  -10.9245   -0.6881   26.8496 C   0  0  0  0  0  0  0  0  0  0  0  0
   -9.4077    0.1975   25.6181 C   0  0  0  0  0  0  0  0  0  0  0  0
  -10.0408   -0.8480   26.0006 C   0  0  0  0  0  0  0  0  0  0  0  0
   -8.2613    0.0641   24.5490 C   0  0  0  0  0  0  0  0  0  0  0  0
   -8.6749    0.0109   23.2133 C   0  0  0  0  0  0  0  0  0  0  0  0
   -9.4464    0.9542   22.6894 C   0  0  0  0  0  0  0  0  0  0  0  0
   -8.1712   -1.0637   22.4577 C   0  0  0  0  0  0  0  0  0  0  0  0
   -9.9339    0.9051   21.3696 C   0  0  0  0  0  0  0  0  0  0  0  0
   -8.6108   -1.1496   21.0917 C   0  0  0  0  0  0  0  0  0  0  0  0
   -9.4421   -0.1675   20.6076 C   0  0  0  0  0  0  0  0  0  0  0  0
   -7.3014   -0.7643   25.0403 O   0  0  0  0  0  0  0  0  0  0  0  0
  3  4  1  0
  4  8  1  0
 12 14  1  0
 14 15  1  0
 14 21  2  0
 15 16  2  0
 16 18  1  0
 18 20  2  0
 20 19  1  0
 19 17  2  0
 17 15  1  0
  1  2  2  0
  2  5  1  0
  5  7  2  0
  7  6  1  0
  6  3  2  0
  3  1  1  0
  8  9  2  0
  9 10  1  0
 10 11  2  0
 11 13  1  0
 13 12  2  0
 12  8  1  0
M  END
$$$$
