No_3107-complexes_sdf/6BKW-FPZ/2024-09-17-14-21-01/
     RDKit          3D

 35 40  0  0  0  0  0  0  0  0999 V2000
   -7.9040    3.9820   27.1177 C   0  0  0  0  0  0  0  0  0  0  0  0
   -8.2057    2.8231   26.8733 C   0  0  0  0  0  0  0  0  0  0  0  0
   -7.0130    4.3706   28.1140 C   0  0  0  0  0  0  0  0  0  0  0  0
   -9.3829    2.4374   26.1668 C   0  0  0  0  0  0  0  0  0  0  0  0
  -10.0975    3.4171   25.5988 C   0  0  0  0  0  0  0  0  0  0  0  0
   -9.7335    4.7745   25.7705 C   0  0  0  0  0  0  0  0  0  0  0  0
   -8.7317    5.1107   26.5933 C   0  0  0  0  0  0  0  0  0  0  0  0
   -8.3983    6.4679   26.8933 C   0  0  0  0  0  0  0  0  0  0  0  0
   -7.3346    6.7850   27.7126 C   0  0  0  0  0  0  0  0  0  0  0  0
   -6.7763    5.7820   28.3880 C   0  0  0  0  0  0  0  0  0  0  0  0
   -7.4283    1.6440   27.4607 C   0  0  0  0  0  0  0  0  0  0  0  0
   -6.8748    0.7464   26.5772 C   0  0  0  0  0  0  0  0  0  0  0  0
   -6.0451   -0.2496   27.2335 C   0  0  0  0  0  0  0  0  0  0  0  0
   -4.9535   -0.2261   27.0484 C   0  0  0  0  0  0  0  0  0  0  0  0
   -3.8258   -0.4947   27.6734 C   0  0  0  0  0  0  0  0  0  0  0  0
   -2.4691   -0.2748   27.2359 C   0  0  0  0  0  0  0  0  0  0  0  0
   -2.3610    0.3622   26.0246 C   0  0  0  0  0  0  0  0  0  0  0  0
   -3.4917    0.6755   25.3582 C   0  0  0  0  0  0  0  0  0  0  0  0
   -4.6467    0.4912   25.7666 C   0  0  0  0  0  0  0  0  0  0  0  0
   -3.8746   -1.0646   29.1516 C   0  0  0  0  0  0  0  0  0  0  0  0
   -3.8247   -0.1849   30.1966 C   0  0  0  0  0  0  0  0  0  0  0  0
   -4.0162   -0.5952   31.5427 C   0  0  0  0  0  0  0  0  0  0  0  0
   -4.4981   -1.8505   31.7713 C   0  0  0  0  0  0  0  0  0  0  0  0
   -4.7324   -2.6608   30.6644 C   0  0  0  0  0  0  0  0  0  0  0  0
   -4.4693   -2.2733   29.3501 C   0  0  0  0  0  0  0  0  0  0  0  0
  -11.2840    3.0235   24.9132 C   0  0  0  0  0  0  0  0  0  0  0  0
  -11.2878    2.4222   23.9098 N   0  0  0  0  0  0  0  0  0  0  0  0
  -11.0689    2.4995   22.8945 C   0  0  0  0  0  0  0  0  0  0  0  0
  -11.2859    3.6752   22.2415 C   0  0  0  0  0  0  0  0  0  0  0  0
  -10.7569    4.0498   20.9334 C   0  0  0  0  0  0  0  0  0  0  0  0
   -9.9895    3.1025   20.2986 C   0  0  0  0  0  0  0  0  0  0  0  0
  -10.1678    1.6614   22.0066 C   0  0  0  0  0  0  0  0  0  0  0  0
   -9.6534    1.9942   20.8254 C   0  0  0  0  0  0  0  0  0  0  0  0
  -11.1266    0.9078   24.0524 C   0  0  0  0  0  0  0  0  0  0  0  0
  -10.0867    0.4919   22.8443 N   0  0  0  0  0  0  0  0  0  0  0  0
  2 11  1  0
 11 12  2  3
 12 13  1  0
 15 20  1  0
  5 26  1  0
 26 27  1  0
 27 28  1  0
 27 34  1  0
 32 35  1  0
 34 35  2  0
 13 14  1  0
 28 29  2  0
 29 30  1  0
 30 31  2  0
 31 33  1  0
 33 32  2  0
 32 28  1  0
  1  3  2  0
  3 10  1  0
 10  9  2  0
  9  8  1  0
  8  7  2  0
 14 15  1  0
 15 16  2  0
 16 17  1  0
 17 18  2  0
 18 19  1  0
 19 14  2  0
 20 21  2  0
 21 22  1  0
 22 23  2  0
 23 24  1  0
 24 25  2  0
 25 20  1  0
  1  2  1  0
  2  4  2  0
  4  5  1  0
  5  6  2  0
  6  7  1  0
  7  1  1  0
M  END
$$$$
