No_3771-complexes_sdf/6BKW-FPZ/2024-09-17-14-21-01/
     RDKit          3D

 15 16  0  0  0  0  0  0  0  0999 V2000
   -7.9040    3.9820   27.1177 C   0  0  0  0  0  0  0  0  0  0  0  0
   -8.2057    2.8231   26.8733 C   0  0  0  0  0  0  0  0  0  0  0  0
   -8.7695    5.0740   26.7916 C   0  0  0  0  0  0  0  0  0  0  0  0
   -9.9618    4.7598   26.1630 C   0  0  0  0  0  0  0  0  0  0  0  0
   -9.4200    2.4524   26.2849 C   0  0  0  0  0  0  0  0  0  0  0  0
  -10.2590    3.4815   25.9250 C   0  0  0  0  0  0  0  0  0  0  0  0
   -8.3840    6.4693   27.0829 C   0  0  0  0  0  0  0  0  0  0  0  0
   -7.7493    6.7880   28.2320 C   0  0  0  0  0  0  0  0  0  0  0  0
   -8.7281    7.4896   26.1794 C   0  0  0  0  0  0  0  0  0  0  0  0
   -7.1213    1.7752   27.3551 C   0  0  0  0  0  0  0  0  0  0  0  0
   -5.9638    2.1060   27.7437 N   0  0  0  0  0  0  0  0  0  0  0  0
   -7.2888    0.3818   26.9916 C   0  0  0  0  0  0  0  0  0  0  0  0
   -6.2478   -0.3870   27.4160 C   0  0  0  0  0  0  0  0  0  0  0  0
   -4.9621    1.3593   28.1792 C   0  0  0  0  0  0  0  0  0  0  0  0
   -5.0790    0.0472   28.0064 C   0  0  0  0  0  0  0  0  0  0  0  0
  3  7  1  0
  7  8  2  0
  7  9  1  0
  2 10  1  0
 10 11  2  0
 11 14  1  0
 14 15  2  0
 15 13  1  0
 13 12  2  0
 12 10  1  0
  1  2  2  0
  2  5  1  0
  5  6  2  0
  6  4  1  0
  4  3  2  0
  3  1  1  0
M  END
$$$$
