No_3275-complexes_sdf/6BKW-FPZ/2024-09-17-14-21-01/
     RDKit          3D

  9  9  0  0  0  0  0  0  0  0999 V2000
   -7.9040    3.9820   27.1177 C   0  0  0  0  0  0  0  0  0  0  0  0
   -8.2057    2.8231   26.8733 C   0  0  0  0  0  0  0  0  0  0  0  0
   -7.4766    1.7477   27.4593 C   0  0  0  0  0  0  0  0  0  0  0  0
   -6.7221    4.3631   27.8544 C   0  0  0  0  0  0  0  0  0  0  0  0
   -6.1698    2.0708   27.9540 C   0  0  0  0  0  0  0  0  0  0  0  0
   -5.2664    1.0481   28.4148 C   0  0  0  0  0  0  0  0  0  0  0  0
   -5.8314    3.4519   28.2237 C   0  0  0  0  0  0  0  0  0  0  0  0
   -5.6300   -0.2222   28.5006 N   0  0  0  0  0  0  0  0  0  0  0  0
   -5.1086   -1.0939   28.3026 C   0  0  0  0  0  0  0  0  0  0  0  0
  5  6  1  0
  6  8  1  0
  8  9  1  0
  1  2  2  0
  2  3  1  0
  3  5  2  0
  5  7  1  0
  7  4  2  0
  4  1  1  0
M  END
$$$$
