No_3524-complexes_sdf/6BKW-FPZ/2024-09-17-14-21-01/
     RDKit          3D

 19 21  0  0  0  0  0  0  0  0999 V2000
   -7.9040    3.9820   27.1177 C   0  0  0  0  0  0  0  0  0  0  0  0
   -7.8663    4.8694   27.9238 C   0  0  0  0  0  0  0  0  0  0  0  0
   -9.0501    3.8017   26.2617 C   0  0  0  0  0  0  0  0  0  0  0  0
   -9.1826    2.7026   25.3575 C   0  0  0  0  0  0  0  0  0  0  0  0
   -8.6940    6.0131   27.8614 C   0  0  0  0  0  0  0  0  0  0  0  0
   -9.7382    4.9916   26.1006 C   0  0  0  0  0  0  0  0  0  0  0  0
   -9.6356    6.0254   26.9506 C   0  0  0  0  0  0  0  0  0  0  0  0
   -8.7370    1.4548   25.8020 C   0  0  0  0  0  0  0  0  0  0  0  0
   -8.1962    1.3783   27.1423 C   0  0  0  0  0  0  0  0  0  0  0  0
   -7.4839    2.6092   27.5828 N   0  0  0  0  0  0  0  0  0  0  0  0
   -9.9570    2.8059   24.1718 C   0  0  0  0  0  0  0  0  0  0  0  0
   -9.9802    1.7554   23.2497 C   0  0  0  0  0  0  0  0  0  0  0  0
   -9.3931    0.4928   23.7266 C   0  0  0  0  0  0  0  0  0  0  0  0
   -8.8269    0.3552   24.9667 C   0  0  0  0  0  0  0  0  0  0  0  0
   -7.6974    0.3557   27.6487 O   0  0  0  0  0  0  0  0  0  0  0  0
  -10.6381    1.8829   22.0051 C   0  0  0  0  0  0  0  0  0  0  0  0
  -10.1397    2.7947   21.3024 F   0  0  0  0  0  0  0  0  0  0  0  0
  -10.2957    0.7527   21.2464 F   0  0  0  0  0  0  0  0  0  0  0  0
  -11.9098    1.9600   22.0800 F   0  0  0  0  0  0  0  0  0  0  0  0
  3  4  1  0
  8  9  1  0
  1 10  1  0
  9 10  1  0
  9 15  2  0
 12 16  1  0
 16 17  1  0
 16 18  1  0
 16 19  1  0
  4 11  2  0
 11 12  1  0
 12 13  2  0
 13 14  1  0
 14  8  2  0
  8  4  1  0
  1  2  2  0
  2  5  1  0
  5  7  2  0
  7  6  1  0
  6  3  2  0
  3  1  1  0
M  END
$$$$
