No_3131-complexes_sdf/6BKW-FPZ/2024-09-17-14-21-01/
     RDKit          3D

 25 27  0  0  0  0  0  0  0  0999 V2000
   -7.7129    4.2099   27.0854 C   0  0  0  0  0  0  0  0  0  0  0  0
   -7.7814    5.1722   27.8972 C   0  0  0  0  0  0  0  0  0  0  0  0
   -7.2983    2.9533   27.5684 C   0  0  0  0  0  0  0  0  0  0  0  0
   -7.6908    1.8111   26.9553 C   0  0  1  0  0  0  0  0  0  0  0  0
   -8.6533    1.9165   25.9430 C   0  0  0  0  0  0  0  0  0  0  0  0
   -9.2376    3.0581   25.6387 C   0  0  0  0  0  0  0  0  0  0  0  0
   -8.8901    4.1760   26.2867 C   0  0  0  0  0  0  0  0  0  0  0  0
   -8.3432    6.4292   27.5920 N   0  0  0  0  0  0  0  0  0  0  0  0
  -10.2443    3.1171   24.5317 C   0  0  0  0  0  0  0  0  0  0  0  0
   -9.4406    5.4496   25.9646 C   0  0  0  0  0  0  0  0  0  0  0  0
   -9.2182    6.5847   26.6234 C   0  0  0  0  0  0  0  0  0  0  0  0
   -7.0462    0.5044   27.2545 C   0  0  0  0  0  0  0  0  0  0  0  0
   -5.7864    0.4686   27.8738 C   0  0  0  0  0  0  0  0  0  0  0  0
   -5.2827   -0.6470   28.4699 C   0  0  0  0  0  0  0  0  0  0  0  0
   -3.9904   -0.5986   29.0836 C   0  0  0  0  0  0  0  0  0  0  0  0
   -3.2387    0.5807   28.9696 C   0  0  0  0  0  0  0  0  0  0  0  0
   -4.8716    1.5888   27.8898 C   0  0  0  0  0  0  0  0  0  0  0  0
   -3.6648    1.5789   28.4011 N   0  0  0  0  0  0  0  0  0  0  0  0
   -7.4914   -0.5282   26.6641 O   0  0  0  0  0  0  0  0  0  0  0  0
  -11.4747    2.8408   24.9686 C   0  0  0  0  0  0  0  0  0  0  0  0
  -11.8386    2.2545   25.8794 C   0  0  0  0  0  0  0  0  0  0  0  0
  -12.8759    2.0150   26.4698 C   0  0  0  0  0  0  0  0  0  0  0  0
  -13.1220    1.1788   27.6813 C   0  0  0  0  0  0  0  0  0  0  0  0
  -11.9357    0.6250   28.2460 C   0  0  0  0  0  0  0  0  0  0  0  0
  -10.7018    0.8392   27.7380 C   0  0  0  0  0  0  0  0  0  0  0  0
  1  3  1  0
  3  4  1  0
  4  5  1  0
  5  6  1  0
  6  7  1  0
  6  9  1  0
  4 12  1  6
 12 13  1  0
 12 19  2  0
  9 20  1  0
 20 21  2  3
 21 22  1  0
 22 23  2  3
 23 24  1  0
 24 25  2  0
 13 14  2  0
 14 15  1  0
 15 16  2  0
 16 18  1  0
 18 17  2  0
 17 13  1  0
  1  2  2  0
  2  8  1  0
  8 11  2  0
 11 10  1  0
 10  7  2  0
  7  1  1  0
M  END
$$$$
