No_3221-complexes_sdf/6BKW-FPZ/2024-09-17-14-21-01/
     RDKit          3D

 23 25  0  0  0  0  0  0  0  0999 V2000
   -7.9040    3.9820   27.1177 C   0  0  0  0  0  0  0  0  0  0  0  0
   -8.2057    2.8231   26.8733 C   0  0  0  0  0  0  0  0  0  0  0  0
   -9.2962    2.4021   26.1155 C   0  0  0  0  0  0  0  0  0  0  0  0
   -8.7358    5.0662   26.5917 C   0  0  0  0  0  0  0  0  0  0  0  0
   -9.7618    4.7023   25.7546 C   0  0  0  0  0  0  0  0  0  0  0  0
  -10.0066    3.4105   25.4922 C   0  0  0  0  0  0  0  0  0  0  0  0
   -8.3936    6.4769   26.8843 C   0  0  0  0  0  0  0  0  0  0  0  0
   -8.0307    6.8601   28.0802 N   0  0  0  0  0  0  0  0  0  0  0  0
   -8.5930    7.4099   25.9723 N   0  0  0  0  0  0  0  0  0  0  0  0
   -7.2085    1.5012   27.5856 Cl  0  0  0  0  0  0  0  0  0  0  0  0
  -11.0929    3.1030   24.5667 C   0  0  0  0  0  0  0  0  0  0  0  0
  -12.3130    2.7469   24.9850 C   0  0  0  0  0  0  0  0  0  0  0  0
  -10.7964    3.1285   23.1609 C   0  0  0  0  0  0  0  0  0  0  0  0
  -11.6999    2.8663   22.1823 C   0  0  0  0  0  0  0  0  0  0  0  0
  -13.3344    2.5058   24.0217 C   0  0  0  0  0  0  0  0  0  0  0  0
  -13.0100    2.5806   22.6486 C   0  0  0  0  0  0  0  0  0  0  0  0
  -12.7333    2.7699   26.3859 C   0  0  0  0  0  0  0  0  0  0  0  0
  -13.5736    2.1306   26.9876 C   0  0  0  0  0  0  0  0  0  0  0  0
  -13.8583    2.2030   28.3912 C   0  0  0  0  0  0  0  0  0  0  0  0
  -13.1228    3.0887   29.1976 C   0  0  0  0  0  0  0  0  0  0  0  0
  -12.0864    3.8769   28.5682 C   0  0  0  0  0  0  0  0  0  0  0  0
  -11.9074    3.7639   27.3300 C   0  0  0  0  0  0  0  0  0  0  0  0
  -13.3086    3.1569   30.5276 F   0  0  0  0  0  0  0  0  0  0  0  0
  4  7  1  0
  7  8  2  0
  7  9  1  0
  2 10  1  0
  6 11  1  0
 12 17  1  0
 20 23  1  0
 11 12  2  0
 12 15  1  0
 15 16  2  0
 16 14  1  0
 14 13  2  0
 13 11  1  0
  1  2  2  0
  2  3  1  0
  3  6  2  0
  6  5  1  0
  5  4  2  0
  4  1  1  0
 17 18  2  0
 18 19  1  0
 19 20  2  0
 20 21  1  0
 21 22  2  0
 22 17  1  0
M  END
$$$$
