No_3119-complexes_sdf/6BKW-FPZ/2024-09-17-14-21-01/
     RDKit          3D

 22 24  0  0  0  0  0  0  0  0999 V2000
   -7.2496    3.8871   27.4508 C   0  0  0  0  0  0  0  0  0  0  0  0
   -7.9379    4.9063   27.8518 C   0  0  0  0  0  0  0  0  0  0  0  0
   -7.5112    6.1898   27.6280 C   0  0  0  0  0  0  0  0  0  0  0  0
   -7.8078    2.6331   27.2522 C   0  0  0  0  0  0  0  0  0  0  0  0
   -9.1846    2.4724   27.5426 C   0  0  0  0  0  0  0  0  0  0  0  0
   -9.9168    3.5155   28.0405 C   0  0  0  0  0  0  0  0  0  0  0  0
   -9.3366    4.7963   28.1727 C   0  0  0  0  0  0  0  0  0  0  0  0
  -11.3249    3.2653   28.4083 C   0  0  0  0  0  0  0  0  0  0  0  0
  -12.1323    3.1883   27.7079 N   0  0  0  0  0  0  0  0  0  0  0  0
  -13.5037    3.0379   28.0104 C   0  0  0  0  0  0  0  0  0  0  0  0
  -13.8320    2.7999   29.2228 C   0  0  0  0  0  0  0  0  0  0  0  0
  -12.8453    2.8958   30.2380 C   0  0  0  0  0  0  0  0  0  0  0  0
  -11.5786    3.1614   29.8332 N   0  0  0  0  0  0  0  0  0  0  0  0
   -7.0569    1.4404   26.8420 C   0  0  0  0  0  0  0  0  0  0  0  0
   -7.5681    0.6079   25.9866 N   0  0  0  0  0  0  0  0  0  0  0  0
   -8.4991    0.8130   25.1612 C   0  0  0  0  0  0  0  0  0  0  0  0
   -8.6486    0.0976   23.9881 C   0  0  0  0  0  0  0  0  0  0  0  0
   -6.7181   -0.4818   25.4867 C   0  0  0  0  0  0  0  0  0  0  0  0
   -6.8909   -1.1769   24.3582 C   0  0  0  0  0  0  0  0  0  0  0  0
   -7.9036   -0.8521   23.5650 C   0  0  0  0  0  0  0  0  0  0  0  0
   -5.9747    1.2308   27.5186 O   0  0  0  0  0  0  0  0  0  0  0  0
  -14.3895    2.9015   27.0305 F   0  0  0  0  0  0  0  0  0  0  0  0
  6  8  1  0
  4 14  1  0
 14 15  1  0
 15 16  1  0
 15 18  1  0
 17 20  1  0
 19 20  1  0
 14 21  2  0
 10 22  1  0
  3  2  1  0
 16 17  1  0
 19 18  1  0
  1  2  2  0
  2  7  1  0
  7  6  2  0
  6  5  1  0
  5  4  2  0
  4  1  1  0
  8  9  2  0
  9 10  1  0
 10 11  2  0
 11 12  1  0
 12 13  2  0
 13  8  1  0
M  END
$$$$
