No_3906-complexes_sdf/6BKW-FPZ/2024-09-17-14-21-01/
     RDKit          3D

 26 28  0  0  0  0  0  0  0  0999 V2000
   -7.9040    3.9820   27.1177 C   0  0  0  0  0  0  0  0  0  0  0  0
   -8.2057    2.8231   26.8733 C   0  0  0  0  0  0  0  0  0  0  0  0
   -8.7695    5.0740   26.7916 C   0  0  0  0  0  0  0  0  0  0  0  0
   -9.9618    4.7598   26.1630 C   0  0  0  0  0  0  0  0  0  0  0  0
   -9.4200    2.4524   26.2849 C   0  0  0  0  0  0  0  0  0  0  0  0
  -10.2590    3.4815   25.9250 C   0  0  0  0  0  0  0  0  0  0  0  0
   -8.3282    6.6990   27.1423 Cl  0  0  0  0  0  0  0  0  0  0  0  0
   -7.2545    1.6858   27.2735 C   0  0  0  0  0  0  0  0  0  0  0  0
   -6.6670    0.9700   26.7466 C   0  0  0  0  0  0  0  0  0  0  0  0
   -5.7543   -0.0126   27.4053 C   0  0  0  0  0  0  0  0  0  0  0  0
   -5.8078   -1.2857   27.3643 C   0  0  0  0  0  0  0  0  0  0  0  0
   -5.5575   -1.8923   26.1370 C   0  0  0  0  0  0  0  0  0  0  0  0
   -5.9848   -1.0145   25.0315 C   0  0  0  0  0  0  0  0  0  0  0  0
   -6.5671    0.2918   25.3501 C   0  0  0  0  0  0  0  0  0  0  0  0
  -11.5294    3.1899   25.2090 C   0  0  2  0  0  0  0  0  0  0  0  0
  -12.6557    3.0533   25.8366 C   0  0  0  0  0  0  0  0  0  0  0  0
  -12.7267    2.8479   27.1371 C   0  0  0  0  0  0  0  0  0  0  0  0
  -12.9454    3.3146   28.0589 C   0  0  0  0  0  0  0  0  0  0  0  0
  -12.8574    3.0078   29.4709 C   0  0  0  0  0  0  0  0  0  0  0  0
  -12.4051    1.6913   29.6709 C   0  0  0  0  0  0  0  0  0  0  0  0
  -12.0290    0.9251   28.5981 C   0  0  0  0  0  0  0  0  0  0  0  0
  -12.0643    1.4458   27.2883 C   0  0  0  0  0  0  0  0  0  0  0  0
  -11.4063    2.9447   23.7909 C   0  0  0  0  0  0  0  0  0  0  0  0
  -10.5522    2.2425   23.1847 C   0  0  0  0  0  0  0  0  0  0  0  0
  -10.3274    2.1038   21.8231 C   0  0  0  0  0  0  0  0  0  0  0  0
  -10.9898    2.9400   20.9569 C   0  0  0  0  0  0  0  0  0  0  0  0
  3  7  1  0
  2  8  1  0
  6 15  1  0
 15 16  1  1
 16 17  1  0
 15 23  1  0
 23 24  2  3
 24 25  1  0
 25 26  2  0
  8  9  1  0
  9 10  2  0
 10 11  1  0
 11 12  2  0
 12 13  1  0
 13 14  2  0
 14  9  1  0
 17 18  2  0
 18 19  1  0
 19 20  2  0
 20 21  1  0
 21 22  2  0
 22 17  1  0
  1  2  2  0
  2  5  1  0
  5  6  2  0
  6  4  1  0
  4  3  2  0
  3  1  1  0
M  END
$$$$
