No_3181-complexes_sdf/6BKW-FPZ/2024-09-17-14-21-01/
     RDKit          3D

 23 27  0  0  0  0  0  0  0  0999 V2000
   -7.2496    3.8871   27.4508 C   0  0  0  0  0  0  0  0  0  0  0  0
   -8.5096    4.0291   27.2770 C   0  0  0  0  0  0  0  0  0  0  0  0
   -9.2677    5.1714   27.5773 C   0  0  0  0  0  0  0  0  0  0  0  0
   -9.2765    2.8248   26.8371 C   0  0  0  0  0  0  0  0  0  0  0  0
  -10.4623    3.0171   26.3236 C   0  0  1  0  0  0  0  0  0  0  0  0
  -11.3015    3.9610   26.8543 C   0  0  0  0  0  0  0  0  0  0  0  0
  -10.7070    5.2935   27.2178 C   0  0  0  0  0  0  0  0  0  0  0  0
   -6.5676    2.6282   27.5032 C   0  0  0  0  0  0  0  0  0  0  0  0
   -7.2566    1.4659   27.1103 C   0  0  0  0  0  0  0  0  0  0  0  0
   -8.6054    1.6238   26.7050 C   0  0  0  0  0  0  0  0  0  0  0  0
   -9.2879    0.4355   26.2829 C   0  0  0  0  0  0  0  0  0  0  0  0
   -8.8597   -0.6253   26.3708 C   0  0  0  0  0  0  0  0  0  0  0  0
   -7.4438   -0.8190   26.8193 C   0  0  0  0  0  0  0  0  0  0  0  0
   -6.6231    0.2390   27.2225 C   0  0  0  0  0  0  0  0  0  0  0  0
  -10.2500    3.5856   24.8024 C   0  0  0  0  0  0  0  0  0  0  0  0
  -11.3368    3.7032   24.0160 C   0  0  0  0  0  0  0  0  0  0  0  0
  -11.0924    4.2961   22.7657 C   0  0  0  0  0  0  0  0  0  0  0  0
  -12.6290    3.3179   24.2567 C   0  0  0  0  0  0  0  0  0  0  0  0
  -13.6216    3.5413   23.4027 C   0  0  0  0  0  0  0  0  0  0  0  0
  -12.0453    4.6291   21.8230 C   0  0  0  0  0  0  0  0  0  0  0  0
  -13.3317    4.2256   22.1559 C   0  0  0  0  0  0  0  0  0  0  0  0
  -11.2561    1.7199   26.1587 C   0  0  0  0  0  0  0  0  0  0  0  0
  -10.5094    0.5032   25.9767 C   0  0  0  0  0  0  0  0  0  0  0  0
  2  3  1  0
  4  5  1  0
  5  6  1  0
  3  7  1  0
  6  7  1  0
  5 15  1  6
 15 16  1  0
  5 22  1  0
 11 23  1  0
 22 23  1  0
  1  2  2  0
  2  4  1  0
  4 10  2  0
  9  8  2  0
  8  1  1  0
 16 17  2  0
 17 20  1  0
 20 21  2  0
 21 19  1  0
 19 18  2  0
 18 16  1  0
  9 10  1  0
 10 11  1  0
 11 12  2  0
 12 13  1  0
 13 14  2  0
 14  9  1  0
M  END
$$$$
