No_3304-complexes_sdf/6BKW-FPZ/2024-09-17-14-21-01/
     RDKit          3D

 12 13  0  0  0  0  0  0  0  0999 V2000
   -7.9040    3.9820   27.1177 C   0  0  0  0  0  0  0  0  0  0  0  0
   -9.0711    4.3164   27.0630 C   0  0  0  0  0  0  0  0  0  0  0  0
   -9.5182    5.5541   27.5777 C   0  0  0  0  0  0  0  0  0  0  0  0
   -6.9424    4.7983   27.8424 C   0  0  0  0  0  0  0  0  0  0  0  0
   -7.3526    5.9739   28.3909 C   0  0  0  0  0  0  0  0  0  0  0  0
   -8.6479    6.3742   28.2169 C   0  0  0  0  0  0  0  0  0  0  0  0
  -10.0621    3.4422   26.3345 C   0  0  0  0  0  0  0  0  0  0  0  0
   -9.6335    2.6185   25.4370 C   0  0  0  0  0  0  0  0  0  0  0  0
   -8.2527    2.5176   25.2264 C   0  0  0  0  0  0  0  0  0  0  0  0
   -7.4085    2.9852   26.2641 N   0  0  0  0  0  0  0  0  0  0  0  0
  -10.4510    1.8334   24.5479 C   0  0  0  0  0  0  0  0  0  0  0  0
  -11.3522    1.7377   24.0770 N   0  0  0  0  0  0  0  0  0  0  0  0
  8 11  1  0
 11 12  3  0
  2  7  1  0
  7  8  2  0
  8  9  1  0
  9 10  2  0
 10  1  1  0
  1  2  1  0
  2  3  2  0
  3  6  1  0
  6  5  2  0
  5  4  1  0
  4  1  2  0
M  END
$$$$
