No_3060-complexes_sdf/6BKW-FPZ/2024-09-17-14-21-01/
     RDKit          3D

 24 27  0  0  0  0  0  0  0  0999 V2000
   -7.2496    3.8871   27.4508 C   0  0  0  0  0  0  0  0  0  0  0  0
   -7.9379    4.9063   27.8518 C   0  0  0  0  0  0  0  0  0  0  0  0
   -9.3376    4.8647   27.7795 C   0  0  0  0  0  0  0  0  0  0  0  0
   -7.8544    2.6294   27.0414 C   0  0  0  0  0  0  0  0  0  0  0  0
   -9.2852    2.6570   27.0666 C   0  0  0  0  0  0  0  0  0  0  0  0
  -10.0126    3.7528   27.4890 C   0  0  0  0  0  0  0  0  0  0  0  0
   -9.9609    1.3640   26.7239 C   0  0  0  0  0  0  0  0  0  0  0  0
  -10.7817    1.2617   26.0939 C   0  0  0  0  0  0  0  0  0  0  0  0
  -11.3271    2.4823   25.3896 C   0  0  0  0  0  0  0  0  0  0  0  0
  -11.1578    2.6609   24.3599 C   0  0  0  0  0  0  0  0  0  0  0  0
  -11.5554    3.9566   23.6119 C   0  0  0  0  0  0  0  0  0  0  0  0
  -12.2238    4.8361   24.3874 C   0  0  0  0  0  0  0  0  0  0  0  0
  -12.5963    4.5892   25.6510 C   0  0  0  0  0  0  0  0  0  0  0  0
  -12.0861    3.4452   26.2477 C   0  0  2  0  0  0  0  0  0  0  0  0
  -10.8789    4.1851   27.2636 C   0  0  1  0  0  0  0  0  0  0  0  0
  -13.0700    2.7744   27.1011 C   0  0  1  0  0  0  0  0  0  0  0  0
  -13.9340    3.5537   27.6992 C   0  0  0  0  0  0  0  0  0  0  0  0
  -11.7733    5.2564   27.8294 N   0  0  0  0  0  0  0  0  0  0  0  0
  -13.0528    4.6317   28.6753 C   0  0  0  0  0  0  0  0  0  0  0  0
   -7.3451    6.0203   28.3083 F   0  0  0  0  0  0  0  0  0  0  0  0
  -13.8344    1.6910   26.3846 C   0  0  0  0  0  0  0  0  0  0  0  0
  -14.0231    0.5144   27.1233 C   0  0  0  0  0  0  0  0  0  0  0  0
  -14.5519   -0.5864   26.4973 C   0  0  0  0  0  0  0  0  0  0  0  0
  -14.6757   -1.7608   27.1336 C   0  0  0  0  0  0  0  0  0  0  0  0
  5  7  1  0
  7  8  2  0
  8  9  1  0
 10 11  1  0
 12 13  1  0
  9 14  1  0
 14 13  1  6
  6 15  1  0
 14 15  1  0
 14 16  1  0
 15 18  1  1
 17 19  1  0
 18 19  1  0
  2 20  1  0
 16 21  1  6
 21 22  1  0
 22 23  2  3
 23 24  1  0
 17 16  1  0
  9 10  1  0
 11 12  1  0
  1  2  2  0
  2  3  1  0
  3  6  2  0
  6  5  1  0
  5  4  2  0
  4  1  1  0
M  END
$$$$
