No_3219-complexes_sdf/6BKW-FPZ/2024-09-17-14-21-01/
     RDKit          3D

 38 42  0  0  0  0  0  0  0  0999 V2000
   -7.2496    3.8871   27.4508 C   0  0  0  0  0  0  0  0  0  0  0  0
   -8.5096    4.0291   27.2770 C   0  0  0  0  0  0  0  0  0  0  0  0
   -9.3502    2.8685   26.8763 C   0  0  0  0  0  0  0  0  0  0  0  0
   -6.6288    2.5513   27.4938 C   0  0  0  0  0  0  0  0  0  0  0  0
   -7.4365    1.4714   27.2032 C   0  0  0  0  0  0  0  0  0  0  0  0
   -8.7772    1.6579   26.9338 C   0  0  0  0  0  0  0  0  0  0  0  0
   -9.1119    5.3743   27.2229 C   0  0  0  0  0  0  0  0  0  0  0  0
   -8.3195    6.4988   26.9602 C   0  0  0  0  0  0  0  0  0  0  0  0
   -8.8072    7.8267   27.0499 C   0  0  0  0  0  0  0  0  0  0  0  0
   -6.8200    0.1598   27.2509 C   0  0  0  0  0  0  0  0  0  0  0  0
   -5.6113   -0.0330   27.8292 C   0  0  0  0  0  0  0  0  0  0  0  0
   -5.0591   -1.3060   27.9451 C   0  0  0  0  0  0  0  0  0  0  0  0
   -5.7447   -2.3409   27.3508 C   0  0  0  0  0  0  0  0  0  0  0  0
   -7.3644   -1.0042   26.8190 C   0  0  0  0  0  0  0  0  0  0  0  0
   -6.8938   -2.1972   26.8215 C   0  0  0  0  0  0  0  0  0  0  0  0
  -10.2305    5.3088   26.2858 C   0  0  0  0  0  0  0  0  0  0  0  0
  -10.5973    3.0933   26.4261 C   0  0  0  0  0  0  0  0  0  0  0  0
  -11.0601    4.3251   26.0760 C   0  0  0  0  0  0  0  0  0  0  0  0
   -3.6851   -1.4458   28.6126 C   0  0  0  0  0  0  0  0  0  0  0  0
   -2.6616   -1.0645   27.9095 C   0  0  0  0  0  0  0  0  0  0  0  0
   -2.7527   -0.3128   26.6862 C   0  0  0  0  0  0  0  0  0  0  0  0
   -3.1323    0.8049   26.3474 N   0  0  0  0  0  0  0  0  0  0  0  0
   -2.8892   -1.2380   25.6511 O   0  0  0  0  0  0  0  0  0  0  0  0
   -3.7311   -1.9030   30.0225 C   0  0  0  0  0  0  0  0  0  0  0  0
   -3.8963   -1.0122   30.9351 N   0  0  0  0  0  0  0  0  0  0  0  0
   -3.4856    0.1129   31.0608 C   0  0  0  0  0  0  0  0  0  0  0  0
   -4.7428   -1.4893   32.1186 C   0  0  0  0  0  0  0  0  0  0  0  0
   -4.7574   -0.7978   33.2400 C   0  0  0  0  0  0  0  0  0  0  0  0
   -5.6302   -1.2785   34.2896 C   0  0  0  0  0  0  0  0  0  0  0  0
   -6.4064   -2.3795   34.1114 C   0  0  0  0  0  0  0  0  0  0  0  0
   -6.3710   -3.0244   32.8788 C   0  0  0  0  0  0  0  0  0  0  0  0
   -5.5571   -2.6107   31.8614 C   0  0  0  0  0  0  0  0  0  0  0  0
   -7.2332   -4.2197   32.6467 C   0  0  0  0  0  0  0  0  0  0  0  0
   -7.4415   -4.6341   31.5276 N   0  0  0  0  0  0  0  0  0  0  0  0
   -8.1597   -5.4723   31.0347 C   0  0  0  0  0  0  0  0  0  0  0  0
   -8.9643   -6.0242   31.5811 C   0  0  0  0  0  0  0  0  0  0  0  0
   -8.4211   -4.2864   33.3634 C   0  0  0  0  0  0  0  0  0  0  0  0
   -9.1882   -5.5539   33.1010 C   0  0  0  0  0  0  0  0  0  0  0  0
  8  9  1  0
  5 10  1  0
 12 19  1  0
 19 20  2  3
 20 21  1  0
 21 22  1  0
 21 23  2  0
 19 24  1  0
 24 25  1  0
 25 26  1  0
 25 27  1  0
 31 33  1  0
  8  7  1  0
  1  2  2  0
  3  6  2  0
  6  5  1  0
  5  4  2  0
  4  1  1  0
 33 34  2  0
 34 35  1  0
 35 36  2  0
 36 38  1  0
 38 37  2  0
 37 33  1  0
 10 11  2  0
 11 12  1  0
 12 13  2  0
 13 15  1  0
 15 14  2  0
 14 10  1  0
  2  3  1  0
  3 17  1  0
 17 18  2  0
 18 16  1  0
 16  7  2  0
  7  2  1  0
 27 28  2  0
 28 29  1  0
 29 30  2  0
 30 31  1  0
 31 32  2  0
 32 27  1  0
M  END
$$$$
