No_3724-complexes_sdf/6BKW-FPZ/2024-09-17-14-21-01/
     RDKit          3D

 18 20  0  0  0  0  0  0  0  0999 V2000
   -7.9040    3.9820   27.1177 C   0  0  0  0  0  0  0  0  0  0  0  0
   -7.8663    4.8694   27.9238 C   0  0  0  0  0  0  0  0  0  0  0  0
   -9.0501    3.8017   26.2617 C   0  0  0  0  0  0  0  0  0  0  0  0
  -10.0189    4.7608   26.3707 C   0  0  0  0  0  0  0  0  0  0  0  0
   -8.6770    5.9780   27.9222 C   0  0  0  0  0  0  0  0  0  0  0  0
  -11.1008    4.5790   25.4893 C   0  0  0  0  0  0  0  0  0  0  0  0
   -9.8392    5.8718   27.1106 C   0  0  0  0  0  0  0  0  0  0  0  0
  -11.4715    3.3233   25.3228 C   0  0  0  0  0  0  0  0  0  0  0  0
  -10.5105    2.3209   25.0209 C   0  0  0  0  0  0  0  0  0  0  0  0
   -9.3260    2.5474   25.6545 C   0  0  0  0  0  0  0  0  0  0  0  0
  -10.7745    1.0692   24.4208 C   0  0  0  0  0  0  0  0  0  0  0  0
   -9.9225    0.5956   23.6212 C   0  0  0  0  0  0  0  0  0  0  0  0
  -10.0962   -0.7046   22.8807 C   0  0  0  0  0  0  0  0  0  0  0  0
  -11.2414   -1.2155   22.9338 C   0  0  0  0  0  0  0  0  0  0  0  0
  -12.2309   -0.6774   23.7434 C   0  0  0  0  0  0  0  0  0  0  0  0
  -12.0201    0.4643   24.4668 C   0  0  0  0  0  0  0  0  0  0  0  0
  -13.7439   -1.4884   23.8253 Cl  0  0  0  0  0  0  0  0  0  0  0  0
   -6.7410    2.6489   27.2271 Cl  0  0  0  0  0  0  0  0  0  0  0  0
  9 11  1  0
 15 17  1  0
  1 18  1  0
 11 12  2  0
 12 13  1  0
 13 14  2  0
 14 15  1  0
 15 16  2  0
 16 11  1  0
  4  6  2  0
  6  8  1  0
  8  9  2  0
  9 10  1  0
 10  3  2  0
  1  2  2  0
  2  5  1  0
  5  7  2  0
  7  4  1  0
  4  3  1  0
  3  1  1  0
M  END
$$$$
