No_3886-complexes_sdf/6BKW-FPZ/2024-09-17-14-21-01/
     RDKit          3D

 15 16  0  0  0  0  0  0  0  0999 V2000
   -7.9040    3.9820   27.1177 C   0  0  0  0  0  0  0  0  0  0  0  0
   -7.8663    4.8694   27.9238 C   0  0  0  0  0  0  0  0  0  0  0  0
   -7.4547    2.7080   27.4594 C   0  0  0  0  0  0  0  0  0  0  0  0
   -6.9358    5.8140   27.8323 C   0  0  0  0  0  0  0  0  0  0  0  0
   -7.6941    1.5260   26.7057 C   0  0  0  0  0  0  0  0  0  0  0  0
   -8.6122    1.7023   25.6694 C   0  0  0  0  0  0  0  0  0  0  0  0
   -9.2881    2.8650   25.4255 C   0  0  0  0  0  0  0  0  0  0  0  0
   -8.9896    3.9971   26.1896 C   0  0  0  0  0  0  0  0  0  0  0  0
  -10.2395    3.1892   24.3019 C   0  0  0  0  0  0  0  0  0  0  0  0
  -10.2036    2.5703   23.1936 C   0  0  0  0  0  0  0  0  0  0  0  0
  -10.9611    2.9405   22.0506 C   0  0  0  0  0  0  0  0  0  0  0  0
  -11.7944    4.1115   22.1828 C   0  0  0  0  0  0  0  0  0  0  0  0
  -11.8139    4.7711   23.3836 C   0  0  0  0  0  0  0  0  0  0  0  0
  -11.0218    4.4060   24.4402 C   0  0  0  0  0  0  0  0  0  0  0  0
   -8.9404    5.1089   28.9652 C   0  0  0  0  0  0  0  0  0  0  0  0
  1  2  1  0
  2  4  1  0
  7  9  1  0
  2 15  1  0
  1  3  2  0
  3  5  1  0
  5  6  2  0
  6  7  1  0
  7  8  2  0
  8  1  1  0
  9 10  2  0
 10 11  1  0
 11 12  2  0
 12 13  1  0
 13 14  2  0
 14  9  1  0
M  END
$$$$
