No_3405-complexes_sdf/6BKW-FPZ/2024-09-17-14-21-01/
     RDKit          3D

 29 32  0  0  0  0  0  0  0  0999 V2000
   -7.7129    4.2099   27.0854 C   0  0  0  0  0  0  0  0  0  0  0  0
   -8.2112    3.0637   26.9225 C   0  0  0  0  0  0  0  0  0  0  0  0
   -7.0021    4.5281   28.2396 C   0  0  0  0  0  0  0  0  0  0  0  0
   -7.5497    1.9016   27.4549 C   0  0  0  0  0  0  0  0  0  0  0  0
   -8.0700    0.6173   27.2932 C   0  0  0  0  0  0  0  0  0  0  0  0
   -9.3589    0.5577   26.6828 C   0  0  0  0  0  0  0  0  0  0  0  0
  -10.0040    1.6252   26.1809 C   0  0  0  0  0  0  0  0  0  0  0  0
   -9.4269    2.8857   26.2743 C   0  0  0  0  0  0  0  0  0  0  0  0
   -8.4271    5.3530   26.4842 C   0  0  0  0  0  0  0  0  0  0  0  0
   -8.6601    6.5307   27.2272 C   0  0  0  0  0  0  0  0  0  0  0  0
   -6.9882    5.9179   28.7916 C   0  0  0  0  0  0  0  0  0  0  0  0
   -9.3188    7.6394   26.5062 C   0  0  0  0  0  0  0  0  0  0  0  0
   -7.7707    6.7991   28.3269 C   0  0  0  0  0  0  0  0  0  0  0  0
  -11.2980    1.4221   25.4779 C   0  0  0  0  0  0  0  0  0  0  0  0
  -11.5352    0.6067   24.8015 C   0  0  0  0  0  0  0  0  0  0  0  0
  -12.8057    0.4327   24.0631 C   0  0  0  0  0  0  0  0  0  0  0  0
  -13.6982    1.4616   24.1823 C   0  0  0  0  0  0  0  0  0  0  0  0
  -13.4071    2.5618   24.9581 C   0  0  0  0  0  0  0  0  0  0  0  0
  -12.0102    2.6953   25.7023 C   0  0  0  0  0  0  0  0  0  0  0  0
  -14.3709    3.7036   25.1227 C   0  0  1  0  0  0  0  0  0  0  0  0
  -14.4037    4.6503   26.6577 Br  0  0  0  0  0  0  0  0  0  0  0  0
  -15.1819    4.1785   24.1050 C   0  0  0  0  0  0  0  0  0  0  0  0
   -7.4172   -0.5435   27.8307 C   0  0  0  0  0  0  0  0  0  0  0  0
   -6.7115   -1.1849   27.1014 C   0  0  0  0  0  0  0  0  0  0  0  0
   -6.3666   -1.3125   26.0726 C   0  0  0  0  0  0  0  0  0  0  0  0
   -5.3785   -2.1712   25.3704 C   0  0  0  0  0  0  0  0  0  0  0  0
   -4.6446   -2.9580   26.1857 C   0  0  0  0  0  0  0  0  0  0  0  0
   -4.8789   -2.9337   27.5232 C   0  0  0  0  0  0  0  0  0  0  0  0
   -5.7483   -2.1127   28.1243 C   0  0  0  0  0  0  0  0  0  0  0  0
  1  2  1  0
 10 12  1  0
  7 14  1  0
 18 20  1  0
 20 21  1  0
 20 22  1  6
  5 23  1  0
 23 24  1  0
 14 15  2  0
 15 16  1  0
 16 17  2  0
 17 18  1  0
 18 19  2  0
 19 14  1  0
 24 25  2  0
 25 26  1  0
 26 27  2  0
 27 28  1  0
 28 29  2  0
 29 24  1  0
  1  3  2  0
  3 11  1  0
 11 13  2  0
 13 10  1  0
 10  9  2  0
  9  1  1  0
  2  4  2  0
  4  5  1  0
  5  6  2  0
  6  7  1  0
  7  8  2  0
  8  2  1  0
M  END
$$$$
