No_3893-complexes_sdf/6BKW-FPZ/2024-09-17-14-21-01/
     RDKit          3D

 30 33  0  0  0  0  0  0  0  0999 V2000
   -7.9040    3.9820   27.1177 C   0  0  0  0  0  0  0  0  0  0  0  0
   -8.2057    2.8231   26.8733 C   0  0  0  0  0  0  0  0  0  0  0  0
   -8.7695    5.0740   26.7916 C   0  0  0  0  0  0  0  0  0  0  0  0
   -8.4337    6.4678   27.0913 C   0  0  0  0  0  0  0  0  0  0  0  0
   -9.3742    2.4311   26.2346 C   0  0  0  0  0  0  0  0  0  0  0  0
  -10.2395    3.4267   25.8887 C   0  0  0  0  0  0  0  0  0  0  0  0
   -9.9567    4.7548   26.1374 C   0  0  0  0  0  0  0  0  0  0  0  0
   -7.9839    7.5474   27.0128 N   0  0  0  0  0  0  0  0  0  0  0  0
   -7.0829    1.8130   27.3632 C   0  0  0  0  0  0  0  0  0  0  0  0
   -7.3996    0.4568   27.4955 C   0  0  0  0  0  0  0  0  0  0  0  0
   -6.4071   -0.3875   27.9680 C   0  0  0  0  0  0  0  0  0  0  0  0
   -5.1157    0.1510   28.3045 C   0  0  0  0  0  0  0  0  0  0  0  0
   -4.9095    1.5240   28.1106 C   0  0  0  0  0  0  0  0  0  0  0  0
   -5.8169    2.2920   27.6931 C   0  0  0  0  0  0  0  0  0  0  0  0
   -4.0937   -0.7646   28.8780 C   0  0  0  0  0  0  0  0  0  0  0  0
   -3.1431   -0.2750   29.3144 O   0  0  0  0  0  0  0  0  0  0  0  0
   -4.3055   -2.0248   28.8586 O   0  0  0  0  0  0  0  0  0  0  0  0
  -11.4599    3.0909   25.1210 C   0  0  0  0  0  0  0  0  0  0  0  0
  -11.6419    3.6128   23.9396 C   0  0  0  0  0  0  0  0  0  0  0  0
  -10.6405    3.8848   23.0849 C   0  0  0  0  0  0  0  0  0  0  0  0
  -10.7692    4.1111   21.9675 C   0  0  0  0  0  0  0  0  0  0  0  0
  -12.0271    4.2667   21.3265 C   0  0  0  0  0  0  0  0  0  0  0  0
  -12.9176    3.6415   23.3288 C   0  0  0  0  0  0  0  0  0  0  0  0
  -13.1023    4.0115   22.0491 C   0  0  0  0  0  0  0  0  0  0  0  0
  -12.3831    2.2638   25.8202 C   0  0  0  0  0  0  0  0  0  0  0  0
  -12.0582    1.2807   26.6737 C   0  0  0  0  0  0  0  0  0  0  0  0
  -13.0226    0.5511   27.3683 C   0  0  0  0  0  0  0  0  0  0  0  0
  -14.3217    0.8399   27.0873 C   0  0  0  0  0  0  0  0  0  0  0  0
  -14.6924    1.8043   26.2135 C   0  0  0  0  0  0  0  0  0  0  0  0
  -13.7657    2.5417   25.6207 C   0  0  0  0  0  0  0  0  0  0  0  0
  3  4  1  0
  4  8  3  0
  2  9  1  0
 12 15  1  0
 15 16  2  0
 15 17  1  0
  6 18  1  0
 18 19  1  0
 18 25  1  0
  9 10  2  0
 10 11  1  0
 11 12  2  0
 12 13  1  0
 13 14  2  0
 14  9  1  0
 25 26  2  0
 26 27  1  0
 27 28  2  0
 28 29  1  0
 29 30  2  0
 30 25  1  0
  1  2  2  0
  2  5  1  0
  5  6  2  0
  6  7  1  0
  7  3  2  0
  3  1  1  0
 19 20  2  0
 20 21  1  0
 21 22  2  0
 22 24  1  0
 24 23  2  0
 23 19  1  0
M  END
$$$$
