No_3624-complexes_sdf/6BKW-FPZ/2024-09-17-14-21-01/
     RDKit          3D

 20 22  0  0  0  0  0  0  0  0999 V2000
   -7.9040    3.9820   27.1177 C   0  0  0  0  0  0  0  0  0  0  0  0
   -9.0711    4.3164   27.0630 C   0  0  0  0  0  0  0  0  0  0  0  0
   -9.5294    5.4517   27.7215 C   0  0  0  0  0  0  0  0  0  0  0  0
   -9.9845    3.5634   26.2189 C   0  0  0  0  0  0  0  0  0  0  0  0
  -10.5758    2.5046   26.7628 C   0  0  0  0  0  0  0  0  0  0  0  0
  -10.4293    2.0903   27.9866 C   0  0  0  0  0  0  0  0  0  0  0  0
   -6.9363    4.6699   28.0290 C   0  0  0  0  0  0  0  0  0  0  0  0
   -7.4216    5.8088   28.6678 C   0  0  0  0  0  0  0  0  0  0  0  0
   -8.6786    6.2626   28.4411 C   0  0  0  0  0  0  0  0  0  0  0  0
  -11.4651    1.6445   25.9004 C   0  0  0  0  0  0  0  0  0  0  0  0
  -11.0924    0.9407   28.5780 C   0  0  0  0  0  0  0  0  0  0  0  0
  -12.1108    0.5421   26.4277 C   0  0  0  0  0  0  0  0  0  0  0  0
  -11.9148    0.2096   27.7815 C   0  0  0  0  0  0  0  0  0  0  0  0
  -10.1397    3.9749   24.8630 C   0  0  0  0  0  0  0  0  0  0  0  0
  -10.6980    4.6506   24.3169 C   0  0  0  0  0  0  0  0  0  0  0  0
  -10.7924    4.9300   22.8589 C   0  0  0  0  0  0  0  0  0  0  0  0
  -10.4894    3.8266   22.0519 C   0  0  0  0  0  0  0  0  0  0  0  0
   -9.8761    2.7088   22.6814 C   0  0  0  0  0  0  0  0  0  0  0  0
   -9.7574    2.6326   24.1145 C   0  0  0  0  0  0  0  0  0  0  0  0
   -5.6989    4.2283   28.2008 O   0  0  0  0  0  0  0  0  0  0  0  0
  2  4  1  0
  4  5  1  0
  4 14  1  0
  7 20  1  0
 14 15  2  0
 15 16  1  0
 16 17  2  0
 17 18  1  0
 18 19  2  0
 19 14  1  0
  1  2  2  0
  2  3  1  0
  3  9  2  0
  9  8  1  0
  8  7  2  0
  7  1  1  0
  5  6  2  0
  6 11  1  0
 11 13  2  0
 13 12  1  0
 12 10  2  0
 10  5  1  0
M  END
$$$$
