No_3784-complexes_sdf/6BKW-FPZ/2024-09-17-14-21-01/
     RDKit          3D

 13 13  0  0  0  0  0  0  0  0999 V2000
   -7.9040    3.9820   27.1177 C   0  0  0  0  0  0  0  0  0  0  0  0
   -9.0711    4.3164   27.0630 C   0  0  0  0  0  0  0  0  0  0  0  0
   -9.5294    5.4517   27.7215 C   0  0  0  0  0  0  0  0  0  0  0  0
   -9.5325    4.2881   25.5671 C   0  0  0  0  0  0  0  0  0  0  0  0
   -7.5612    2.5918   26.9741 N   0  0  0  0  0  0  0  0  0  0  0  0
   -7.5489    1.7543   27.8201 C   0  0  0  0  0  0  0  0  0  0  0  0
   -7.3604    0.4816   27.3331 C   0  0  0  0  0  0  0  0  0  0  0  0
   -6.2466   -0.1940   27.6783 C   0  0  0  0  0  0  0  0  0  0  0  0
   -5.2545    0.5611   28.2408 C   0  0  0  0  0  0  0  0  0  0  0  0
   -4.1017   -0.0978   28.8694 C   0  0  0  0  0  0  0  0  0  0  0  0
   -3.7401   -1.1726   28.6307 C   0  0  0  0  0  0  0  0  0  0  0  0
   -4.2073   -1.8705   28.0330 C   0  0  0  0  0  0  0  0  0  0  0  0
   -5.7181   -1.5004   27.4382 C   0  0  0  0  0  0  0  0  0  0  0  0
  1  2  1  0
  2  3  1  0
  2  4  1  0
  1  5  1  0
  5  6  1  0
  6  7  1  0
  7  8  1  0
  8  9  2  0
  9 10  1  0
 10 11  2  0
 11 12  1  0
 12 13  2  0
 13  8  1  0
M  END
$$$$
