No_3579-complexes_sdf/6BKW-FPZ/2024-09-17-14-21-01/
     RDKit          3D

 17 19  0  0  0  0  0  0  0  0999 V2000
   -7.7129    4.2099   27.0854 C   0  0  0  0  0  0  0  0  0  0  0  0
   -7.7814    5.1722   27.8972 C   0  0  0  0  0  0  0  0  0  0  0  0
   -7.2983    2.9533   27.5684 C   0  0  0  0  0  0  0  0  0  0  0  0
   -7.6908    1.8111   26.9553 C   0  0  1  0  0  0  0  0  0  0  0  0
   -8.6533    1.9165   25.9430 C   0  0  0  0  0  0  0  0  0  0  0  0
   -9.2376    3.0581   25.6387 C   0  0  0  0  0  0  0  0  0  0  0  0
   -8.8901    4.1760   26.2867 C   0  0  0  0  0  0  0  0  0  0  0  0
   -8.3432    6.4292   27.5920 N   0  0  0  0  0  0  0  0  0  0  0  0
   -9.2414    5.5083   26.1481 N   0  0  0  0  0  0  0  0  0  0  0  0
   -9.0625    6.5979   26.7234 C   0  0  0  0  0  0  0  0  0  0  0  0
   -7.0509    0.5354   27.2196 C   0  0  0  0  0  0  0  0  0  0  0  0
   -5.7949    0.4590   27.8566 C   0  0  0  0  0  0  0  0  0  0  0  0
   -5.1337   -0.6781   28.0915 C   0  0  0  0  0  0  0  0  0  0  0  0
   -3.8478   -0.6726   28.7497 C   0  0  0  0  0  0  0  0  0  0  0  0
   -3.2851    0.5602   29.0124 C   0  0  0  0  0  0  0  0  0  0  0  0
   -5.0173    1.6413   28.2208 C   0  0  0  0  0  0  0  0  0  0  0  0
   -3.8432    1.6124   28.8021 N   0  0  0  0  0  0  0  0  0  0  0  0
  1  3  1  0
  3  4  1  0
  4  5  1  0
  5  6  1  0
  6  7  1  0
  4 11  1  6
 11 12  1  0
  1  2  2  0
  2  8  1  0
  8 10  2  0
 10  9  1  0
  9  7  2  0
  7  1  1  0
 12 13  2  0
 13 14  1  0
 14 15  2  0
 15 17  1  0
 17 16  2  0
 16 12  1  0
M  END
$$$$
