No_4335-complexes_sdf/6BKW-FPZ/2024-09-17-14-21-01/
     RDKit          3D

 20 22  0  0  0  0  0  0  0  0999 V2000
   -7.9040    3.9820   27.1177 C   0  0  0  0  0  0  0  0  0  0  0  0
   -9.0711    4.3164   27.0630 C   0  0  0  0  0  0  0  0  0  0  0  0
   -9.9692    3.7224   26.1073 C   0  0  0  0  0  0  0  0  0  0  0  0
   -6.9787    4.6761   28.1003 C   0  0  0  0  0  0  0  0  0  0  0  0
   -9.4538    2.6801   25.3673 C   0  0  0  0  0  0  0  0  0  0  0  0
   -8.1927    2.1957   25.6621 C   0  0  0  0  0  0  0  0  0  0  0  0
   -7.4333    2.8255   26.6299 C   0  0  0  0  0  0  0  0  0  0  0  0
  -10.3181    2.0008   24.3846 C   0  0  0  0  0  0  0  0  0  0  0  0
   -9.7183    1.2105   23.5031 C   0  0  0  0  0  0  0  0  0  0  0  0
  -10.4449    0.6689   22.4496 C   0  0  0  0  0  0  0  0  0  0  0  0
   -9.8257   -0.2450   21.5070 C   0  0  0  0  0  0  0  0  0  0  0  0
   -8.5030   -0.6332   21.7375 C   0  0  0  0  0  0  0  0  0  0  0  0
   -7.7696   -0.1226   22.7768 C   0  0  0  0  0  0  0  0  0  0  0  0
   -8.3711    0.8039   23.6638 C   0  0  0  0  0  0  0  0  0  0  0  0
   -7.6515    1.2710   24.7907 N   0  0  0  0  0  0  0  0  0  0  0  0
   -7.4234    5.7540   28.6670 O   0  0  0  0  0  0  0  0  0  0  0  0
   -5.7721    4.2542   28.2588 O   0  0  0  0  0  0  0  0  0  0  0  0
  -11.6353    2.5081   24.1701 C   0  0  0  0  0  0  0  0  0  0  0  0
  -12.6640    1.8857   24.7829 C   0  0  0  0  0  0  0  0  0  0  0  0
  -13.9937    2.3425   24.6118 C   0  0  0  0  0  0  0  0  0  0  0  0
  1  4  1  0
  4 16  1  0
  4 17  2  0
  8 18  1  0
 18 19  2  3
 19 20  1  0
  9 10  1  0
 10 11  2  0
 11 12  1  0
 12 13  2  0
 13 14  1  0
  6 15  1  0
 15 14  2  0
 14  9  1  0
  9  8  2  0
  8  5  1  0
  1  2  2  0
  2  3  1  0
  3  5  2  0
  5  6  1  0
  6  7  2  0
  7  1  1  0
M  END
$$$$
