No_4089-complexes_sdf/6BKW-FPZ/2024-09-17-14-21-01/
     RDKit          3D

 40 44  0  0  0  0  0  0  0  0999 V2000
   -7.2496    3.8871   27.4508 C   0  0  0  0  0  0  0  0  0  0  0  0
   -7.9379    4.9063   27.8518 C   0  0  0  0  0  0  0  0  0  0  0  0
   -8.7729    5.5444   27.0168 C   0  0  0  0  0  0  0  0  0  0  0  0
   -7.7708    3.0049   26.4155 C   0  0  0  0  0  0  0  0  0  0  0  0
   -9.3905    6.7713   27.4103 C   0  0  0  0  0  0  0  0  0  0  0  0
   -8.9247    3.4642   25.7574 C   0  0  0  0  0  0  0  0  0  0  0  0
   -9.4236    4.7765   26.0257 C   0  0  0  0  0  0  0  0  0  0  0  0
   -9.5192    2.7023   24.7151 C   0  0  0  0  0  0  0  0  0  0  0  0
  -10.3764    3.3106   23.7486 C   0  0  0  0  0  0  0  0  0  0  0  0
  -11.0034    2.5585   22.8007 C   0  0  0  0  0  0  0  0  0  0  0  0
  -10.6282    1.1824   22.6531 C   0  0  0  0  0  0  0  0  0  0  0  0
   -9.7114    0.6035   23.5312 C   0  0  0  0  0  0  0  0  0  0  0  0
   -9.1931    1.2200   24.4708 C   0  0  0  0  0  0  0  0  0  0  0  0
   -6.2244    3.3098   28.1141 F   0  0  0  0  0  0  0  0  0  0  0  0
  -11.9197    3.1757   21.8406 C   0  0  0  0  0  0  0  0  0  0  0  0
  -12.1328    2.9364   20.7803 C   0  0  0  0  0  0  0  0  0  0  0  0
  -11.3409    1.8555   20.1095 C   0  0  0  0  0  0  0  0  0  0  0  0
  -10.7507    0.8500   21.0700 C   0  0  0  0  0  0  0  0  0  0  0  0
  -10.1642   -0.3870   20.6571 C   0  0  0  0  0  0  0  0  0  0  0  0
  -10.8636   -1.0747   19.6816 C   0  0  0  0  0  0  0  0  0  0  0  0
  -10.3057   -2.2654   19.1753 C   0  0  0  0  0  0  0  0  0  0  0  0
   -9.1320   -2.7618   19.7679 C   0  0  0  0  0  0  0  0  0  0  0  0
   -8.4988   -2.1064   20.7982 C   0  0  0  0  0  0  0  0  0  0  0  0
   -8.9539   -0.9260   21.2464 C   0  0  0  0  0  0  0  0  0  0  0  0
  -10.9507   -2.9431   18.0844 C   0  0  0  0  0  0  0  0  0  0  0  0
  -10.5284   -3.5942   17.3296 O   0  0  0  0  0  0  0  0  0  0  0  0
  -12.2970   -2.9111   18.1084 O   0  0  0  0  0  0  0  0  0  0  0  0
   -7.2542   -2.6714   21.3531 C   0  0  0  0  0  0  0  0  0  0  0  0
   -6.3882   -3.0712   20.6341 O   0  0  0  0  0  0  0  0  0  0  0  0
   -7.0878   -2.5990   22.6526 O   0  0  0  0  0  0  0  0  0  0  0  0
   -6.6585   -3.4924   23.3871 C   0  0  0  0  0  0  0  0  0  0  0  0
   -6.2002   -3.2213   24.5506 C   0  0  0  0  0  0  0  0  0  0  0  0
   -6.5333   -2.0731   25.2326 C   0  0  0  0  0  0  0  0  0  0  0  0
   -5.7567   -1.6661   26.3579 C   0  0  0  0  0  0  0  0  0  0  0  0
   -6.0804   -0.4297   27.1209 C   0  0  0  0  0  0  0  0  0  0  0  0
   -7.5003   -0.1706   27.0597 C   0  0  0  0  0  0  0  0  0  0  0  0
   -8.3393   -0.8109   26.2101 C   0  0  0  0  0  0  0  0  0  0  0  0
   -7.8016   -1.8294   25.3127 C   0  0  0  0  0  0  0  0  0  0  0  0
   -5.2169    0.0935   28.1217 C   0  0  0  0  0  0  0  0  0  0  0  0
   -4.1190    0.9236   27.6706 C   0  0  0  0  0  0  0  0  0  0  0  0
  3  5  1  0
  6  8  1  0
  1 14  1  0
 18 19  1  0
 21 25  1  0
 25 26  2  0
 25 27  1  0
 23 28  1  0
 28 29  2  0
 28 30  1  0
 30 31  1  0
 31 32  1  0
 32 33  1  0
 35 39  1  0
 39 40  1  0
 33 34  2  0
 34 35  1  0
 35 36  2  0
 36 37  1  0
 37 38  2  0
 38 33  1  0
 19 20  2  0
 20 21  1  0
 21 22  2  0
 22 23  1  0
 23 24  2  0
 24 19  1  0
  1  2  2  0
  2  3  1  0
  3  7  2  0
  7  6  1  0
  6  4  2  0
  4  1  1  0
 11 18  2  0
 18 17  1  0
 17 16  2  0
 16 15  1  0
 15 10  2  0
  8  9  2  0
  9 10  1  0
 10 11  1  0
 11 12  1  0
 12 13  2  0
 13  8  1  0
M  END
$$$$
