No_4058-complexes_sdf/6BKW-FPZ/2024-09-17-14-21-01/
     RDKit          3D

 12 12  0  0  0  0  0  0  0  0999 V2000
   -7.7129    4.2099   27.0854 C   0  0  0  0  0  0  0  0  0  0  0  0
   -7.7814    5.1722   27.8972 C   0  0  0  0  0  0  0  0  0  0  0  0
   -8.8776    3.8408   26.3416 C   0  0  0  0  0  0  0  0  0  0  0  0
   -9.9844    4.6492   26.4743 C   0  0  0  0  0  0  0  0  0  0  0  0
   -8.8033    6.1375   27.8728 C   0  0  0  0  0  0  0  0  0  0  0  0
   -9.9554    5.8280   27.1736 C   0  0  0  0  0  0  0  0  0  0  0  0
   -8.8752    2.6155   25.5663 C   0  0  2  0  0  0  0  0  0  0  0  0
   -7.9095    1.8430   25.8657 F   0  0  0  0  0  0  0  0  0  0  0  0
   -9.7450    2.3719   24.5355 C   0  0  0  0  0  0  0  0  0  0  0  0
   -9.5370    1.3504   23.7333 N   0  0  0  0  0  0  0  0  0  0  0  0
  -10.2464    1.2100   22.5653 C   0  0  0  0  0  0  0  0  0  0  0  0
  -11.2109    2.1036   22.3194 C   0  0  0  0  0  0  0  0  0  0  0  0
  3  7  1  0
  7  8  1  6
  7  9  1  0
  9 10  2  3
 10 11  1  0
 11 12  2  0
  1  2  2  0
  2  5  1  0
  5  6  2  0
  6  4  1  0
  4  3  2  0
  3  1  1  0
M  END
$$$$
