No_4231-complexes_sdf/6BKW-FPZ/2024-09-17-14-21-01/
     RDKit          3D

 40 44  0  0  0  0  0  0  0  0999 V2000
   -7.9040    3.9820   27.1177 C   0  0  0  0  0  0  0  0  0  0  0  0
   -8.2057    2.8231   26.8733 C   0  0  0  0  0  0  0  0  0  0  0  0
   -7.4766    1.7477   27.4593 C   0  0  0  0  0  0  0  0  0  0  0  0
   -8.7468    5.1251   26.6967 C   0  0  0  0  0  0  0  0  0  0  0  0
   -9.7234    4.8589   25.8202 C   0  0  0  0  0  0  0  0  0  0  0  0
   -9.9711    3.5858   25.4266 C   0  0  0  0  0  0  0  0  0  0  0  0
   -9.2266    2.4957   25.9600 C   0  0  0  0  0  0  0  0  0  0  0  0
   -6.1127    1.9031   27.8472 C   0  0  0  0  0  0  0  0  0  0  0  0
   -5.3493    0.8225   28.3589 C   0  0  0  0  0  0  0  0  0  0  0  0
   -5.8541   -0.4405   28.4024 C   0  0  0  0  0  0  0  0  0  0  0  0
   -7.8845    0.3835   27.4449 C   0  0  0  0  0  0  0  0  0  0  0  0
   -7.1681   -0.6267   27.9790 C   0  0  0  0  0  0  0  0  0  0  0  0
   -8.4097    6.5092   27.1062 C   0  0  0  0  0  0  0  0  0  0  0  0
   -7.9351    7.5852   27.0465 N   0  0  0  0  0  0  0  0  0  0  0  0
   -3.9492    0.9291   28.8528 C   0  0  0  0  0  0  0  0  0  0  0  0
   -3.4163    0.1600   29.7117 N   0  0  0  0  0  0  0  0  0  0  0  0
   -2.8611    0.4077   30.7314 C   0  0  0  0  0  0  0  0  0  0  0  0
   -3.5537    0.5078   31.9151 C   0  0  0  0  0  0  0  0  0  0  0  0
   -2.6142   -0.8507   28.8185 C   0  0  0  0  0  0  0  0  0  0  0  0
  -11.0013    3.3082   24.4199 C   0  0  0  0  0  0  0  0  0  0  0  0
  -12.2755    3.1195   24.7820 C   0  0  0  0  0  0  0  0  0  0  0  0
  -10.6143    3.2070   23.0454 C   0  0  0  0  0  0  0  0  0  0  0  0
  -11.4598    3.0545   22.0015 C   0  0  0  0  0  0  0  0  0  0  0  0
  -13.2489    2.9521   23.7326 C   0  0  0  0  0  0  0  0  0  0  0  0
  -12.8359    2.9437   22.3820 C   0  0  0  0  0  0  0  0  0  0  0  0
   -4.6443   -0.4769   32.0610 C   0  0  2  0  0  0  0  0  0  0  0  0
   -5.0912   -0.7531   33.3994 C   0  0  0  0  0  0  0  0  0  0  0  0
   -6.0864   -1.7916   33.5242 C   0  0  0  0  0  0  0  0  0  0  0  0
   -5.6965   -2.9253   33.1584 C   0  0  2  0  0  0  0  0  0  0  0  0
   -5.2300   -2.9918   31.7197 C   0  0  0  0  0  0  0  0  0  0  0  0
   -4.1270   -1.9355   31.5674 C   0  0  0  0  0  0  0  0  0  0  0  0
   -6.7864   -4.0798   33.2799 C   0  0  0  0  0  0  0  0  0  0  0  0
   -7.7469   -4.1870   32.4055 C   0  0  0  0  0  0  0  0  0  0  0  0
   -8.8041   -5.0304   32.6216 C   0  0  0  0  0  0  0  0  0  0  0  0
   -3.0288   -1.3330   27.7857 C   0  0  0  0  0  0  0  0  0  0  0  0
   -3.1611   -1.0008   26.7370 C   0  0  0  0  0  0  0  0  0  0  0  0
   -3.7068   -1.6141   25.4838 C   0  0  0  0  0  0  0  0  0  0  0  0
   -4.5828   -2.3985   25.7594 C   0  0  0  0  0  0  0  0  0  0  0  0
   -4.6525   -3.1383   26.9657 C   0  0  0  0  0  0  0  0  0  0  0  0
   -3.9373   -2.5935   28.0614 C   0  0  0  0  0  0  0  0  0  0  0  0
  2  3  1  0
  4 13  1  0
 13 14  3  0
  9 15  1  0
 15 16  1  0
 16 17  1  0
 17 18  1  0
 16 19  1  0
  6 20  1  0
 26 18  1  1
 26 27  1  0
 27 28  1  0
 29 28  1  6
 29 30  1  0
 26 31  1  0
 30 31  1  0
 29 32  1  0
 32 33  2  3
 33 34  1  0
 19 35  1  0
 35 36  2  0
 36 37  1  0
 37 38  2  0
 38 39  1  0
 39 40  2  0
 40 35  1  0
  1  2  2  0
  2  7  1  0
  7  6  2  0
  6  5  1  0
  5  4  2  0
  4  1  1  0
  3  8  2  0
  8  9  1  0
  9 10  2  0
 10 12  1  0
 12 11  2  0
 11  3  1  0
 20 21  2  0
 21 24  1  0
 24 25  2  0
 25 23  1  0
 23 22  2  0
 22 20  1  0
M  END
$$$$
