No_403-complexes_sdf/6BKW-FPZ/2024-09-17-14-21-01/
     RDKit          3D

 21 23  0  0  0  0  0  0  0  0999 V2000
   -7.9040    3.9820   27.1177 C   0  0  0  0  0  0  0  0  0  0  0  0
   -9.0711    4.3164   27.0630 C   0  0  0  0  0  0  0  0  0  0  0  0
   -9.5294    5.4517   27.7215 C   0  0  0  0  0  0  0  0  0  0  0  0
   -6.9328    4.7309   27.8881 C   0  0  0  0  0  0  0  0  0  0  0  0
   -7.3666    5.8455   28.5488 C   0  0  0  0  0  0  0  0  0  0  0  0
   -8.6669    6.2428   28.4199 C   0  0  0  0  0  0  0  0  0  0  0  0
  -10.0479    3.5083   26.2510 C   0  0  0  0  0  0  0  0  0  0  0  0
   -9.7487    3.3855   24.9113 C   0  0  0  0  0  0  0  0  0  0  0  0
  -10.5142    2.6813   23.9902 C   0  0  0  0  0  0  0  0  0  0  0  0
  -10.0863    2.5888   22.6429 C   0  0  0  0  0  0  0  0  0  0  0  0
  -10.4424    1.6483   21.8332 C   0  0  0  0  0  0  0  0  0  0  0  0
  -11.4987    0.7799   22.1932 C   0  0  0  0  0  0  0  0  0  0  0  0
  -11.9848    0.8855   23.4596 C   0  0  0  0  0  0  0  0  0  0  0  0
  -11.4397    1.7350   24.4005 C   0  0  0  0  0  0  0  0  0  0  0  0
  -10.7109    2.3982   26.9351 C   0  0  0  0  0  0  0  0  0  0  0  0
  -11.7212    1.6495   26.0331 C   0  0  0  0  0  0  0  0  0  0  0  0
  -11.8671    0.1759   26.4194 C   0  0  0  0  0  0  0  0  0  0  0  0
  -12.7518    0.0858   27.3394 C   0  0  0  0  0  0  0  0  0  0  0  0
  -13.4100    1.0571   27.9706 C   0  0  0  0  0  0  0  0  0  0  0  0
  -13.3355    2.3530   27.4892 C   0  0  0  0  0  0  0  0  0  0  0  0
  -14.0728    3.4724   28.0882 C   0  0  0  0  0  0  0  0  0  0  0  0
  2  7  1  0
 16 17  1  0
 17 18  1  0
 18 19  2  3
 19 20  1  0
 20 21  2  0
  1  2  2  0
  2  3  1  0
  3  6  2  0
  6  5  1  0
  5  4  2  0
  4  1  1  0
  9 10  2  0
 10 11  1  0
 11 12  2  0
 12 13  1  0
 13 14  2  0
  7  8  2  0
  8  9  1  0
  9 14  1  0
 14 16  1  0
 16 15  2  0
 15  7  1  0
M  END
$$$$
