No_444-complexes_sdf/6BKW-FPZ/2024-09-17-14-21-01/
     RDKit          3D

 23 25  0  0  0  0  0  0  0  0999 V2000
   -7.2496    3.8871   27.4508 C   0  0  0  0  0  0  0  0  0  0  0  0
   -8.5096    4.0291   27.2770 C   0  0  0  0  0  0  0  0  0  0  0  0
   -9.2677    5.1714   27.5773 C   0  0  0  0  0  0  0  0  0  0  0  0
   -9.2765    2.8248   26.8371 C   0  0  0  0  0  0  0  0  0  0  0  0
  -10.4623    3.0171   26.3236 C   0  0  0  0  0  0  0  0  0  0  0  0
  -11.3015    3.9610   26.8543 C   0  0  0  0  0  0  0  0  0  0  0  0
  -12.7677    4.0804   26.5145 C   0  0  0  0  0  0  0  0  0  0  0  0
  -10.7669    5.1475   27.5187 C   0  0  0  0  0  0  0  0  0  0  0  0
   -6.5376    2.7591   27.4147 O   0  0  0  0  0  0  0  0  0  0  0  0
   -6.6198    4.8706   28.2399 O   0  0  0  0  0  0  0  0  0  0  0  0
  -13.4052    3.0697   26.9360 C   0  0  0  0  0  0  0  0  0  0  0  0
  -13.0291    2.1102   27.6003 C   0  0  0  0  0  0  0  0  0  0  0  0
  -12.0551    2.0148   28.2847 C   0  0  0  0  0  0  0  0  0  0  0  0
  -11.5874    0.9115   29.0443 C   0  0  0  0  0  0  0  0  0  0  0  0
  -13.9890    0.8957   27.8032 C   0  0  0  0  0  0  0  0  0  0  0  0
  -13.5584   -0.2803   28.4179 C   0  0  0  0  0  0  0  0  0  0  0  0
  -12.3432   -0.1981   29.1754 C   0  0  0  0  0  0  0  0  0  0  0  0
  -14.9051    3.1864   26.4607 C   0  0  0  0  0  0  0  0  0  0  0  0
  -15.3583    3.0928   25.4092 C   0  0  0  0  0  0  0  0  0  0  0  0
  -16.6816    3.1255   25.0949 C   0  0  0  0  0  0  0  0  0  0  0  0
  -15.8093    3.5347   27.5782 C   0  0  0  0  0  0  0  0  0  0  0  0
  -17.1388    3.6666   27.3869 C   0  0  0  0  0  0  0  0  0  0  0  0
  -17.5801    3.4749   26.1038 C   0  0  0  0  0  0  0  0  0  0  0  0
  1  2  1  0
  6  7  1  0
  1  9  1  0
  1 10  2  0
  7 11  1  0
 11 12  1  0
 11 18  1  0
 12 13  2  0
 13 14  1  0
 14 17  2  0
 17 16  1  0
 16 15  2  0
 15 12  1  0
  2  3  2  0
  3  8  1  0
  8  6  2  0
  6  5  1  0
  5  4  2  0
  4  2  1  0
 18 19  2  0
 19 20  1  0
 20 23  2  0
 23 22  1  0
 22 21  2  0
 21 18  1  0
M  END
$$$$
