No_4299-complexes_sdf/6BKW-FPZ/2024-09-17-14-21-01/
     RDKit          3D

 12 13  0  0  0  0  0  0  0  0999 V2000
   -7.9040    3.9820   27.1177 C   0  0  0  0  0  0  0  0  0  0  0  0
   -9.0711    4.3164   27.0630 C   0  0  0  0  0  0  0  0  0  0  0  0
   -9.8698    3.9665   25.9495 C   0  0  0  0  0  0  0  0  0  0  0  0
   -7.4046    2.7946   26.4568 C   0  0  0  0  0  0  0  0  0  0  0  0
   -6.2644    2.1448   27.0953 C   0  0  0  0  0  0  0  0  0  0  0  0
   -9.4353    2.8427   25.2412 C   0  0  0  0  0  0  0  0  0  0  0  0
   -8.2811    2.2071   25.6400 C   0  0  0  0  0  0  0  0  0  0  0  0
   -5.5110    2.6742   28.0604 N   0  0  0  0  0  0  0  0  0  0  0  0
   -6.1237    0.8012   26.9552 N   0  0  0  0  0  0  0  0  0  0  0  0
   -5.0681    0.3244   27.7342 C   0  0  0  0  0  0  0  0  0  0  0  0
   -4.3992    0.4934   28.4625 C   0  0  0  0  0  0  0  0  0  0  0  0
   -4.5472    2.0302   28.7241 C   0  0  0  0  0  0  0  0  0  0  0  0
  4  5  1  0
  1  2  2  0
  2  3  1  0
  3  6  2  0
  6  7  1  0
  7  4  2  0
  4  1  1  0
  5  8  2  0
  8 12  1  0
 12 11  2  0
 11 10  1  0
 10  9  2  0
  9  5  1  0
M  END
$$$$
