No_4840-complexes_sdf/6BKW-FPZ/2024-09-17-14-21-01/
     RDKit          3D

 32 36  0  0  0  0  0  0  0  0999 V2000
   -7.2496    3.8871   27.4508 C   0  0  0  0  0  0  0  0  0  0  0  0
   -7.9379    4.9063   27.8518 C   0  0  0  0  0  0  0  0  0  0  0  0
   -7.4895    6.2027   27.7481 C   0  0  0  0  0  0  0  0  0  0  0  0
   -7.8057    2.6324   27.3137 C   0  0  0  0  0  0  0  0  0  0  0  0
   -9.1872    2.4678   27.5434 C   0  0  0  0  0  0  0  0  0  0  0  0
   -9.7707    1.1571   27.4183 C   0  0  0  0  0  0  0  0  0  0  0  0
   -9.9270    3.5128   28.1114 C   0  0  0  0  0  0  0  0  0  0  0  0
   -9.3809    4.8089   28.1575 C   0  0  0  0  0  0  0  0  0  0  0  0
   -9.0531    0.0915   27.1325 C   0  0  0  0  0  0  0  0  0  0  0  0
   -9.6777   -1.1803   27.0173 C   0  0  0  0  0  0  0  0  0  0  0  0
  -11.0494   -1.2724   27.3509 C   0  0  0  0  0  0  0  0  0  0  0  0
  -11.1392    0.8545   27.8302 C   0  0  0  0  0  0  0  0  0  0  0  0
  -11.7266   -0.2480   27.7923 C   0  0  0  0  0  0  0  0  0  0  0  0
   -7.5910    7.2860   27.0323 N   0  0  0  0  0  0  0  0  0  0  0  0
  -13.1675   -0.4090   28.1564 C   0  0  0  0  0  0  0  0  0  0  0  0
  -13.9657    0.5378   28.3511 C   0  0  0  0  0  0  0  0  0  0  0  0
  -13.3902    1.8433   28.2144 C   0  0  0  0  0  0  0  0  0  0  0  0
  -12.0610    2.1077   28.0899 C   0  0  0  0  0  0  0  0  0  0  0  0
  -11.4438    3.4106   28.2191 C   0  0  0  0  0  0  0  0  0  0  0  0
  -12.0930    4.4312   28.5146 O   0  0  0  0  0  0  0  0  0  0  0  0
   -8.6650    7.3274   26.1936 C   0  0  0  0  0  0  0  0  0  0  0  0
   -8.8498   -2.3503   26.6860 C   0  0  0  0  0  0  0  0  0  0  0  0
   -7.9419   -2.2860   26.1480 N   0  0  0  0  0  0  0  0  0  0  0  0
   -9.5079   -3.5084   26.7759 O   0  0  0  0  0  0  0  0  0  0  0  0
   -7.0210   -2.9226   25.7136 C   0  0  0  0  0  0  0  0  0  0  0  0
   -6.0809   -2.4128   24.7938 C   0  0  0  0  0  0  0  0  0  0  0  0
   -5.9732   -1.0474   24.5371 C   0  0  0  0  0  0  0  0  0  0  0  0
   -7.0006   -0.2378   25.0788 C   0  0  1  0  0  0  0  0  0  0  0  0
   -7.8484   -0.7126   25.8243 C   0  0  1  0  0  0  0  0  0  0  0  0
   -8.1312   -0.0438   24.9239 Cl  0  0  0  0  0  0  0  0  0  0  0  0
   -6.2067    0.8461   25.6062 O   0  0  0  0  0  0  0  0  0  0  0  0
   -8.0429   -0.0368   28.5218 C   0  0  0  0  0  0  0  0  0  0  0  0
  2  3  1  0
  5  6  1  0
  3 14  1  0
  7 19  1  0
 18 19  1  0
 19 20  2  0
 14 21  1  0
 10 22  1  0
 22 23  1  0
 22 24  2  0
 23 25  1  0
 26 27  1  0
 23 29  1  0
 28 29  1  0
 29 30  1  6
 28 31  1  1
  9 32  1  0
 25 26  1  0
 27 28  1  0
 13 15  2  0
 15 16  1  0
 16 17  2  0
 17 18  1  0
 18 12  2  0
  6  9  2  0
  9 10  1  0
 10 11  2  0
 11 13  1  0
 13 12  1  0
 12  6  1  0
  1  2  2  0
  2  8  1  0
  8  7  2  0
  7  5  1  0
  5  4  2  0
  4  1  1  0
M  END
$$$$
