No_4613-complexes_sdf/6BKW-FPZ/2024-09-17-14-21-01/
     RDKit          3D

 19 20  0  0  0  0  0  0  0  0999 V2000
   -7.9040    3.9820   27.1177 C   0  0  0  0  0  0  0  0  0  0  0  0
   -8.2057    2.8231   26.8733 C   0  0  0  0  0  0  0  0  0  0  0  0
   -7.0130    4.3706   28.1140 C   0  0  0  0  0  0  0  0  0  0  0  0
   -7.4093    1.7370   27.3857 C   0  0  0  0  0  0  0  0  0  0  0  0
   -7.7256    0.3814   27.1250 C   0  0  0  0  0  0  0  0  0  0  0  0
   -6.8108    5.7768   28.4112 C   0  0  0  0  0  0  0  0  0  0  0  0
   -8.6926    5.1124   26.6024 C   0  0  0  0  0  0  0  0  0  0  0  0
   -8.5621    6.4318   26.8982 C   0  0  0  0  0  0  0  0  0  0  0  0
   -7.5755    6.7306   27.8511 C   0  0  0  0  0  0  0  0  0  0  0  0
   -9.3372    2.3036   26.2983 C   0  0  0  0  0  0  0  0  0  0  0  0
   -9.6905    1.0296   26.0072 C   0  0  0  0  0  0  0  0  0  0  0  0
   -8.8353    0.0771   26.4764 C   0  0  0  0  0  0  0  0  0  0  0  0
  -10.8922    0.7011   25.2423 C   0  0  0  0  0  0  0  0  0  0  0  0
  -12.0299    1.1106   25.6010 C   0  0  0  0  0  0  0  0  0  0  0  0
  -12.3224    1.6945   26.6034 C   0  0  0  0  0  0  0  0  0  0  0  0
  -13.2007    2.1514   27.3384 C   0  0  0  0  0  0  0  0  0  0  0  0
  -13.1999    2.8208   28.6647 C   0  0  0  0  0  0  0  0  0  0  0  0
  -11.9039    3.0115   29.1775 C   0  0  0  0  0  0  0  0  0  0  0  0
  -10.7910    2.6132   28.5590 C   0  0  0  0  0  0  0  0  0  0  0  0
  1  2  1  0
 11 13  1  0
 13 14  1  0
 14 15  2  3
 15 16  1  0
 16 17  2  3
 17 18  1  0
 18 19  2  0
  1  3  2  0
  3  6  1  0
  6  9  2  0
  9  8  1  0
  8  7  2  0
  7  1  1  0
  2  4  2  0
  4  5  1  0
  5 12  2  0
 12 11  1  0
 11 10  2  0
 10  2  1  0
M  END
$$$$
