No_4181-complexes_sdf/6BKW-FPZ/2024-09-17-14-21-01/
     RDKit          3D

 23 25  0  0  0  0  0  0  0  0999 V2000
   -7.9040    3.9820   27.1177 C   0  0  0  0  0  0  0  0  0  0  0  0
   -7.8663    4.8694   27.9238 C   0  0  0  0  0  0  0  0  0  0  0  0
   -7.4547    2.7080   27.4594 C   0  0  0  0  0  0  0  0  0  0  0  0
   -7.9337    1.5946   26.8372 C   0  0  0  0  0  0  0  0  0  0  0  0
   -8.9032    1.7881   25.8510 C   0  0  0  0  0  0  0  0  0  0  0  0
   -9.3787    2.9871   25.5530 C   0  0  0  0  0  0  0  0  0  0  0  0
   -8.9781    4.0300   26.2200 C   0  0  0  0  0  0  0  0  0  0  0  0
   -7.0280    5.0006   28.9409 N   0  0  0  0  0  0  0  0  0  0  0  0
   -8.5558    6.2399   27.6294 C   0  0  0  0  0  0  0  0  0  0  0  0
  -10.3468    3.1143   24.4158 C   0  0  0  0  0  0  0  0  0  0  0  0
  -10.2292    2.4392   23.2499 C   0  0  0  0  0  0  0  0  0  0  0  0
  -11.0373    2.6389   22.1158 C   0  0  0  0  0  0  0  0  0  0  0  0
  -11.9805    3.6771   22.1665 C   0  0  0  0  0  0  0  0  0  0  0  0
  -12.1000    4.4108   23.3106 C   0  0  0  0  0  0  0  0  0  0  0  0
  -11.2706    4.2648   24.4055 C   0  0  0  0  0  0  0  0  0  0  0  0
   -7.3488    0.2644   27.1098 C   0  0  0  0  0  0  0  0  0  0  0  0
   -6.0764    0.1101   27.6158 C   0  0  0  0  0  0  0  0  0  0  0  0
   -5.5904   -1.0905   28.0728 C   0  0  0  0  0  0  0  0  0  0  0  0
   -4.2891   -1.1835   28.6487 C   0  0  0  0  0  0  0  0  0  0  0  0
   -3.6048   -0.2829   28.7610 C   0  0  0  0  0  0  0  0  0  0  0  0
   -3.9537    1.0884   28.3214 C   0  0  0  0  0  0  0  0  0  0  0  0
   -5.1954    1.2350   27.8036 C   0  0  0  0  0  0  0  0  0  0  0  0
   -7.9519   -0.7072   26.5612 O   0  0  0  0  0  0  0  0  0  0  0  0
  1  2  1  0
  2  8  2  0
  2  9  1  0
  6 10  1  0
  4 16  1  0
 16 17  1  0
 16 23  2  0
 17 18  2  0
 18 19  1  0
 19 20  2  0
 20 21  1  0
 21 22  2  0
 22 17  1  0
 10 11  2  0
 11 12  1  0
 12 13  2  0
 13 14  1  0
 14 15  2  0
 15 10  1  0
  1  3  2  0
  3  4  1  0
  4  5  2  0
  5  6  1  0
  6  7  2  0
  7  1  1  0
M  END
$$$$
