No_4643-complexes_sdf/6BKW-FPZ/2024-09-17-14-21-01/
     RDKit          3D

 29 32  0  0  0  0  0  0  0  0999 V2000
   -7.7129    4.2099   27.0854 C   0  0  0  0  0  0  0  0  0  0  0  0
   -7.7814    5.1722   27.8972 C   0  0  0  0  0  0  0  0  0  0  0  0
   -8.8776    3.8408   26.3416 C   0  0  0  0  0  0  0  0  0  0  0  0
   -9.9844    4.6492   26.4743 C   0  0  0  0  0  0  0  0  0  0  0  0
   -8.8033    6.1375   27.8728 C   0  0  0  0  0  0  0  0  0  0  0  0
   -9.9554    5.8280   27.1736 C   0  0  0  0  0  0  0  0  0  0  0  0
   -8.8740    2.6184   25.5584 C   0  0  0  0  0  0  0  0  0  0  0  0
   -9.7481    2.4811   24.4970 C   0  0  0  0  0  0  0  0  0  0  0  0
   -9.7537    1.3389   23.7601 C   0  0  0  0  0  0  0  0  0  0  0  0
   -8.7872    0.3087   24.0451 C   0  0  0  0  0  0  0  0  0  0  0  0
   -7.9652    0.4384   25.1261 C   0  0  0  0  0  0  0  0  0  0  0  0
   -7.9663    1.5885   25.9116 C   0  0  0  0  0  0  0  0  0  0  0  0
   -8.8811   -1.1230   22.8742 Br  0  0  0  0  0  0  0  0  0  0  0  0
   -6.6900    5.5979   28.5914 F   0  0  0  0  0  0  0  0  0  0  0  0
   -7.1012   -0.5809   25.4003 O   0  0  0  0  0  0  0  0  0  0  0  0
   -6.2367   -0.4336   26.4294 C   0  0  0  0  0  0  0  0  0  0  0  0
   -5.7078   -1.6506   26.9819 C   0  0  0  0  0  0  0  0  0  0  0  0
   -4.9783   -1.5344   28.0392 C   0  0  0  0  0  0  0  0  0  0  0  0
   -4.6230   -0.2639   28.7211 C   0  0  0  0  0  0  0  0  0  0  0  0
   -5.2469    0.8667   28.1113 C   0  0  0  0  0  0  0  0  0  0  0  0
   -5.9985    0.7504   27.0392 C   0  0  0  0  0  0  0  0  0  0  0  0
   -3.7708   -0.1622   29.8877 C   0  0  0  0  0  0  0  0  0  0  0  0
   -3.9990   -0.9300   30.8204 F   0  0  0  0  0  0  0  0  0  0  0  0
   -3.7910    1.1554   30.4009 F   0  0  0  0  0  0  0  0  0  0  0  0
   -2.4786   -0.2989   29.3723 F   0  0  0  0  0  0  0  0  0  0  0  0
   -6.0273   -2.9242   26.4428 C   0  0  0  0  0  0  0  0  0  0  0  0
   -5.1498   -3.8310   26.6047 C   0  0  0  0  0  0  0  0  0  0  0  0
   -4.0467   -3.6752   27.2332 C   0  0  0  0  0  0  0  0  0  0  0  0
   -3.9526   -2.5236   28.1845 C   0  0  0  0  0  0  0  0  0  0  0  0
  3  7  1  0
 10 13  1  0
  2 14  1  0
 11 15  1  0
 15 16  1  0
 19 22  1  0
 22 23  1  0
 22 24  1  0
 22 25  1  0
 18 29  1  0
 29 28  2  0
 28 27  1  0
 27 26  2  0
 26 17  1  0
  1  2  2  0
  2  5  1  0
  5  6  2  0
  6  4  1  0
  4  3  2  0
  3  1  1  0
  7  8  2  0
  8  9  1  0
  9 10  2  0
 10 11  1  0
 11 12  2  0
 12  7  1  0
 16 17  2  0
 17 18  1  0
 18 19  2  0
 19 20  1  0
 20 21  2  0
 21 16  1  0
M  END
$$$$
