No_4612-complexes_sdf/6BKW-FPZ/2024-09-17-14-21-01/
     RDKit          3D

 40 43  0  0  0  0  0  0  0  0999 V2000
   -7.2496    3.8871   27.4508 C   0  0  0  0  0  0  0  0  0  0  0  0
   -7.9379    4.9063   27.8518 C   0  0  1  0  0  0  0  0  0  0  0  0
   -7.5112    6.1898   27.6280 C   0  0  0  0  0  0  0  0  0  0  0  0
   -9.3085    4.6933   28.2930 C   0  0  0  0  0  0  0  0  0  0  0  0
   -6.9422    2.7756   27.7940 C   0  0  0  0  0  0  0  0  0  0  0  0
   -6.0492    1.8084   27.3009 C   0  0  0  0  0  0  0  0  0  0  0  0
   -5.6898    0.6835   28.0888 C   0  0  1  0  0  0  0  0  0  0  0  0
   -6.3166   -0.5995   27.9774 C   0  0  0  0  0  0  0  0  0  0  0  0
   -5.9687   -1.6109   28.8758 C   0  0  0  0  0  0  0  0  0  0  0  0
   -6.7295   -2.7416   28.9763 C   0  0  0  0  0  0  0  0  0  0  0  0
   -7.8514   -2.8470   28.0947 C   0  0  0  0  0  0  0  0  0  0  0  0
   -8.2029   -1.8457   27.2309 C   0  0  0  0  0  0  0  0  0  0  0  0
   -7.5025   -0.6633   27.2468 C   0  0  0  0  0  0  0  0  0  0  0  0
   -4.4014    0.7585   28.8853 C   0  0  0  0  0  0  0  0  0  0  0  0
   -4.1572    0.0134   29.9567 N   0  0  0  0  0  0  0  0  0  0  0  0
   -3.0424    0.1385   30.8371 C   0  0  0  0  0  0  0  0  0  0  0  0
   -4.9479   -1.2542   30.0548 C   0  0  0  0  0  0  0  0  0  0  0  0
   -3.5198    0.4655   32.1411 C   0  0  2  0  0  0  0  0  0  0  0  0
   -6.4519    6.6140   28.0223 F   0  0  0  0  0  0  0  0  0  0  0  0
   -8.2887    7.1950   26.8742 C   0  0  0  0  0  0  0  0  0  0  0  0
  -10.4101    5.1121   27.4534 C   0  0  0  0  0  0  0  0  0  0  0  0
  -11.5858    4.3455   27.7820 C   0  0  0  0  0  0  0  0  0  0  0  0
  -12.7299    4.5305   27.0780 C   0  0  0  0  0  0  0  0  0  0  0  0
  -14.0328    4.1366   27.4924 C   0  0  0  0  0  0  0  0  0  0  0  0
  -14.0777    3.3561   28.6783 C   0  0  0  0  0  0  0  0  0  0  0  0
  -12.9114    3.0662   29.3968 C   0  0  0  0  0  0  0  0  0  0  0  0
  -11.6984    3.6338   29.0179 C   0  0  0  0  0  0  0  0  0  0  0  0
   -2.5166   -0.1212   33.1595 C   0  0  0  0  0  0  0  0  0  0  0  0
   -2.2067   -1.5389   33.0264 C   0  0  0  0  0  0  0  0  0  0  0  0
   -1.0709   -1.6116   32.4580 F   0  0  0  0  0  0  0  0  0  0  0  0
   -2.0878   -2.0503   34.2741 F   0  0  0  0  0  0  0  0  0  0  0  0
   -3.1248   -2.2340   32.4066 F   0  0  0  0  0  0  0  0  0  0  0  0
   -4.6629    0.6980   32.4713 O   0  0  0  0  0  0  0  0  0  0  0  0
   -9.3779   -1.9848   26.3604 C   0  0  0  0  0  0  0  0  0  0  0  0
   -9.9345   -2.7206   25.9170 N   0  0  0  0  0  0  0  0  0  0  0  0
   -9.8363   -3.8354   25.8222 C   0  0  0  0  0  0  0  0  0  0  0  0
  -10.9197   -4.6320   25.2480 C   0  0  0  0  0  0  0  0  0  0  0  0
  -11.7768   -3.7204   24.8017 C   0  0  0  0  0  0  0  0  0  0  0  0
  -11.2399   -2.4590   25.2441 C   0  0  0  0  0  0  0  0  0  0  0  0
   -9.3855   -0.7017   25.8475 O   0  0  0  0  0  0  0  0  0  0  0  0
  1  2  1  0
  2  3  1  0
  2  4  1  6
  1  5  2  3
  5  6  1  0
  7  6  1  6
  7 14  1  0
 14 15  1  0
 15 16  1  0
  9 17  1  0
 15 17  1  0
 16 18  1  0
  3 19  1  0
  3 20  1  0
  4 21  1  0
 21 22  1  0
 18 28  1  0
 28 29  1  0
 29 30  1  0
 29 31  1  0
 29 32  1  0
 18 33  1  1
 12 34  1  0
 34 35  1  0
 35 36  1  0
 36 37  2  0
 37 38  1  0
 35 39  1  0
 38 39  1  0
 34 40  2  0
  7  8  1  0
 22 23  2  0
 23 24  1  0
 24 25  2  0
 25 26  1  0
 26 27  2  0
 27 22  1  0
  8  9  1  0
  9 10  2  0
 10 11  1  0
 11 12  2  0
 12 13  1  0
 13  8  2  0
M  END
$$$$
