No_4855-complexes_sdf/6BKW-FPZ/2024-09-17-14-21-01/
     RDKit          3D

 40 43  0  0  0  0  0  0  0  0999 V2000
   -7.9040    3.9820   27.1177 C   0  0  0  0  0  0  0  0  0  0  0  0
   -8.2057    2.8231   26.8733 C   0  0  0  0  0  0  0  0  0  0  0  0
   -8.7695    5.0740   26.7916 C   0  0  0  0  0  0  0  0  0  0  0  0
   -9.9618    4.7598   26.1630 C   0  0  0  0  0  0  0  0  0  0  0  0
   -9.4200    2.4524   26.2850 C   0  0  0  0  0  0  0  0  0  0  0  0
  -10.2590    3.4815   25.9250 C   0  0  0  0  0  0  0  0  0  0  0  0
   -8.6094    6.4941   27.0911 C   0  0  0  0  0  0  0  0  0  0  0  0
   -7.3941    6.7785   26.9711 F   0  0  0  0  0  0  0  0  0  0  0  0
   -9.0218    6.7190   28.4512 F   0  0  0  0  0  0  0  0  0  0  0  0
   -9.2382    7.2973   26.2774 F   0  0  0  0  0  0  0  0  0  0  0  0
   -7.2571    1.6984   27.3057 C   0  0  0  0  0  0  0  0  0  0  0  0
   -7.6067    0.3224   27.2520 C   0  0  0  0  0  0  0  0  0  0  0  0
   -6.6894   -0.6119   27.6597 C   0  0  0  0  0  0  0  0  0  0  0  0
   -5.3934   -0.1818   28.0903 C   0  0  0  0  0  0  0  0  0  0  0  0
   -5.0675    1.1705   28.0940 C   0  0  0  0  0  0  0  0  0  0  0  0
   -5.9180    2.0710   27.7349 C   0  0  0  0  0  0  0  0  0  0  0  0
   -4.4350   -1.2125   28.6022 C   0  0  0  0  0  0  0  0  0  0  0  0
   -4.3863   -1.6629   29.5678 C   0  0  0  0  0  0  0  0  0  0  0  0
   -3.3209   -2.5924   30.0760 C   0  0  0  0  0  0  0  0  0  0  0  0
   -2.3149   -2.8596   29.1890 C   0  0  0  0  0  0  0  0  0  0  0  0
   -3.2522   -1.3823   27.7153 C   0  0  0  0  0  0  0  0  0  0  0  0
   -2.2577   -2.2088   27.9723 C   0  0  0  0  0  0  0  0  0  0  0  0
   -5.4582   -1.4862   30.7347 C   0  0  0  0  0  0  0  0  0  0  0  0
   -5.1238   -0.8806   31.8529 C   0  0  2  0  0  0  0  0  0  0  0  0
   -3.8788   -0.2373   32.1079 C   0  0  0  0  0  0  0  0  0  0  0  0
   -6.0559   -0.9778   32.9934 C   0  0  0  0  0  0  0  0  0  0  0  0
   -5.9934   -2.1695   33.7943 C   0  0  0  0  0  0  0  0  0  0  0  0
   -5.4937   -1.9849   35.0504 C   0  0  0  0  0  0  0  0  0  0  0  0
   -4.3787   -1.3372   35.3266 C   0  0  0  0  0  0  0  0  0  0  0  0
   -3.8789   -1.0844   36.6765 C   0  0  0  0  0  0  0  0  0  0  0  0
   -4.6269   -1.5482   37.7338 C   0  0  0  0  0  0  0  0  0  0  0  0
   -5.7920   -2.2742   37.4653 C   0  0  0  0  0  0  0  0  0  0  0  0
   -6.2291   -2.4406   36.2093 C   0  0  0  0  0  0  0  0  0  0  0  0
   -6.4267   -3.3038   33.3878 N   0  0  0  0  0  0  0  0  0  0  0  0
   -5.7185   -4.3554   33.2748 C   0  0  0  0  0  0  0  0  0  0  0  0
   -4.5524   -4.3401   33.6701 O   0  0  0  0  0  0  0  0  0  0  0  0
   -6.2556   -5.5439   32.6390 C   0  0  0  0  0  0  0  0  0  0  0  0
   -6.1985   -6.6184   32.7491 O   0  0  0  0  0  0  0  0  0  0  0  0
   -6.8289   -5.2796   31.4274 O   0  0  0  0  0  0  0  0  0  0  0  0
   -2.6288   -0.3095   36.8646 C   0  0  0  0  0  0  0  0  0  0  0  0
  3  7  1  0
  7  8  1  0
  7  9  1  0
  7 10  1  0
  2 11  1  0
 14 17  1  0
 18 23  1  0
 23 24  1  0
 24 25  1  1
 24 26  1  0
 26 27  1  0
 27 28  1  0
 27 34  2  3
 34 35  1  0
 35 36  2  0
 35 37  1  0
 37 38  2  0
 37 39  1  0
 30 40  1  0
 28 29  2  0
 29 30  1  0
 30 31  2  0
 31 32  1  0
 32 33  2  0
 33 28  1  0
 11 12  2  0
 12 13  1  0
 13 14  2  0
 14 15  1  0
 15 16  2  0
 16 11  1  0
 17 18  1  0
 18 19  2  0
 19 20  1  0
 20 22  2  0
 22 21  1  0
 21 17  2  0
  1  2  2  0
  2  5  1  0
  5  6  2  0
  6  4  1  0
  4  3  2  0
  3  1  1  0
M  END
$$$$
