No_4102-complexes_sdf/6BKW-FPZ/2024-09-17-14-21-01/
     RDKit          3D

 19 20  0  0  0  0  0  0  0  0999 V2000
   -7.9040    3.9820   27.1177 C   0  0  0  0  0  0  0  0  0  0  0  0
   -7.8663    4.8694   27.9238 C   0  0  0  0  0  0  0  0  0  0  0  0
   -9.0501    3.8017   26.2617 C   0  0  0  0  0  0  0  0  0  0  0  0
  -10.0189    4.7608   26.3707 C   0  0  0  0  0  0  0  0  0  0  0  0
   -8.6973    5.9722   27.8968 C   0  0  0  0  0  0  0  0  0  0  0  0
   -9.8216    5.8946   27.1241 C   0  0  0  0  0  0  0  0  0  0  0  0
   -9.3656    2.6887   25.4285 C   0  0  0  0  0  0  0  0  0  0  0  0
  -10.1464    2.0778   25.6231 O   0  0  0  0  0  0  0  0  0  0  0  0
   -8.6067    2.5847   24.3279 O   0  0  0  0  0  0  0  0  0  0  0  0
   -9.1310    1.5815   23.4445 C   0  0  0  0  0  0  0  0  0  0  0  0
  -10.0983    2.0975   22.4955 C   0  0  0  0  0  0  0  0  0  0  0  0
  -10.5606    1.2371   21.5367 C   0  0  0  0  0  0  0  0  0  0  0  0
  -10.0358   -0.1141   21.4566 C   0  0  0  0  0  0  0  0  0  0  0  0
   -9.0635   -0.5330   22.3539 C   0  0  0  0  0  0  0  0  0  0  0  0
   -8.5773    0.3657   23.3666 C   0  0  0  0  0  0  0  0  0  0  0  0
  -10.5306   -0.9791   20.4080 C   0  0  0  0  0  0  0  0  0  0  0  0
  -11.1916   -2.0113   20.7563 N   0  0  0  0  0  0  0  0  0  0  0  0
  -11.6170   -2.9213   20.1177 C   0  0  0  0  0  0  0  0  0  0  0  0
  -12.3521   -4.0333   20.6048 C   0  0  0  0  0  0  0  0  0  0  0  0
  3  7  1  0
  7  8  2  0
  7  9  1  0
  9 10  1  0
 13 16  1  0
 16 17  1  0
 17 18  1  0
 18 19  2  0
  1  2  2  0
  2  5  1  0
  5  6  2  0
  6  4  1  0
  4  3  2  0
  3  1  1  0
 10 11  2  0
 11 12  1  0
 12 13  2  0
 13 14  1  0
 14 15  2  0
 15 10  1  0
M  END
$$$$
