No_4465-complexes_sdf/6BKW-FPZ/2024-09-17-14-21-01/
     RDKit          3D

 20 22  0  0  0  0  0  0  0  0999 V2000
   -7.7129    4.2099   27.0854 C   0  0  0  0  0  0  0  0  0  0  0  0
   -8.9133    4.4736   27.0998 C   0  0  0  0  0  0  0  0  0  0  0  0
   -9.7135    3.9633   26.0300 C   0  0  0  0  0  0  0  0  0  0  0  0
   -7.1708    2.9509   26.6517 C   0  0  0  0  0  0  0  0  0  0  0  0
   -8.1338    2.1226   26.0347 C   0  0  0  0  0  0  0  0  0  0  0  0
   -9.3057    3.0089   25.4450 C   0  0  0  0  0  0  0  0  0  0  0  0
  -10.1107    2.2023   24.4500 C   0  0  0  0  0  0  0  0  0  0  0  0
  -10.3938    2.9685   23.2802 C   0  0  0  0  0  0  0  0  0  0  0  0
  -10.2533    4.3725   23.2426 C   0  0  0  0  0  0  0  0  0  0  0  0
  -10.8220    2.3111   22.0647 C   0  0  0  0  0  0  0  0  0  0  0  0
   -6.9163    4.7191   28.1732 F   0  0  0  0  0  0  0  0  0  0  0  0
  -11.8427    2.2355   21.7152 C   0  0  0  0  0  0  0  0  0  0  0  0
  -11.2249    4.9392   22.1239 C   0  0  0  0  0  0  0  0  0  0  0  0
  -12.0262    3.9623   21.3846 C   0  0  0  0  0  0  0  0  0  0  0  0
  -10.4226    0.8809   24.5671 C   0  0  0  0  0  0  0  0  0  0  0  0
   -9.6327   -0.0586   23.9883 C   0  0  0  0  0  0  0  0  0  0  0  0
   -9.9311   -1.3819   24.0245 C   0  0  0  0  0  0  0  0  0  0  0  0
  -11.5282    0.5298   25.3016 C   0  0  0  0  0  0  0  0  0  0  0  0
  -11.9002   -0.8198   25.3881 C   0  0  0  0  0  0  0  0  0  0  0  0
  -11.0675   -1.7554   24.7796 C   0  0  0  0  0  0  0  0  0  0  0  0
  6  7  1  0
  1 11  1  0
  7 15  1  0
  7  8  1  0
 15 16  2  0
 16 17  1  0
 17 20  2  0
 20 19  1  0
 19 18  2  0
 18 15  1  0
  8  9  2  0
  9 13  1  0
 13 14  2  0
 14 12  1  0
 12 10  2  0
 10  8  1  0
  1  2  2  0
  2  3  1  0
  3  6  2  0
  6  5  1  0
  5  4  2  0
  4  1  1  0
M  END
$$$$
