No_4730-complexes_sdf/6BKW-FPZ/2024-09-17-14-21-01/
     RDKit          3D

 16 17  0  0  0  0  0  0  0  0999 V2000
   -7.9040    3.9820   27.1177 C   0  0  0  0  0  0  0  0  0  0  0  0
   -7.8663    4.8694   27.9238 C   0  0  0  0  0  0  0  0  0  0  0  0
   -9.0501    3.8017   26.2617 C   0  0  0  0  0  0  0  0  0  0  0  0
  -10.0189    4.7608   26.3707 C   0  0  0  0  0  0  0  0  0  0  0  0
   -8.6770    5.9780   27.9222 C   0  0  0  0  0  0  0  0  0  0  0  0
   -9.8040    5.8752   27.0958 C   0  0  0  0  0  0  0  0  0  0  0  0
   -8.9477    2.5729   25.4381 C   0  0  2  0  0  0  0  0  0  0  0  0
   -9.7070    2.5753   24.3410 C   0  0  0  0  0  0  0  0  0  0  0  0
   -9.1492    1.3982   26.2752 C   0  0  0  0  0  0  0  0  0  0  0  0
   -8.9768    0.2063   25.6984 C   0  0  2  0  0  0  0  0  0  0  0  0
   -9.6468    0.0851   24.4207 C   0  0  0  0  0  0  0  0  0  0  0  0
   -9.4848    1.2728   23.5410 C   0  0  0  0  0  0  0  0  0  0  0  0
   -8.3714   -0.9712   26.2206 C   0  0  0  0  0  0  0  0  0  0  0  0
   -7.4063   -1.1342   26.7382 C   0  0  0  0  0  0  0  0  0  0  0  0
   -6.8871   -2.3466   27.4128 C   0  0  0  0  0  0  0  0  0  0  0  0
   -7.7261   -3.4207   27.3115 C   0  0  0  0  0  0  0  0  0  0  0  0
  7  3  1  1
  7  8  1  0
  7  9  1  0
 10  9  1  1
 10 11  1  0
  8 12  1  0
 11 12  1  0
 10 13  1  0
 13 14  2  3
 14 15  1  0
 15 16  2  0
  1  2  2  0
  2  5  1  0
  5  6  2  0
  6  4  1  0
  4  3  2  0
  3  1  1  0
M  END
$$$$
