No_4969-complexes_sdf/6BKW-FPZ/2024-09-17-14-21-01/
     RDKit          3D

 16 17  0  0  0  0  0  0  0  0999 V2000
   -7.9040    3.9820   27.1177 C   0  0  0  0  0  0  0  0  0  0  0  0
   -9.0711    4.3164   27.0630 C   0  0  0  0  0  0  0  0  0  0  0  0
   -9.8698    3.9665   25.9494 C   0  0  0  0  0  0  0  0  0  0  0  0
   -7.0332    4.5030   28.2025 C   0  0  1  0  0  0  0  0  0  0  0  0
   -9.4357    2.9501   25.1393 C   0  0  0  0  0  0  0  0  0  0  0  0
  -10.2810    2.6266   24.0411 C   0  0  0  0  0  0  0  0  0  0  0  0
   -5.7826    4.1144   28.2077 N   0  0  0  0  0  0  0  0  0  0  0  0
   -9.9677    1.5188   23.2485 C   0  0  0  0  0  0  0  0  0  0  0  0
   -8.8679    0.6842   23.6785 C   0  0  0  0  0  0  0  0  0  0  0  0
   -8.1833    0.9649   24.8329 C   0  0  0  0  0  0  0  0  0  0  0  0
   -8.4557    2.0300   25.6101 C   0  0  0  0  0  0  0  0  0  0  0  0
   -7.5445    2.5493   26.6301 C   0  0  0  0  0  0  0  0  0  0  0  0
   -7.1806    6.2747   27.9801 P   0  0  0  0  0  0  0  0  0  0  0  0
   -7.7102    6.7517   29.0866 O   0  0  0  0  0  0  0  0  0  0  0  0
   -8.3509    6.4975   26.9559 O   0  0  0  0  0  0  0  0  0  0  0  0
   -5.9714    6.8542   27.5156 O   0  0  0  0  0  0  0  0  0  0  0  0
  1  4  1  0
  4  7  1  6
  4 13  1  0
 13 14  1  0
 13 15  2  0
 13 16  1  0
  5  6  1  0
  6  8  2  0
  8  9  1  0
  9 10  2  0
 10 11  1  0
  1  2  2  0
  2  3  1  0
  3  5  2  0
  5 11  1  0
 11 12  2  0
 12  1  1  0
M  END
$$$$
