No_4143-complexes_sdf/6BKW-FPZ/2024-09-17-14-21-01/
     RDKit          3D

 30 33  0  0  0  0  0  0  0  0999 V2000
   -7.9040    3.9820   27.1177 C   0  0  0  0  0  0  0  0  0  0  0  0
   -7.8663    4.8694   27.9238 C   0  0  0  0  0  0  0  0  0  0  0  0
   -9.0491    3.8523   26.2542 C   0  0  0  0  0  0  0  0  0  0  0  0
   -8.7661    5.9491   27.9690 C   0  0  0  0  0  0  0  0  0  0  0  0
   -9.9279    4.8544   26.1938 C   0  0  0  0  0  0  0  0  0  0  0  0
   -9.8044    5.9413   27.0782 C   0  0  0  0  0  0  0  0  0  0  0  0
   -6.9767    2.7896   27.2265 C   0  0  0  0  0  0  0  0  0  0  0  0
   -7.3704    1.5299   26.8306 N   0  0  0  0  0  0  0  0  0  0  0  0
   -5.7670    2.9889   27.5963 O   0  0  0  0  0  0  0  0  0  0  0  0
   -6.5251    0.3771   26.9993 C   0  0  0  0  0  0  0  0  0  0  0  0
   -6.9744   -0.6883   26.2922 C   0  0  0  0  0  0  0  0  0  0  0  0
   -6.2808   -1.7673   26.3059 C   0  0  0  0  0  0  0  0  0  0  0  0
   -5.0175   -1.8850   27.0742 C   0  0  0  0  0  0  0  0  0  0  0  0
   -4.6507   -0.7325   27.7853 C   0  0  0  0  0  0  0  0  0  0  0  0
   -5.3829    0.4199   27.7826 C   0  0  0  0  0  0  0  0  0  0  0  0
   -3.4097   -0.7823   28.6626 C   0  0  1  0  0  0  0  0  0  0  0  0
   -2.2771   -0.8165   28.1338 C   0  0  0  0  0  0  0  0  0  0  0  0
   -3.5431   -0.1313   29.9707 C   0  0  0  0  0  0  0  0  0  0  0  0
   -2.6885   -0.6290   31.0354 C   0  0  0  0  0  0  0  0  0  0  0  0
   -2.4662   -1.6342   31.2269 C   0  0  0  0  0  0  0  0  0  0  0  0
   -1.8414   -1.9441   32.5382 C   0  0  0  0  0  0  0  0  0  0  0  0
   -1.0619   -3.0457   32.7993 C   0  0  0  0  0  0  0  0  0  0  0  0
   -1.0981   -4.0148   31.7971 C   0  0  0  0  0  0  0  0  0  0  0  0
   -1.6688   -3.8120   30.6001 C   0  0  0  0  0  0  0  0  0  0  0  0
   -2.2148   -2.6233   30.2874 C   0  0  0  0  0  0  0  0  0  0  0  0
   -1.1582   -1.2822   28.5881 C   0  0  0  0  0  0  0  0  0  0  0  0
   -1.3417   -1.7108   29.4832 C   0  0  0  0  0  0  0  0  0  0  0  0
   -1.9850   -0.9056   33.6644 C   0  0  0  0  0  0  0  0  0  0  0  0
   -2.2597   -1.3005   34.6293 O   0  0  0  0  0  0  0  0  0  0  0  0
   -1.7848    0.3896   33.3378 O   0  0  0  0  0  0  0  0  0  0  0  0
  1  7  1  0
  7  8  1  0
  7  9  2  0
  8 10  1  0
 16 14  1  6
 16 17  1  0
 16 18  1  0
 18 19  2  3
 19 20  1  0
 17 26  2  3
 25 27  1  0
 26 27  1  0
 21 28  1  0
 28 29  2  0
 28 30  1  0
  1  2  2  0
  2  4  1  0
  4  6  2  0
  6  5  1  0
  5  3  2  0
  3  1  1  0
 10 11  2  0
 11 12  1  0
 12 13  2  0
 13 14  1  0
 14 15  2  0
 15 10  1  0
 20 21  2  0
 21 22  1  0
 22 23  2  0
 23 24  1  0
 24 25  2  0
 25 20  1  0
M  END
$$$$
