No_4760-complexes_sdf/6BKW-FPZ/2024-09-17-14-21-01/
     RDKit          3D

 40 44  0  0  0  0  0  0  0  0999 V2000
   -7.7129    4.2099   27.0854 C   0  0  0  0  0  0  0  0  0  0  0  0
   -8.9133    4.4736   27.0998 C   0  0  0  0  0  0  0  0  0  0  0  0
   -9.7937    3.7368   26.2091 C   0  0  0  0  0  0  0  0  0  0  0  0
   -7.4126    2.9835   27.2940 C   0  0  0  0  0  0  0  0  0  0  0  0
   -8.2271    1.9809   26.6470 C   0  0  0  0  0  0  0  0  0  0  0  0
   -9.4184    2.4342   26.1916 C   0  0  0  0  0  0  0  0  0  0  0  0
   -9.3023    6.0291   27.0890 C   0  0  0  0  0  0  0  0  0  0  0  0
   -7.5895    0.6159   26.7269 C   0  0  0  0  0  0  0  0  0  0  0  0
   -8.1571   -0.3039   26.4647 O   0  0  0  0  0  0  0  0  0  0  0  0
   -6.2751    0.5569   27.0669 O   0  0  0  0  0  0  0  0  0  0  0  0
   -8.4666    7.0477   26.6212 C   0  0  0  0  0  0  0  0  0  0  0  0
   -5.8232   -0.4368   27.9340 C   0  0  0  0  0  0  0  0  0  0  0  0
   -4.5370   -0.8489   27.5065 C   0  0  1  0  0  0  0  0  0  0  0  0
   -3.7699    0.0669   26.8652 C   0  0  0  0  0  0  0  0  0  0  0  0
   -3.6923   -1.2807   28.6614 N   0  0  0  0  0  0  0  0  0  0  0  0
   -2.5632   -1.6577   28.6251 C   0  0  0  0  0  0  0  0  0  0  0  0
   -3.0128    0.8776   27.2442 N   0  0  0  0  0  0  0  0  0  0  0  0
   -1.5529   -0.4619   28.6077 C   0  0  0  0  0  0  0  0  0  0  0  0
   -1.5718    0.3417   27.3387 C   0  0  0  0  0  0  0  0  0  0  0  0
   -4.5486   -1.9401   29.7653 C   0  0  0  0  0  0  0  0  0  0  0  0
   -4.1832   -1.4457   30.9642 C   0  0  0  0  0  0  0  0  0  0  0  0
   -3.7005   -0.3372   31.2358 C   0  0  0  0  0  0  0  0  0  0  0  0
   -3.4041    0.1367   32.5114 N   0  0  0  0  0  0  0  0  0  0  0  0
   -4.9639   -1.7548   32.2757 C   0  0  0  0  0  0  0  0  0  0  0  0
   -4.7446   -1.3436   33.4950 C   0  0  0  0  0  0  0  0  0  0  0  0
   -3.8690   -0.2478   33.5789 C   0  0  0  0  0  0  0  0  0  0  0  0
   -5.9301   -2.9372   32.0135 C   0  0  0  0  0  0  0  0  0  0  0  0
   -6.4969   -3.3638   32.9987 C   0  0  0  0  0  0  0  0  0  0  0  0
   -6.3366   -2.7676   34.3608 C   0  0  0  0  0  0  0  0  0  0  0  0
   -5.4721   -1.7640   34.6104 C   0  0  0  0  0  0  0  0  0  0  0  0
   -4.7322   -3.1777   29.5204 O   0  0  0  0  0  0  0  0  0  0  0  0
   -7.0509    6.8022   26.0923 Cl  0  0  0  0  0  0  0  0  0  0  0  0
   -5.2991   -1.2447   35.9480 C   0  0  0  0  0  0  0  0  0  0  0  0
   -6.1124   -1.6050   36.9865 N   0  0  0  0  0  0  0  0  0  0  0  0
   -6.1369   -0.9216   38.1346 C   0  0  0  0  0  0  0  0  0  0  0  0
   -5.1665    0.1077   38.3156 C   0  0  0  0  0  0  0  0  0  0  0  0
   -4.5158   -0.2066   36.2375 N   0  0  0  0  0  0  0  0  0  0  0  0
   -4.3485    0.4246   37.3799 C   0  0  0  0  0  0  0  0  0  0  0  0
   -3.4931    1.4669   37.5346 N   0  0  0  0  0  0  0  0  0  0  0  0
   -3.4081    2.1230   38.7622 C   0  0  0  0  0  0  0  0  0  0  0  0
  2  7  1  0
  5  8  1  0
  8  9  2  0
  8 10  1  0
  7 11  1  0
 10 12  1  0
 13 12  1  1
 13 14  1  0
 13 15  1  0
 15 16  1  0
 14 17  1  0
 16 18  1  0
 17 19  1  0
 18 19  1  0
 15 20  1  0
 20 21  1  0
 20 31  2  0
 11 32  1  0
 30 33  1  0
 38 39  1  0
 39 40  2  0
 33 34  2  0
 34 35  1  0
 35 36  2  0
 36 38  1  0
 38 37  2  0
 37 33  1  0
  1  2  2  0
  2  3  1  0
  3  6  2  0
  6  5  1  0
  5  4  2  0
  4  1  1  0
 21 22  2  0
 22 23  1  0
 23 26  2  0
 26 25  1  0
 24 21  1  0
 24 25  2  0
 25 30  1  0
 30 29  2  0
 29 28  1  0
 28 27  2  0
 27 24  1  0
M  END
$$$$
