No_4838-complexes_sdf/6BKW-FPZ/2024-09-17-14-21-01/
     RDKit          3D

 17 18  0  0  0  0  0  0  0  0999 V2000
   -7.9040    3.9820   27.1177 C   0  0  0  0  0  0  0  0  0  0  0  0
   -9.0711    4.3164   27.0630 C   0  0  0  0  0  0  0  0  0  0  0  0
   -9.8698    3.9665   25.9494 C   0  0  0  0  0  0  0  0  0  0  0  0
   -7.0332    4.5030   28.2025 C   0  0  0  0  0  0  0  0  0  0  0  0
  -10.9909    4.7237   25.5958 C   0  0  0  0  0  0  0  0  0  0  0  0
   -7.4989    5.5573   28.9524 C   0  0  0  0  0  0  0  0  0  0  0  0
  -11.7350    4.2316   24.5284 C   0  0  0  0  0  0  0  0  0  0  0  0
  -11.2838    3.2467   23.6902 C   0  0  0  0  0  0  0  0  0  0  0  0
  -10.1288    2.5811   23.9926 C   0  0  0  0  0  0  0  0  0  0  0  0
   -9.3812    2.9944   25.1034 C   0  0  0  0  0  0  0  0  0  0  0  0
   -9.4806    5.4316   27.8950 C   0  0  0  0  0  0  0  0  0  0  0  0
   -8.6967    5.9823   28.8000 N   0  0  0  0  0  0  0  0  0  0  0  0
  -12.0377    2.8236   22.4799 C   0  0  0  0  0  0  0  0  0  0  0  0
  -12.8936    2.2382   22.0065 F   0  0  0  0  0  0  0  0  0  0  0  0
  -12.2360    4.1334   21.9659 F   0  0  0  0  0  0  0  0  0  0  0  0
  -10.9669    2.5140   21.5793 F   0  0  0  0  0  0  0  0  0  0  0  0
   -5.7487    4.0398   28.2686 O   0  0  0  0  0  0  0  0  0  0  0  0
  8 13  1  0
 13 14  1  0
 13 15  1  0
 13 16  1  0
  4 17  1  0
  3  2  1  0
  1  2  2  0
  2 11  1  0
 11 12  2  0
 12  6  1  0
  6  4  2  0
  4  1  1  0
  3  5  2  0
  5  7  1  0
  7  8  2  0
  8  9  1  0
  9 10  2  0
 10  3  1  0
M  END
$$$$
