No_4676-complexes_sdf/6BKW-FPZ/2024-09-17-14-21-01/
     RDKit          3D

 33 37  0  0  0  0  0  0  0  0999 V2000
   -7.9040    3.9820   27.1177 C   0  0  0  0  0  0  0  0  0  0  0  0
   -9.0711    4.3164   27.0630 C   0  0  0  0  0  0  0  0  0  0  0  0
   -9.5294    5.4517   27.7215 C   0  0  0  0  0  0  0  0  0  0  0  0
   -7.4336    2.7132   26.5681 C   0  0  0  0  0  0  0  0  0  0  0  0
   -8.3353    1.8569   26.0442 C   0  0  0  0  0  0  0  0  0  0  0  0
   -7.9243    0.5609   25.6726 C   0  0  0  0  0  0  0  0  0  0  0  0
   -9.9858    3.3264   26.6599 C   0  0  0  0  0  0  0  0  0  0  0  0
   -9.6166    2.1642   26.1249 C   0  0  0  0  0  0  0  0  0  0  0  0
   -6.9669   -0.0048   26.1002 O   0  0  0  0  0  0  0  0  0  0  0  0
   -8.5808   -0.0115   24.7352 O   0  0  0  0  0  0  0  0  0  0  0  0
   -6.8797    4.8223   27.6722 N   0  0  0  0  0  0  0  0  0  0  0  0
   -7.2310    6.0090   28.2245 C   0  0  0  0  0  0  0  0  0  0  0  0
   -8.5641    6.3494   28.1874 N   0  0  0  0  0  0  0  0  0  0  0  0
  -11.4574    3.7220   26.4777 C   0  0  2  0  0  0  0  0  0  0  0  0
  -12.2434    3.5900   27.6438 C   0  0  0  0  0  0  0  0  0  0  0  0
  -11.8750    3.1140   28.7579 C   0  0  0  0  0  0  0  0  0  0  0  0
  -12.7619    2.9880   29.9304 C   0  0  0  0  0  0  0  0  0  0  0  0
  -13.9988    3.6126   29.8590 C   0  0  0  0  0  0  0  0  0  0  0  0
  -13.5967    4.2482   27.5599 C   0  0  0  0  0  0  0  0  0  0  0  0
  -14.4004    4.2975   28.6735 C   0  0  0  0  0  0  0  0  0  0  0  0
  -11.9627    4.0255   25.2243 C   0  0  0  0  0  0  0  0  0  0  0  0
  -14.8718    3.6726   31.0417 C   0  0  0  0  0  0  0  0  0  0  0  0
  -15.7973    4.2555   31.1704 C   0  0  0  0  0  0  0  0  0  0  0  0
  -16.6623    4.3138   32.4104 C   0  0  0  0  0  0  0  0  0  0  0  0
  -16.2433    3.5153   33.4708 C   0  0  0  0  0  0  0  0  0  0  0  0
  -14.4315    2.9034   32.1799 C   0  0  0  0  0  0  0  0  0  0  0  0
  -15.0673    2.8252   33.3604 C   0  0  0  0  0  0  0  0  0  0  0  0
  -11.9500    3.1641   24.1842 C   0  0  0  0  0  0  0  0  0  0  0  0
  -12.2182    3.5343   22.9685 C   0  0  0  0  0  0  0  0  0  0  0  0
  -11.8167    2.7748   21.8925 C   0  0  0  0  0  0  0  0  0  0  0  0
  -11.2883    1.4768   22.1108 C   0  0  0  0  0  0  0  0  0  0  0  0
  -11.0675    1.0583   23.3752 C   0  0  0  0  0  0  0  0  0  0  0  0
  -11.3665    1.9223   24.4522 C   0  0  0  0  0  0  0  0  0  0  0  0
  5  6  1  0
  6  9  2  0
  6 10  1  0
  7 14  1  0
 14 15  1  0
 14 21  1  6
 18 22  1  0
 21 28  1  0
 28 29  2  0
 29 30  1  0
 30 31  2  0
 31 32  1  0
 32 33  2  0
 33 28  1  0
  2  7  1  0
  7  8  2  0
  8  5  1  0
  5  4  2  0
  4  1  1  0
  1  2  1  0
  2  3  2  0
  3 13  1  0
 13 12  2  0
 12 11  1  0
 11  1  2  0
 22 23  2  0
 23 24  1  0
 24 25  2  0
 25 27  1  0
 27 26  2  0
 26 22  1  0
 15 16  2  0
 16 17  1  0
 17 18  2  0
 18 20  1  0
 20 19  2  0
 19 15  1  0
M  END
$$$$
