No_4549-complexes_sdf/6BKW-FPZ/2024-09-17-14-21-01/
     RDKit          3D

 29 33  0  0  0  0  0  0  0  0999 V2000
   -7.9040    3.9820   27.1177 C   0  0  0  0  0  0  0  0  0  0  0  0
   -7.8663    4.8694   27.9238 C   0  0  0  0  0  0  0  0  0  0  0  0
   -9.0953    3.1697   27.0532 C   0  0  0  0  0  0  0  0  0  0  0  0
  -10.1313    3.4052   27.8871 C   0  0  0  0  0  0  0  0  0  0  0  0
  -10.1178    4.5885   28.6885 C   0  0  0  0  0  0  0  0  0  0  0  0
   -8.9412    5.2994   28.7548 C   0  0  0  0  0  0  0  0  0  0  0  0
   -9.0660    1.9572   26.1818 C   0  0  0  0  0  0  0  0  0  0  0  0
   -8.3816    0.8299   26.4462 C   0  0  0  0  0  0  0  0  0  0  0  0
   -8.3209   -0.2035   25.5892 C   0  0  0  0  0  0  0  0  0  0  0  0
   -9.7355    2.1120   24.9651 C   0  0  0  0  0  0  0  0  0  0  0  0
  -10.3647    3.3295   24.6080 C   0  0  0  0  0  0  0  0  0  0  0  0
  -10.8947    3.5369   23.3576 C   0  0  0  0  0  0  0  0  0  0  0  0
   -9.6637    1.1144   24.0479 C   0  0  0  0  0  0  0  0  0  0  0  0
   -8.9421   -0.0474   24.3694 C   0  0  0  0  0  0  0  0  0  0  0  0
  -10.8134    2.5061   22.4492 C   0  0  0  0  0  0  0  0  0  0  0  0
  -10.1237    1.2751   22.7324 C   0  0  0  0  0  0  0  0  0  0  0  0
  -11.3020    2.5325   27.9443 C   0  0  0  0  0  0  0  0  0  0  0  0
  -12.3949    2.8746   28.7325 C   0  0  0  0  0  0  0  0  0  0  0  0
  -13.4796    1.9998   28.9375 C   0  0  0  0  0  0  0  0  0  0  0  0
  -14.5825    2.3739   29.5504 C   0  0  0  0  0  0  0  0  0  0  0  0
  -14.6315    3.6349   30.1365 C   0  0  0  0  0  0  0  0  0  0  0  0
  -13.6805    4.5925   29.8964 C   0  0  0  0  0  0  0  0  0  0  0  0
  -12.5914    4.2236   29.1948 C   0  0  0  0  0  0  0  0  0  0  0  0
  -11.3693    4.9819   29.0704 N   0  0  0  0  0  0  0  0  0  0  0  0
   -8.8887   -1.1384   23.3799 C   0  0  0  0  0  0  0  0  0  0  0  0
   -7.8269   -1.7313   23.1666 C   0  0  0  0  0  0  0  0  0  0  0  0
   -7.7189   -2.7873   22.1550 C   0  0  0  0  0  0  0  0  0  0  0  0
   -8.7710   -2.8749   21.2519 C   0  0  0  0  0  0  0  0  0  0  0  0
   -9.8823   -2.0500   21.4031 C   0  0  0  0  0  0  0  0  0  0  0  0
  3  7  1  0
 14 25  1  0
 25 26  2  3
 26 27  1  0
 27 28  2  3
 28 29  1  0
 18 19  1  0
 19 20  2  0
 20 21  1  0
 21 22  2  0
 22 23  1  0
  5 24  1  0
 24 23  2  0
 23 18  1  0
 18 17  2  0
 17  4  1  0
  1  2  2  0
  2  6  1  0
  6  5  2  0
  5  4  1  0
  4  3  2  0
  3  1  1  0
 10 11  2  0
 11 12  1  0
 12 15  2  0
 15 16  1  0
 16 13  2  0
  7  8  2  0
  8  9  1  0
  9 14  2  0
 14 13  1  0
 13 10  1  0
 10  7  1  0
M  END
$$$$
