No_4546-complexes_sdf/6BKW-FPZ/2024-09-17-14-21-01/
     RDKit          3D

 25 27  0  0  0  0  0  0  0  0999 V2000
   -7.7129    4.2099   27.0854 C   0  0  0  0  0  0  0  0  0  0  0  0
   -8.9133    4.4736   27.0998 C   0  0  0  0  0  0  0  0  0  0  0  0
   -9.4643    5.5426   27.7628 C   0  0  0  0  0  0  0  0  0  0  0  0
   -7.2009    2.9448   26.6134 C   0  0  0  0  0  0  0  0  0  0  0  0
   -8.1365    1.9533   26.2981 C   0  0  0  0  0  0  0  0  0  0  0  0
   -9.4514    2.2934   26.2667 C   0  0  0  0  0  0  0  0  0  0  0  0
   -9.8600    3.4834   26.7068 C   0  0  0  0  0  0  0  0  0  0  0  0
   -7.6136    0.6633   25.8927 C   0  0  0  0  0  0  0  0  0  0  0  0
   -6.8247   -0.0081   26.7315 N   0  0  0  0  0  0  0  0  0  0  0  0
   -6.4796    0.4478   27.7945 C   0  0  0  0  0  0  0  0  0  0  0  0
   -5.4636   -0.3491   28.6708 C   0  0  0  0  0  0  0  0  0  0  0  0
   -4.4096    0.2293   29.3476 C   0  0  0  0  0  0  0  0  0  0  0  0
   -3.4225    0.0928   30.1086 C   0  0  0  0  0  0  0  0  0  0  0  0
   -3.3144   -1.4001   30.2778 C   0  0  0  0  0  0  0  0  0  0  0  0
   -4.2788   -2.2288   29.6691 C   0  0  0  0  0  0  0  0  0  0  0  0
   -5.3185   -1.7217   28.8831 C   0  0  0  0  0  0  0  0  0  0  0  0
   -7.9773    0.2350   24.8141 O   0  0  0  0  0  0  0  0  0  0  0  0
   -4.3684    1.8136   29.2375 F   0  0  0  0  0  0  0  0  0  0  0  0
   -6.3421   -2.6247   28.2911 C   0  0  0  0  0  0  0  0  0  0  0  0
   -6.0772   -3.5834   27.6618 N   0  0  0  0  0  0  0  0  0  0  0  0
   -5.2513   -4.1712   27.5175 C   0  0  0  0  0  0  0  0  0  0  0  0
   -5.2247   -5.3179   26.5268 C   0  0  0  0  0  0  0  0  0  0  0  0
   -7.2355   -4.3436   27.0459 C   0  0  0  0  0  0  0  0  0  0  0  0
   -6.7004   -5.2945   26.2869 C   0  0  0  0  0  0  0  0  0  0  0  0
   -7.4855   -2.3904   28.8704 O   0  0  0  0  0  0  0  0  0  0  0  0
  5  8  1  0
  8  9  1  0
  9 10  1  0
  8 17  2  0
 12 18  1  0
 16 19  1  0
 19 20  1  0
 20 21  1  0
 21 22  2  0
 20 23  1  0
 22 24  1  0
 23 24  2  0
 19 25  2  0
 10 11  1  0
  3  2  1  0
 11 12  2  0
 12 13  1  0
 13 14  2  0
 14 15  1  0
 15 16  2  0
 16 11  1  0
  1  2  2  0
  2  7  1  0
  7  6  2  0
  6  5  1  0
  5  4  2  0
  4  1  1  0
M  END
$$$$
