No_4209-complexes_sdf/6BKW-FPZ/2024-09-17-14-21-01/
     RDKit          3D

 20 20  0  0  0  0  0  0  0  0999 V2000
   -7.7129    4.2099   27.0854 C   0  0  0  0  0  0  0  0  0  0  0  0
   -8.2112    3.0637   26.9225 C   0  0  0  0  0  0  0  0  0  0  0  0
   -8.5108    5.3904   26.9436 C   0  0  0  0  0  0  0  0  0  0  0  0
   -9.7256    5.1955   26.3518 C   0  0  0  0  0  0  0  0  0  0  0  0
   -9.4995    2.8258   26.4878 C   0  0  0  0  0  0  0  0  0  0  0  0
  -10.2542    3.9691   26.2055 C   0  0  0  0  0  0  0  0  0  0  0  0
   -7.9168    6.7086   27.1908 C   0  0  0  0  0  0  0  0  0  0  0  0
   -7.3556    1.8215   27.2519 C   0  0  0  0  0  0  0  0  0  0  0  0
   -6.3308    2.1233   27.9199 F   0  0  0  0  0  0  0  0  0  0  0  0
   -8.0161    0.9294   27.9961 F   0  0  0  0  0  0  0  0  0  0  0  0
   -6.9863    1.1752   26.1042 F   0  0  0  0  0  0  0  0  0  0  0  0
   -8.5744    7.7956   26.8607 O   0  0  0  0  0  0  0  0  0  0  0  0
   -6.7685    6.8182   27.7760 O   0  0  0  0  0  0  0  0  0  0  0  0
  -11.5709    3.7916   25.6002 C   0  0  0  0  0  0  0  0  0  0  0  0
  -11.8337    3.7340   24.0841 Cl  0  0  0  0  0  0  0  0  0  0  0  0
  -12.6742    3.6983   26.5266 C   0  0  0  0  0  0  0  0  0  0  0  0
  -13.9695    3.8944   26.0730 C   0  0  0  0  0  0  0  0  0  0  0  0
  -15.0528    3.9048   27.0113 C   0  0  0  0  0  0  0  0  0  0  0  0
  -14.7618    3.7650   28.3838 C   0  0  0  0  0  0  0  0  0  0  0  0
  -13.4312    3.5974   28.8241 C   0  0  0  0  0  0  0  0  0  0  0  0
  3  7  1  0
  2  8  1  0
  8  9  1  0
  8 10  1  0
  8 11  1  0
  7 12  2  0
  7 13  1  0
  6 14  1  0
 14 15  1  0
 14 16  1  0
 16 17  2  3
 17 18  1  0
 18 19  2  3
 19 20  1  0
  1  2  2  0
  2  5  1  0
  5  6  2  0
  6  4  1  0
  4  3  2  0
  3  1  1  0
M  END
$$$$
