No_4711-complexes_sdf/6BKW-FPZ/2024-09-17-14-21-01/
     RDKit          3D

 17 19  0  0  0  0  0  0  0  0999 V2000
   -7.9040    3.9820   27.1177 C   0  0  0  0  0  0  0  0  0  0  0  0
   -8.2057    2.8231   26.8733 C   0  0  0  0  0  0  0  0  0  0  0  0
   -8.7695    5.0740   26.7916 C   0  0  0  0  0  0  0  0  0  0  0  0
   -8.4337    6.4678   27.0913 C   0  0  0  0  0  0  0  0  0  0  0  0
   -9.1945    2.4408   26.4350 C   0  0  0  0  0  0  0  0  0  0  0  0
  -10.2047    3.3522   26.0527 C   0  0  0  0  0  0  0  0  0  0  0  0
   -9.9687    4.6754   26.2340 C   0  0  0  0  0  0  0  0  0  0  0  0
   -7.8797    6.8883   28.1453 N   0  0  0  0  0  0  0  0  0  0  0  0
   -8.5265    7.3677   26.0814 N   0  0  0  0  0  0  0  0  0  0  0  0
   -7.1074    1.7550   27.3665 C   0  0  0  0  0  0  0  0  0  0  0  0
   -7.3020    0.3770   27.2441 C   0  0  0  0  0  0  0  0  0  0  0  0
   -8.5348   -0.0170   26.7036 C   0  0  0  0  0  0  0  0  0  0  0  0
   -9.4935    0.9420   26.2960 C   0  0  0  0  0  0  0  0  0  0  0  0
   -6.3109   -0.5262   27.6740 C   0  0  0  0  0  0  0  0  0  0  0  0
   -6.5239   -1.6826   28.0696 C   0  0  0  0  0  0  0  0  0  0  0  0
   -7.8946   -2.0693   28.2973 C   0  0  0  0  0  0  0  0  0  0  0  0
   -8.8740   -1.3559   27.4206 C   0  0  0  0  0  0  0  0  0  0  0  0
  3  4  1  0
  4  8  2  0
  4  9  1  0
 12 17  1  0
 17 16  2  0
 16 15  1  0
 15 14  2  0
 14 11  1  0
  1  2  2  0
  5  6  2  0
  6  7  1  0
  7  3  2  0
  3  1  1  0
  2  5  1  0
  5 13  1  0
 13 12  2  0
 12 11  1  0
 11 10  2  0
 10  2  1  0
M  END
$$$$
