No_492-complexes_sdf/6BKW-FPZ/2024-09-17-14-21-01/
     RDKit          3D

 40 44  0  0  0  0  0  0  0  0999 V2000
   -7.9040    3.9820   27.1177 C   0  0  0  0  0  0  0  0  0  0  0  0
   -8.2057    2.8231   26.8733 C   0  0  0  0  0  0  0  0  0  0  0  0
   -9.2962    2.4021   26.1155 C   0  0  0  0  0  0  0  0  0  0  0  0
   -8.7358    5.0662   26.5917 C   0  0  0  0  0  0  0  0  0  0  0  0
   -9.7618    4.7023   25.7546 C   0  0  0  0  0  0  0  0  0  0  0  0
  -10.0066    3.4105   25.4922 C   0  0  0  0  0  0  0  0  0  0  0  0
   -8.3936    6.4769   26.8843 C   0  0  0  0  0  0  0  0  0  0  0  0
   -7.6619    7.3452   26.8044 C   0  0  0  0  0  0  0  0  0  0  0  0
   -9.5344    0.9732   25.7939 C   0  0  0  0  0  0  0  0  0  0  0  0
  -10.0407    0.5646   24.9237 C   0  0  0  0  0  0  0  0  0  0  0  0
  -10.3025   -0.8576   24.6578 C   0  0  0  0  0  0  0  0  0  0  0  0
   -9.8216   -1.7318   25.6028 C   0  0  0  0  0  0  0  0  0  0  0  0
   -9.0358   -0.1177   26.7805 C   0  0  0  0  0  0  0  0  0  0  0  0
   -9.2083   -1.3089   26.7308 C   0  0  0  0  0  0  0  0  0  0  0  0
   -9.6820    6.9605   27.7407 C   0  0  0  0  0  0  0  0  0  0  0  0
   -8.8144   -2.2682   27.7910 C   0  0  0  0  0  0  0  0  0  0  0  0
   -9.5562   -2.6587   28.7464 C   0  0  0  0  0  0  0  0  0  0  0  0
   -9.0979   -3.3823   29.8826 C   0  0  0  0  0  0  0  0  0  0  0  0
   -7.7463   -3.6718   29.9373 C   0  0  0  0  0  0  0  0  0  0  0  0
   -6.8992   -3.2538   29.0015 C   0  0  0  0  0  0  0  0  0  0  0  0
   -7.3500   -2.4241   27.9324 C   0  0  0  0  0  0  0  0  0  0  0  0
   -6.4228   -1.9610   26.9507 C   0  0  0  0  0  0  0  0  0  0  0  0
   -6.3348   -1.7859   25.9113 F   0  0  0  0  0  0  0  0  0  0  0  0
   -5.1308   -2.5444   27.3124 F   0  0  0  0  0  0  0  0  0  0  0  0
  -11.0500   -2.3363   28.7702 C   0  0  1  0  0  0  0  0  0  0  0  0
  -11.4321   -1.1446   28.7881 C   0  0  0  0  0  0  0  0  0  0  0  0
  -12.8164   -0.7164   28.8293 C   0  0  0  0  0  0  0  0  0  0  0  0
  -13.1974    0.6697   28.8237 C   0  0  0  0  0  0  0  0  0  0  0  0
  -12.1961    1.6641   28.7215 C   0  0  0  0  0  0  0  0  0  0  0  0
  -10.8210    1.2353   28.7029 C   0  0  0  0  0  0  0  0  0  0  0  0
  -10.4897    0.0156   28.7156 C   0  0  0  0  0  0  0  0  0  0  0  0
  -12.5741    3.1040   28.7242 C   0  0  0  0  0  0  0  0  0  0  0  0
  -13.2570    3.5905   27.8723 C   0  0  0  0  0  0  0  0  0  0  0  0
  -12.7181    3.8830   26.6555 C   0  0  0  0  0  0  0  0  0  0  0  0
  -13.4011    4.3810   25.5171 C   0  0  0  0  0  0  0  0  0  0  0  0
  -14.7025    4.8503   25.7908 C   0  0  0  0  0  0  0  0  0  0  0  0
  -14.5806    4.1216   28.1005 C   0  0  0  0  0  0  0  0  0  0  0  0
  -15.2724    4.7739   27.0595 C   0  0  0  0  0  0  0  0  0  0  0  0
  -11.6899   -3.2374   27.6466 C   0  0  0  0  0  0  0  0  0  0  0  0
  -12.2051   -4.4491   28.1411 C   0  0  0  0  0  0  0  0  0  0  0  0
  4  7  1  0
  7  8  2  0
  3  9  1  0
  7 15  1  0
 14 16  1  0
 21 22  1  0
 22 23  1  0
 22 24  1  0
 17 25  1  0
 25 26  1  0
 29 32  1  0
 32 33  1  0
 25 39  1  6
 39 40  1  0
  1  2  2  0
  2  3  1  0
  3  6  2  0
  6  5  1  0
  5  4  2  0
  4  1  1  0
 33 34  2  0
 34 35  1  0
 35 36  2  0
 36 38  1  0
 38 37  2  0
 37 33  1  0
  9 10  2  0
 10 11  1  0
 11 12  2  0
 12 14  1  0
 14 13  2  0
 13  9  1  0
 26 27  2  0
 27 28  1  0
 28 29  2  0
 29 30  1  0
 30 31  2  0
 31 26  1  0
 16 17  1  0
 17 18  2  0
 18 19  1  0
 19 20  2  0
 20 21  1  0
 21 16  2  0
M  END
$$$$
