No_496-complexes_sdf/6BKW-FPZ/2024-09-17-14-21-01/
     RDKit          3D

 17 18  0  0  0  0  0  0  0  0999 V2000
   -7.9040    3.9820   27.1177 C   0  0  0  0  0  0  0  0  0  0  0  0
   -8.2057    2.8231   26.8733 C   0  0  0  0  0  0  0  0  0  0  0  0
   -8.7695    5.0740   26.7916 C   0  0  0  0  0  0  0  0  0  0  0  0
   -8.4337    6.4678   27.0913 C   0  0  0  0  0  0  0  0  0  0  0  0
   -9.3742    2.4311   26.2346 C   0  0  0  0  0  0  0  0  0  0  0  0
  -10.2395    3.4267   25.8887 C   0  0  0  0  0  0  0  0  0  0  0  0
   -9.9567    4.7548   26.1374 C   0  0  0  0  0  0  0  0  0  0  0  0
   -7.8881    6.8714   28.1602 N   0  0  0  0  0  0  0  0  0  0  0  0
   -8.5121    7.3815   26.1010 N   0  0  0  0  0  0  0  0  0  0  0  0
   -7.2541    1.6848   27.2895 C   0  0  1  0  0  0  0  0  0  0  0  0
   -6.1060    2.0026   27.8630 N   0  0  0  0  0  0  0  0  0  0  0  0
   -5.2487    0.9345   28.1848 C   0  0  0  0  0  0  0  0  0  0  0  0
   -5.6362   -0.3148   28.0486 C   0  0  0  0  0  0  0  0  0  0  0  0
   -7.3180    0.2831   27.2926 N   0  0  0  0  0  0  0  0  0  0  0  0
   -3.9554    1.2785   28.7466 N   0  0  0  0  0  0  0  0  0  0  0  0
   -6.8585   -0.5400   27.5678 C   0  0  0  0  0  0  0  0  0  0  0  0
   -7.2832   -1.8047   27.4855 N   0  0  0  0  0  0  0  0  0  0  0  0
  3  4  1  0
  4  8  2  0
  4  9  1  0
 10  2  1  1
 10 11  1  0
 11 12  2  0
 12 13  1  0
 10 14  1  0
 13 14  1  0
 12 15  1  0
 14 16  1  0
 16 17  1  0
  1  2  2  0
  2  5  1  0
  5  6  2  0
  6  7  1  0
  7  3  2  0
  3  1  1  0
M  END
$$$$
