No_4716-complexes_sdf/6BKW-FPZ/2024-09-17-14-21-01/
     RDKit          3D

  8  7  0  0  0  0  0  0  0  0999 V2000
   -7.7129    4.2099   27.0854 C   0  0  0  0  0  0  0  0  0  0  0  0
   -8.9133    4.4736   27.0998 C   0  0  1  0  0  0  0  0  0  0  0  0
   -9.4643    5.5426   27.7628 C   0  0  0  0  0  0  0  0  0  0  0  0
   -9.8091    3.6358   26.2841 C   0  0  0  0  0  0  0  0  0  0  0  0
  -10.5514    4.0993   25.5100 C   0  0  0  0  0  0  0  0  0  0  0  0
   -6.9715    4.9144   28.0733 N   0  0  0  0  0  0  0  0  0  0  0  0
  -11.4146    3.3111   24.7141 C   0  0  0  0  0  0  0  0  0  0  0  0
  -11.2462    1.9729   24.7680 C   0  0  0  0  0  0  0  0  0  0  0  0
  1  2  1  0
  2  3  1  6
  2  4  1  0
  4  5  2  3
  1  6  2  0
  5  7  1  0
  7  8  2  0
M  END
$$$$
