No_4731-complexes_sdf/6BKW-FPZ/2024-09-17-14-21-01/
     RDKit          3D

 12 12  0  0  0  0  0  0  0  0999 V2000
   -7.9040    3.9820   27.1177 C   0  0  0  0  0  0  0  0  0  0  0  0
   -7.8663    4.8694   27.9238 C   0  0  0  0  0  0  0  0  0  0  0  0
   -9.0953    3.1697   27.0532 C   0  0  0  0  0  0  0  0  0  0  0  0
  -10.1313    3.4052   27.8871 C   0  0  0  0  0  0  0  0  0  0  0  0
  -11.2910    2.5514   27.9289 C   0  0  0  0  0  0  0  0  0  0  0  0
   -8.9474    5.2948   28.7637 C   0  0  0  0  0  0  0  0  0  0  0  0
  -10.0608    4.4954   28.7836 C   0  0  0  0  0  0  0  0  0  0  0  0
  -11.2393    1.2655   27.9064 C   0  0  0  0  0  0  0  0  0  0  0  0
  -12.3478    0.3939   28.0479 C   0  0  0  0  0  0  0  0  0  0  0  0
  -12.2188   -1.0149   27.9988 C   0  0  0  0  0  0  0  0  0  0  0  0
  -10.9104   -1.5286   27.8240 C   0  0  0  0  0  0  0  0  0  0  0  0
   -9.8116   -0.7571   27.6909 C   0  0  0  0  0  0  0  0  0  0  0  0
  5  8  1  0
  8  9  2  3
  9 10  1  0
 10 11  2  3
 11 12  1  0
  5  4  1  0
  1  2  2  0
  2  6  1  0
  6  7  2  0
  7  4  1  0
  4  3  2  0
  3  1  1  0
M  END
$$$$
