No_4881-complexes_sdf/6BKW-FPZ/2024-09-17-14-21-01/
     RDKit          3D

 34 38  0  0  0  0  0  0  0  0999 V2000
   -7.9040    3.9820   27.1177 C   0  0  0  0  0  0  0  0  0  0  0  0
   -9.0711    4.3164   27.0630 C   0  0  0  0  0  0  0  0  0  0  0  0
   -9.5294    5.4517   27.7215 C   0  0  0  0  0  0  0  0  0  0  0  0
   -6.9328    4.7309   27.8881 C   0  0  0  0  0  0  0  0  0  0  0  0
   -7.3666    5.8455   28.5488 C   0  0  0  0  0  0  0  0  0  0  0  0
   -8.6669    6.2428   28.4199 C   0  0  0  0  0  0  0  0  0  0  0  0
   -9.8475    3.3042   26.2863 C   0  0  0  0  0  0  0  0  0  0  0  0
   -9.4184    2.1924   25.9171 C   0  0  0  0  0  0  0  0  0  0  0  0
   -8.0211    1.8453   26.2544 C   0  0  0  0  0  0  0  0  0  0  0  0
   -7.3559    2.6900   26.8277 N   0  0  0  0  0  0  0  0  0  0  0  0
   -7.6603    0.6444   25.9929 F   0  0  0  0  0  0  0  0  0  0  0  0
  -11.2801    3.7360   25.8924 C   0  0  0  0  0  0  0  0  0  0  0  0
  -11.4955    4.0810   24.6254 C   0  0  0  0  0  0  0  0  0  0  0  0
  -10.4894    4.4974   23.7324 C   0  0  0  0  0  0  0  0  0  0  0  0
  -10.7447    4.8130   22.3893 C   0  0  0  0  0  0  0  0  0  0  0  0
  -12.0391    4.6832   21.9374 C   0  0  0  0  0  0  0  0  0  0  0  0
  -12.7830    4.0062   24.1139 C   0  0  0  0  0  0  0  0  0  0  0  0
  -13.0635    4.3416   22.7849 C   0  0  0  0  0  0  0  0  0  0  0  0
  -12.2450    3.7219   26.9547 C   0  0  0  0  0  0  0  0  0  0  0  0
  -13.2138    2.8653   27.1369 C   0  0  2  0  0  0  0  0  0  0  0  0
  -13.0129    1.5719   27.0321 C   0  0  0  0  0  0  0  0  0  0  0  0
  -11.6729    1.0671   26.9741 C   0  0  0  0  0  0  0  0  0  0  0  0
  -11.2986   -0.0677   27.3237 C   0  0  0  0  0  0  0  0  0  0  0  0
  -12.2026   -0.7816   28.1768 C   0  0  0  0  0  0  0  0  0  0  0  0
  -13.5181   -0.3587   28.3360 C   0  0  0  0  0  0  0  0  0  0  0  0
  -13.8721    0.7388   27.8294 C   0  0  0  0  0  0  0  0  0  0  0  0
  -14.6167    3.3430   27.1763 C   0  0  0  0  0  0  0  0  0  0  0  0
  -14.8015    4.1450   28.3318 C   0  0  0  0  0  0  0  0  0  0  0  0
  -15.9088    4.9154   28.3884 C   0  0  0  0  0  0  0  0  0  0  0  0
  -16.0593    5.8195   29.5404 C   0  0  0  0  0  0  0  0  0  0  0  0
  -15.3628    5.5862   30.7202 C   0  0  0  0  0  0  0  0  0  0  0  0
  -14.3129    4.6543   30.6756 C   0  0  0  0  0  0  0  0  0  0  0  0
  -14.0325    3.8942   29.5018 C   0  0  0  0  0  0  0  0  0  0  0  0
  -15.4373    3.1371   26.3370 O   0  0  0  0  0  0  0  0  0  0  0  0
  9 11  1  0
  7 12  1  0
 12 13  1  0
 12 19  1  0
 20 19  1  6
 20 27  1  0
 27 28  1  0
 27 34  2  0
 20 21  1  0
  2  3  2  0
  3  6  1  0
  6  5  2  0
  5  4  1  0
  4  1  2  0
  1  2  1  0
  2  7  1  0
  7  8  2  0
  8  9  1  0
  9 10  2  0
 10  1  1  0
 13 14  2  0
 14 15  1  0
 15 16  2  0
 16 18  1  0
 18 17  2  0
 17 13  1  0
 28 29  2  0
 29 30  1  0
 30 31  2  0
 31 32  1  0
 32 33  2  0
 33 28  1  0
 21 22  2  0
 22 23  1  0
 23 24  2  0
 24 25  1  0
 25 26  2  0
 26 21  1  0
M  END
$$$$
