No_4672-complexes_sdf/6BKW-FPZ/2024-09-17-14-21-01/
     RDKit          3D

 30 33  0  0  0  0  0  0  0  0999 V2000
   -7.9040    3.9820   27.1177 C   0  0  0  0  0  0  0  0  0  0  0  0
   -8.2057    2.8231   26.8733 C   0  0  0  0  0  0  0  0  0  0  0  0
   -7.4766    1.7477   27.4593 C   0  0  0  0  0  0  0  0  0  0  0  0
   -8.7468    5.1251   26.6967 C   0  0  0  0  0  0  0  0  0  0  0  0
   -9.7234    4.8589   25.8202 C   0  0  0  0  0  0  0  0  0  0  0  0
   -9.9711    3.5858   25.4266 C   0  0  0  0  0  0  0  0  0  0  0  0
   -9.2266    2.4957   25.9600 C   0  0  0  0  0  0  0  0  0  0  0  0
   -6.1241    1.9216   27.8574 C   0  0  0  0  0  0  0  0  0  0  0  0
   -5.4248    0.7985   28.3602 C   0  0  0  0  0  0  0  0  0  0  0  0
   -5.9324   -0.4517   28.3727 C   0  0  0  0  0  0  0  0  0  0  0  0
   -7.8680    0.3890   27.4333 C   0  0  0  0  0  0  0  0  0  0  0  0
   -7.2076   -0.6217   27.9501 C   0  0  0  0  0  0  0  0  0  0  0  0
   -8.4174    6.5135   27.1003 C   0  0  0  0  0  0  0  0  0  0  0  0
   -7.2801    6.7791   27.0238 F   0  0  0  0  0  0  0  0  0  0  0  0
   -9.2080    7.4018   26.3447 F   0  0  0  0  0  0  0  0  0  0  0  0
   -8.9297    6.6468   28.3303 F   0  0  0  0  0  0  0  0  0  0  0  0
   -3.9645    1.0920   28.8108 C   0  0  0  0  0  0  0  0  0  0  0  0
   -3.0948   -0.0649   28.5477 C   0  0  0  0  0  0  0  0  0  0  0  0
   -2.3959   -0.1889   27.4546 C   0  0  0  0  0  0  0  0  0  0  0  0
   -1.5318   -1.2848   27.2248 C   0  0  0  0  0  0  0  0  0  0  0  0
   -1.3823   -2.2292   28.2431 C   0  0  0  0  0  0  0  0  0  0  0  0
   -2.8236   -1.0269   29.6257 C   0  0  0  0  0  0  0  0  0  0  0  0
   -1.9624   -2.0150   29.4986 C   0  0  0  0  0  0  0  0  0  0  0  0
   -2.5754    0.6412   26.4387 F   0  0  0  0  0  0  0  0  0  0  0  0
  -11.0440    3.3718   24.4500 C   0  0  0  0  0  0  0  0  0  0  0  0
  -10.8946    3.6952   23.1550 C   0  0  0  0  0  0  0  0  0  0  0  0
  -11.8753    3.4976   22.1507 C   0  0  0  0  0  0  0  0  0  0  0  0
  -13.0509    2.8630   22.5166 C   0  0  0  0  0  0  0  0  0  0  0  0
  -12.3169    2.8268   24.8187 C   0  0  0  0  0  0  0  0  0  0  0  0
  -13.2746    2.6005   23.8696 C   0  0  0  0  0  0  0  0  0  0  0  0
  2  3  1  0
  4 13  1  0
 13 14  1  0
 13 15  1  0
 13 16  1  0
  9 17  1  0
 17 18  1  0
 19 24  1  0
  6 25  1  0
 18 19  2  0
 19 20  1  0
 20 21  2  0
 21 23  1  0
 23 22  2  0
 22 18  1  0
  3  8  2  0
  8  9  1  0
  9 10  2  0
 10 12  1  0
 12 11  2  0
 11  3  1  0
  1  2  2  0
  2  7  1  0
  7  6  2  0
  6  5  1  0
  5  4  2  0
  4  1  1  0
 25 26  2  0
 26 27  1  0
 27 28  2  0
 28 30  1  0
 30 29  2  0
 29 25  1  0
M  END
$$$$
