No_4396-complexes_sdf/6BKW-FPZ/2024-09-17-14-21-01/
     RDKit          3D

 23 25  0  0  0  0  0  0  0  0999 V2000
   -7.2496    3.8871   27.4508 C   0  0  0  0  0  0  0  0  0  0  0  0
   -7.6161    2.7143   27.1523 C   0  0  0  0  0  0  0  0  0  0  0  0
   -8.6212    2.2239   26.4073 C   0  0  0  0  0  0  0  0  0  0  0  0
   -8.2540    4.9237   27.1711 C   0  0  0  0  0  0  0  0  0  0  0  0
   -9.3729    4.5806   26.4432 C   0  0  0  0  0  0  0  0  0  0  0  0
   -9.5830    3.2969   26.1025 C   0  0  0  0  0  0  0  0  0  0  0  0
   -7.9454    6.2273   27.5101 N   0  0  0  0  0  0  0  0  0  0  0  0
   -8.8657    0.8930   26.0612 C   0  0  0  0  0  0  0  0  0  0  0  0
   -9.2252    0.0310   26.9890 C   0  0  0  0  0  0  0  0  0  0  0  0
   -9.5082   -0.9581   27.1799 C   0  0  0  0  0  0  0  0  0  0  0  0
   -9.9370   -1.6825   28.4657 C   0  0  0  0  0  0  0  0  0  0  0  0
  -10.4380   -1.9488   29.4535 C   0  0  0  0  0  0  0  0  0  0  0  0
   -9.5030   -2.0431   26.1231 C   0  0  0  0  0  0  0  0  0  0  0  0
   -9.1128   -1.4481   24.8951 C   0  0  0  0  0  0  0  0  0  0  0  0
   -8.7309    0.0434   24.8381 C   0  0  0  0  0  0  0  0  0  0  0  0
  -11.5963   -1.8423   30.1042 C   0  0  0  0  0  0  0  0  0  0  0  0
  -11.8787   -2.4290   31.3504 C   0  0  0  0  0  0  0  0  0  0  0  0
  -10.8066   -3.0099   32.0492 C   0  0  0  0  0  0  0  0  0  0  0  0
   -9.5578   -3.1075   31.5106 C   0  0  0  0  0  0  0  0  0  0  0  0
   -9.2576   -2.6419   30.2728 C   0  0  0  0  0  0  0  0  0  0  0  0
   -9.2172   -2.2883   27.7734 S   0  0  0  0  0  0  0  0  0  0  0  0
   -9.6333   -3.7721   27.8186 O   0  0  0  0  0  0  0  0  0  0  0  0
   -7.6326   -2.4338   27.7266 O   0  0  0  0  0  0  0  0  0  0  0  0
  4  7  1  0
  3  8  1  0
 11 12  1  0
 11 21  1  0
 21 22  2  0
 21 23  2  0
 11 10  1  0
 12 16  2  0
 16 17  1  0
 17 18  2  0
 18 19  1  0
 19 20  2  0
 20 12  1  0
  1  2  2  0
  2  3  1  0
  3  6  2  0
  6  5  1  0
  5  4  2  0
  4  1  1  0
  8  9  2  0
  9 10  1  0
 10 13  2  0
 13 14  1  0
 14 15  2  0
 15  8  1  0
M  END
$$$$
