No_4305-complexes_sdf/6BKW-FPZ/2024-09-17-14-21-01/
     RDKit          3D

 10 11  0  0  0  0  0  0  0  0999 V2000
   -7.7129    4.2099   27.0854 C   0  0  0  0  0  0  0  0  0  0  0  0
   -7.7814    5.1722   27.8972 C   0  0  0  0  0  0  0  0  0  0  0  0
   -8.8998    3.8713   26.3707 C   0  0  0  0  0  0  0  0  0  0  0  0
   -9.7507    4.7502   26.0937 C   0  0  0  0  0  0  0  0  0  0  0  0
   -8.6513    6.2837   27.6564 C   0  0  0  0  0  0  0  0  0  0  0  0
   -9.7074    6.0486   26.8335 C   0  0  0  0  0  0  0  0  0  0  0  0
   -6.8085    3.0071   27.4799 C   0  0  0  0  0  0  0  0  0  0  0  0
   -7.0346    1.7587   27.0868 N   0  0  0  0  0  0  0  0  0  0  0  0
   -8.2041    1.4260   26.6658 C   0  0  0  0  0  0  0  0  0  0  0  0
   -9.1212    2.4516   26.0173 C   0  0  0  0  0  0  0  0  0  0  0  0
  1  2  2  0
  2  5  1  0
  5  6  2  0
  6  4  1  0
  4  3  2  0
  1  3  1  0
  3 10  1  0
 10  9  2  0
  9  8  1  0
  8  7  2  0
  7  1  1  0
M  END
$$$$
