No_4762-complexes_sdf/6BKW-FPZ/2024-09-17-14-21-01/
     RDKit          3D

 31 34  0  0  0  0  0  0  0  0999 V2000
   -7.7129    4.2099   27.0854 C   0  0  0  0  0  0  0  0  0  0  0  0
   -8.2112    3.0637   26.9225 C   0  0  0  0  0  0  0  0  0  0  0  0
   -9.4446    2.8304   26.1868 C   0  0  0  0  0  0  0  0  0  0  0  0
   -8.4697    5.3956   26.7238 C   0  0  0  0  0  0  0  0  0  0  0  0
   -9.6172    5.2111   25.9513 C   0  0  0  0  0  0  0  0  0  0  0  0
  -10.0424    3.9782   25.6873 C   0  0  0  0  0  0  0  0  0  0  0  0
   -7.9321    6.5759   26.9449 F   0  0  0  0  0  0  0  0  0  0  0  0
   -9.8969    1.4744   25.9401 C   0  0  0  0  0  0  0  0  0  0  0  0
   -9.5407    0.6962   25.0471 C   0  0  0  0  0  0  0  0  0  0  0  0
   -8.5247    1.2066   24.0557 C   0  0  0  0  0  0  0  0  0  0  0  0
   -8.0845    0.3508   22.9512 C   0  0  0  0  0  0  0  0  0  0  0  0
   -8.5781   -0.9254   22.8154 C   0  0  0  0  0  0  0  0  0  0  0  0
   -9.5732   -1.4038   23.7153 C   0  0  0  0  0  0  0  0  0  0  0  0
   -9.9498   -0.6285   24.7384 C   0  0  0  0  0  0  0  0  0  0  0  0
  -10.8819    1.0609   26.9332 C   0  0  0  0  0  0  0  0  0  0  0  0
  -10.8328    0.7133   28.1048 C   0  0  0  0  0  0  0  0  0  0  0  0
  -12.2428    1.5031   26.4970 C   0  0  0  0  0  0  0  0  0  0  0  0
  -13.3183    0.9136   27.0642 C   0  0  0  0  0  0  0  0  0  0  0  0
  -11.8339    0.2003   28.9721 C   0  0  0  0  0  0  0  0  0  0  0  0
  -13.1321    0.4073   28.4470 C   0  0  0  0  0  0  0  0  0  0  0  0
  -14.3078   -0.0861   29.2092 C   0  0  0  0  0  0  0  0  0  0  0  0
  -15.1903   -0.5840   28.7574 C   0  0  0  0  0  0  0  0  0  0  0  0
  -16.3765   -1.0200   29.5438 C   0  0  0  0  0  0  0  0  0  0  0  0
  -17.4869   -1.6099   29.0038 C   0  0  0  0  0  0  0  0  0  0  0  0
  -16.0252   -0.9239   31.0359 C   0  0  0  0  0  0  0  0  0  0  0  0
  -14.9424   -0.3685   31.5226 C   0  0  0  0  0  0  0  0  0  0  0  0
  -13.9619    0.0865   30.7112 C   0  0  0  0  0  0  0  0  0  0  0  0
  -17.7042   -1.6618   27.8593 C   0  0  0  0  0  0  0  0  0  0  0  0
  -18.8979   -2.1345   27.2617 C   0  0  0  0  0  0  0  0  0  0  0  0
  -19.8343   -2.6212   28.1356 C   0  0  0  0  0  0  0  0  0  0  0  0
  -19.6206   -2.5856   29.4760 C   0  0  0  0  0  0  0  0  0  0  0  0
  4  7  1  0
  3  8  1  0
  8 15  1  0
 20 21  1  0
 24 28  1  0
 28 29  1  0
 29 30  2  3
 30 31  1  0
  8  9  1  0
 24 23  1  0
  1  2  2  0
  2  3  1  0
  3  6  2  0
  6  5  1  0
  5  4  2  0
  4  1  1  0
 21 22  2  0
 22 23  1  0
 23 25  2  0
 25 26  1  0
 26 27  2  0
 27 21  1  0
  9 10  2  0
 10 11  1  0
 11 12  2  0
 12 13  1  0
 13 14  2  0
 14  9  1  0
 15 16  2  0
 16 19  1  0
 19 20  2  0
 20 18  1  0
 18 17  2  0
 17 15  1  0
M  END
$$$$
