No_4585-complexes_sdf/6BKW-FPZ/2024-09-17-14-21-01/
     RDKit          3D

 21 24  0  0  0  0  0  0  0  0999 V2000
   -7.7129    4.2099   27.0854 C   0  0  0  0  0  0  0  0  0  0  0  0
   -7.7814    5.1722   27.8972 C   0  0  0  0  0  0  0  0  0  0  0  0
   -8.7889    3.2468   27.2220 C   0  0  0  0  0  0  0  0  0  0  0  0
   -9.8671    3.4455   28.0317 C   0  0  0  0  0  0  0  0  0  0  0  0
   -8.9592    5.6476   28.6200 C   0  0  0  0  0  0  0  0  0  0  0  0
   -9.9658    4.7049   28.7257 C   0  0  0  0  0  0  0  0  0  0  0  0
   -8.6796    1.9137   26.5491 C   0  0  0  0  0  0  0  0  0  0  0  0
   -9.5426    1.4882   25.7433 C   0  0  0  0  0  0  0  0  0  0  0  0
  -10.7004    2.3465   25.4545 C   0  0  2  0  0  0  0  0  0  0  0  0
  -10.8429    2.8311   24.3423 C   0  0  0  0  0  0  0  0  0  0  0  0
  -11.9604    3.7681   24.0174 C   0  0  0  0  0  0  0  0  0  0  0  0
  -12.7966    4.1158   25.0467 C   0  0  0  0  0  0  0  0  0  0  0  0
  -12.5956    3.6425   26.2932 C   0  0  2  0  0  0  0  0  0  0  0  0
  -11.5277    2.8005   26.5585 C   0  0  2  0  0  0  0  0  0  0  0  0
  -11.0925    3.3666   27.2344 C   0  0  1  0  0  0  0  0  0  0  0  0
  -12.1136    4.1609   28.2101 O   0  0  0  0  0  0  0  0  0  0  0  0
  -13.8237    3.7165   27.0605 C   0  0  0  0  0  0  0  0  0  0  0  0
  -13.3892    4.4019   28.0163 C   0  0  0  0  0  0  0  0  0  0  0  0
  -12.0852    1.4084   26.9180 C   0  0  0  0  0  0  0  0  0  0  0  0
  -12.4799    0.3941   26.1599 C   0  0  0  0  0  0  0  0  0  0  0  0
  -13.0699   -0.7526   26.6813 C   0  0  0  0  0  0  0  0  0  0  0  0
  3  7  1  0
  7  8  2  0
  8  9  1  0
 10 11  1  0
 13 12  1  6
  9 14  1  0
 13 14  1  0
  4 15  1  0
 14 15  1  0
 15 16  1  1
 13 17  1  0
 16 18  1  0
 17 18  2  0
 14 19  1  1
 19 20  2  3
 20 21  1  0
  9 10  1  1
 11 12  1  0
  1  2  2  0
  2  5  1  0
  5  6  2  0
  6  4  1  0
  4  3  2  0
  3  1  1  0
M  END
$$$$
