No_4062-complexes_sdf/6BKW-FPZ/2024-09-17-14-21-01/
     RDKit          3D

 19 20  0  0  0  0  0  0  0  0999 V2000
   -7.7129    4.2099   27.0854 C   0  0  0  0  0  0  0  0  0  0  0  0
   -8.2112    3.0637   26.9225 C   0  0  0  0  0  0  0  0  0  0  0  0
   -9.4446    2.8304   26.1868 C   0  0  0  0  0  0  0  0  0  0  0  0
   -8.4697    5.3956   26.7238 C   0  0  0  0  0  0  0  0  0  0  0  0
   -8.0091    6.7588   26.9904 C   0  0  0  0  0  0  0  0  0  0  0  0
  -10.1208    3.9213   25.7408 C   0  0  0  0  0  0  0  0  0  0  0  0
   -9.5939    5.2026   25.9665 C   0  0  0  0  0  0  0  0  0  0  0  0
   -8.5631    7.8134   26.5724 O   0  0  0  0  0  0  0  0  0  0  0  0
   -7.2387    6.8283   28.1576 O   0  0  0  0  0  0  0  0  0  0  0  0
   -7.4584    1.8141   27.3693 C   0  0  0  0  0  0  0  0  0  0  0  0
   -6.2050    1.9226   27.7739 N   0  0  0  0  0  0  0  0  0  0  0  0
   -5.5141    0.7876   28.1774 C   0  0  0  0  0  0  0  0  0  0  0  0
   -6.1393   -0.4000   28.0856 C   0  0  0  0  0  0  0  0  0  0  0  0
   -7.8758    0.4783   27.3627 C   0  0  0  0  0  0  0  0  0  0  0  0
   -7.3519   -0.5522   27.7629 C   0  0  0  0  0  0  0  0  0  0  0  0
   -4.1478    1.0512   28.5345 N   0  0  0  0  0  0  0  0  0  0  0  0
   -3.1982    0.7660   28.2187 C   0  0  0  0  0  0  0  0  0  0  0  0
   -2.5369   -0.5146   28.7861 C   0  0  0  0  0  0  0  0  0  0  0  0
   -2.5936    1.0871   26.9002 C   0  0  0  0  0  0  0  0  0  0  0  0
  4  5  1  0
  5  8  2  0
  5  9  1  0
  2 10  1  0
 12 16  1  0
 16 17  1  0
 17 18  1  0
 17 19  1  0
  1  2  2  0
  2  3  1  0
  3  6  2  0
  6  7  1  0
  7  4  2  0
  4  1  1  0
 10 11  2  0
 11 12  1  0
 12 13  2  0
 13 15  1  0
 15 14  2  0
 14 10  1  0
M  END
$$$$
