No_4123-complexes_sdf/6BKW-FPZ/2024-09-17-14-21-01/
     RDKit          3D

 20 22  0  0  0  0  0  0  0  0999 V2000
   -7.7129    4.2099   27.0854 C   0  0  0  0  0  0  0  0  0  0  0  0
   -8.9133    4.4736   27.0998 C   0  0  0  0  0  0  0  0  0  0  0  0
   -9.4643    5.5426   27.7628 C   0  0  0  0  0  0  0  0  0  0  0  0
   -9.8091    3.6358   26.2841 C   0  0  0  0  0  0  0  0  0  0  0  0
   -9.4101    2.5938   25.7918 C   0  0  0  0  0  0  0  0  0  0  0  0
   -7.2117    2.8025   27.0233 C   0  0  0  0  0  0  0  0  0  0  0  0
   -8.0840    2.0107   26.1875 C   0  0  0  0  0  0  0  0  0  0  0  0
  -10.2572    1.6092   25.0883 C   0  0  0  0  0  0  0  0  0  0  0  0
  -10.5265    1.9968   23.8307 C   0  0  0  0  0  0  0  0  0  0  0  0
  -10.0780    3.3072   23.3435 C   0  0  0  0  0  0  0  0  0  0  0  0
  -10.4225    3.7852   22.0542 C   0  0  0  0  0  0  0  0  0  0  0  0
  -10.1490    5.1067   21.6748 C   0  0  0  0  0  0  0  0  0  0  0  0
  -10.6777    2.8381   21.0446 C   0  0  0  0  0  0  0  0  0  0  0  0
  -11.0454    3.3175   19.7587 C   0  0  0  0  0  0  0  0  0  0  0  0
  -10.9118    4.6183   19.4388 C   0  0  0  0  0  0  0  0  0  0  0  0
  -10.5059    5.5225   20.4184 C   0  0  0  0  0  0  0  0  0  0  0  0
   -6.8945    4.9102   28.1233 N   0  0  0  0  0  0  0  0  0  0  0  0
   -9.4404    6.7309   27.0746 C   0  0  0  0  0  0  0  0  0  0  0  0
  -11.2980    1.1981   22.9231 C   0  0  0  0  0  0  0  0  0  0  0  0
  -11.2048    1.5094   21.4694 C   0  0  0  0  0  0  0  0  0  0  0  0
  2  3  1  0
  5  8  1  0
  1 17  1  0
  3 18  1  0
  8  9  1  0
  1  2  2  0
  2  4  1  0
  4  5  2  0
  5  7  1  0
  7  6  2  0
  6  1  1  0
 11 12  2  0
 12 16  1  0
 16 15  2  0
 15 14  1  0
 14 13  2  0
  9 10  2  0
 10 11  1  0
 11 13  1  0
 13 20  1  0
 20 19  2  0
 19  9  1  0
M  END
$$$$
