No_4810-complexes_sdf/6BKW-FPZ/2024-09-17-14-21-01/
     RDKit          3D

 23 25  0  0  0  0  0  0  0  0999 V2000
   -7.2496    3.8871   27.4508 C   0  0  0  0  0  0  0  0  0  0  0  0
   -7.6161    2.7143   27.1523 C   0  0  0  0  0  0  0  0  0  0  0  0
   -8.8302    2.4659   26.5056 C   0  0  0  0  0  0  0  0  0  0  0  0
   -8.1584    5.0090   27.3234 C   0  0  0  0  0  0  0  0  0  0  0  0
   -9.3788    4.7965   26.7695 C   0  0  0  0  0  0  0  0  0  0  0  0
   -9.7028    3.5649   26.3276 C   0  0  0  0  0  0  0  0  0  0  0  0
   -6.7182    1.5519   27.3631 C   0  0  0  0  0  0  0  0  0  0  0  0
   -5.4694    1.7365   28.0694 C   0  0  0  0  0  0  0  0  0  0  0  0
   -4.6099    0.6493   28.2636 C   0  0  0  0  0  0  0  0  0  0  0  0
   -5.0409   -0.6158   27.9742 C   0  0  0  0  0  0  0  0  0  0  0  0
   -7.0634    0.2198   27.1421 C   0  0  0  0  0  0  0  0  0  0  0  0
   -6.3148   -0.8059   27.4599 C   0  0  0  0  0  0  0  0  0  0  0  0
   -7.6973    6.3702   27.7855 C   0  0  0  0  0  0  0  0  0  0  0  0
   -3.4286    0.9242   28.8420 F   0  0  0  0  0  0  0  0  0  0  0  0
  -10.9844    3.3512   25.6207 C   0  0  0  0  0  0  0  0  0  0  0  0
  -12.0956    2.9634   26.2627 C   0  0  0  0  0  0  0  0  0  0  0  0
  -11.0566    3.5193   24.1950 C   0  0  0  0  0  0  0  0  0  0  0  0
  -12.1274    3.4446   23.4701 C   0  0  0  0  0  0  0  0  0  0  0  0
  -13.3242    2.8592   25.5735 C   0  0  0  0  0  0  0  0  0  0  0  0
  -13.3369    3.1423   24.1901 C   0  0  0  0  0  0  0  0  0  0  0  0
   -7.3941    7.0426   26.9023 F   0  0  0  0  0  0  0  0  0  0  0  0
   -6.4561    6.1709   28.5182 F   0  0  0  0  0  0  0  0  0  0  0  0
   -8.6650    6.8003   28.5030 F   0  0  0  0  0  0  0  0  0  0  0  0
  2  7  1  0
  4 13  1  0
  9 14  1  0
  6 15  1  0
 13 21  1  0
 13 22  1  0
 13 23  1  0
  7  8  2  0
  8  9  1  0
  9 10  2  0
 10 12  1  0
 12 11  2  0
 11  7  1  0
  1  2  2  0
  2  3  1  0
  3  6  2  0
  6  5  1  0
  5  4  2  0
  4  1  1  0
 15 16  2  0
 16 19  1  0
 19 20  2  0
 20 18  1  0
 18 17  2  0
 17 15  1  0
M  END
$$$$
