No_441-complexes_sdf/6BKW-FPZ/2024-09-17-14-21-01/
     RDKit          3D

 28 30  0  0  0  0  0  0  0  0999 V2000
   -7.9040    3.9820   27.1177 C   0  0  0  0  0  0  0  0  0  0  0  0
   -8.2057    2.8231   26.8733 C   0  0  0  0  0  0  0  0  0  0  0  0
   -9.2962    2.4021   26.1155 C   0  0  0  0  0  0  0  0  0  0  0  0
   -6.8682    4.5169   28.0704 C   0  0  2  0  0  0  0  0  0  0  0  0
  -10.0578    3.3688   25.5520 C   0  0  0  0  0  0  0  0  0  0  0  0
   -9.6997    4.7480   25.6981 C   0  0  0  0  0  0  0  0  0  0  0  0
   -8.6783    5.1111   26.5262 C   0  0  0  0  0  0  0  0  0  0  0  0
  -11.1704    3.0677   24.6150 C   0  0  0  0  0  0  0  0  0  0  0  0
  -12.3590    2.8658   25.1091 C   0  0  0  0  0  0  0  0  0  0  0  0
  -12.5741    2.9240   26.5581 C   0  0  0  0  0  0  0  0  0  0  0  0
  -11.7095    3.0675   27.4229 C   0  0  0  0  0  0  0  0  0  0  0  0
  -12.0177    3.1370   28.8869 C   0  0  0  0  0  0  0  0  0  0  0  0
  -13.3397    3.0481   29.3079 C   0  0  0  0  0  0  0  0  0  0  0  0
  -14.3163    2.9788   28.3102 C   0  0  0  0  0  0  0  0  0  0  0  0
  -14.0233    2.9492   27.0114 C   0  0  0  0  0  0  0  0  0  0  0  0
   -7.0043    5.6381   28.6705 N   0  0  0  0  0  0  0  0  0  0  0  0
   -5.8425    3.7736   28.0490 F   0  0  0  0  0  0  0  0  0  0  0  0
  -10.8756    3.0311   23.2293 C   0  0  0  0  0  0  0  0  0  0  0  0
  -11.5609    2.9419   22.2703 C   0  0  0  0  0  0  0  0  0  0  0  0
  -11.1593    2.8892   20.8863 C   0  0  2  0  0  0  0  0  0  0  0  0
  -11.9310    2.7204   19.7781 C   0  0  0  0  0  0  0  0  0  0  0  0
  -11.4377    2.4105   18.5800 C   0  0  0  0  0  0  0  0  0  0  0  0
  -12.3247    2.1405   17.5563 C   0  0  0  0  0  0  0  0  0  0  0  0
  -13.6900    2.2563   17.7177 C   0  0  0  0  0  0  0  0  0  0  0  0
  -14.1749    2.6358   18.8991 C   0  0  0  0  0  0  0  0  0  0  0  0
  -13.3533    2.8723   19.9825 C   0  0  0  0  0  0  0  0  0  0  0  0
   -9.6652    2.9417   20.8193 C   0  0  0  0  0  0  0  0  0  0  0  0
  -13.7157    3.1341   30.9940 Cl  0  0  0  0  0  0  0  0  0  0  0  0
  1  4  1  0
  5  8  1  0
  8  9  2  3
  9 10  1  0
  4 16  1  6
  4 17  1  0
  8 18  1  0
 18 19  2  3
 19 20  1  0
 20 21  1  0
 20 27  1  1
 13 28  1  0
 21 22  2  0
 22 23  1  0
 23 24  2  0
 24 25  1  0
 25 26  2  0
 26 21  1  0
 10 11  2  0
 11 12  1  0
 12 13  2  0
 13 14  1  0
 14 15  2  0
 15 10  1  0
  1  2  2  0
  2  3  1  0
  3  5  2  0
  5  6  1  0
  6  7  2  0
  7  1  1  0
M  END
$$$$
