No_4684-complexes_sdf/6BKW-FPZ/2024-09-17-14-21-01/
     RDKit          3D

 16 17  0  0  0  0  0  0  0  0999 V2000
   -7.7129    4.2099   27.0854 C   0  0  0  0  0  0  0  0  0  0  0  0
   -8.2112    3.0637   26.9225 C   0  0  0  0  0  0  0  0  0  0  0  0
   -9.4446    2.8304   26.1868 C   0  0  0  0  0  0  0  0  0  0  0  0
   -8.4697    5.3956   26.7238 C   0  0  0  0  0  0  0  0  0  0  0  0
   -9.5563    5.2213   26.2062 C   0  0  0  0  0  0  0  0  0  0  0  0
  -10.0878    4.0183   25.8507 C   0  0  0  0  0  0  0  0  0  0  0  0
   -7.7914    6.9139   27.1922 Cl  0  0  0  0  0  0  0  0  0  0  0  0
   -7.4376    1.8128   27.3040 C   0  0  0  0  0  0  0  0  0  0  0  0
   -6.1093    1.9556   27.7626 C   0  0  0  0  0  0  0  0  0  0  0  0
   -5.3530    0.8035   28.1761 C   0  0  0  0  0  0  0  0  0  0  0  0
   -5.9699   -0.4382   28.0770 C   0  0  0  0  0  0  0  0  0  0  0  0
   -8.0589    0.5329   27.2927 C   0  0  0  0  0  0  0  0  0  0  0  0
   -7.3127   -0.5398   27.7348 C   0  0  0  0  0  0  0  0  0  0  0  0
   -3.9703    0.9847   28.6046 C   0  0  0  0  0  0  0  0  0  0  0  0
   -3.2168    1.4184   27.9359 O   0  0  0  0  0  0  0  0  0  0  0  0
   -3.7007    0.5350   29.8618 O   0  0  0  0  0  0  0  0  0  0  0  0
  4  7  1  0
  2  8  1  0
 10 14  1  0
 14 15  2  0
 14 16  1  0
  1  2  2  0
  2  3  1  0
  3  6  2  0
  6  5  1  0
  5  4  2  0
  4  1  1  0
  8  9  2  0
  9 10  1  0
 10 11  2  0
 11 13  1  0
 13 12  2  0
 12  8  1  0
M  END
$$$$
