No_4514-complexes_sdf/6BKW-FPZ/2024-09-17-14-21-01/
     RDKit          3D

 18 20  0  0  0  0  0  0  0  0999 V2000
   -7.7129    4.2099   27.0854 C   0  0  0  0  0  0  0  0  0  0  0  0
   -8.9133    4.4736   27.0998 C   0  0  0  0  0  0  0  0  0  0  0  0
   -9.7135    3.9633   26.0300 C   0  0  0  0  0  0  0  0  0  0  0  0
   -6.8655    4.8824   28.1822 C   0  0  0  0  0  0  0  0  0  0  0  0
  -10.8856    4.5824   25.6430 C   0  0  0  0  0  0  0  0  0  0  0  0
   -7.2976    5.7414   28.7932 N   0  0  0  0  0  0  0  0  0  0  0  0
  -11.5915    4.0156   24.5772 C   0  0  0  0  0  0  0  0  0  0  0  0
  -11.0867    2.9688   23.8488 C   0  0  0  0  0  0  0  0  0  0  0  0
   -9.9286    2.4171   24.2135 C   0  0  0  0  0  0  0  0  0  0  0  0
   -9.1923    2.9625   25.2909 C   0  0  0  0  0  0  0  0  0  0  0  0
   -9.2893    5.5781   27.9399 C   0  0  0  0  0  0  0  0  0  0  0  0
   -8.4996    6.2027   28.7670 C   0  0  0  0  0  0  0  0  0  0  0  0
   -9.3712    1.2543   23.4693 C   0  0  0  0  0  0  0  0  0  0  0  0
   -8.4392    0.4156   24.0224 C   0  0  0  0  0  0  0  0  0  0  0  0
   -7.8765   -0.6297   23.2481 C   0  0  0  0  0  0  0  0  0  0  0  0
   -8.3415   -0.8321   21.9267 C   0  0  0  0  0  0  0  0  0  0  0  0
   -9.6879    0.9739   22.1734 C   0  0  0  0  0  0  0  0  0  0  0  0
   -9.2220    0.0084   21.4256 C   0  0  0  0  0  0  0  0  0  0  0  0
  9 13  1  0
  3  2  1  0
  1  2  2  0
  2 11  1  0
 11 12  2  0
 12  6  1  0
  6  4  2  0
  4  1  1  0
 13 14  2  0
 14 15  1  0
 15 16  2  0
 16 18  1  0
 18 17  2  0
 17 13  1  0
  3  5  2  0
  5  7  1  0
  7  8  2  0
  8  9  1  0
  9 10  2  0
 10  3  1  0
M  END
$$$$
