No_4861-complexes_sdf/6BKW-FPZ/2024-09-17-14-21-01/
     RDKit          3D

  8  8  0  0  0  0  0  0  0  0999 V2000
   -7.7129    4.2099   27.0854 C   0  0  0  0  0  0  0  0  0  0  0  0
   -7.7814    5.1722   27.8972 C   0  0  0  0  0  0  0  0  0  0  0  0
   -7.2983    2.9533   27.5684 C   0  0  1  0  0  0  0  0  0  0  0  0
   -6.9398    2.0472   26.9820 C   0  0  0  0  0  0  0  0  0  0  0  0
   -6.2939    0.9312   27.6216 C   0  0  0  0  0  0  0  0  0  0  0  0
   -5.7596    1.4771   28.7427 C   0  0  0  0  0  0  0  0  0  0  0  0
   -6.0715    2.8706   28.5850 C   0  0  0  0  0  0  0  0  0  0  0  0
   -8.4866    6.4753   27.6503 C   0  0  0  0  0  0  0  0  0  0  0  0
  1  2  2  3
  1  3  1  0
  3  4  1  0
  4  5  2  0
  5  6  1  0
  3  7  1  1
  6  7  1  0
  2  8  1  0
M  END
$$$$
