No_4603-complexes_sdf/6BKW-FPZ/2024-09-17-14-21-01/
     RDKit          3D

 13 13  0  0  0  0  0  0  0  0999 V2000
   -7.7129    4.2099   27.0854 C   0  0  0  0  0  0  0  0  0  0  0  0
   -8.9133    4.4736   27.0998 C   0  0  0  0  0  0  0  0  0  0  0  0
   -9.7937    3.7368   26.2091 C   0  0  0  0  0  0  0  0  0  0  0  0
   -6.8266    5.0441   28.0594 C   0  0  0  0  0  0  0  0  0  0  0  0
   -9.2322    2.6276   25.6126 C   0  0  0  0  0  0  0  0  0  0  0  0
   -7.9794    2.1924   25.9863 C   0  0  0  0  0  0  0  0  0  0  0  0
   -7.2411    2.9387   26.9009 C   0  0  0  0  0  0  0  0  0  0  0  0
  -10.0894    1.7793   24.7540 C   0  0  0  0  0  0  0  0  0  0  0  0
  -11.2577    1.9644   25.0517 F   0  0  0  0  0  0  0  0  0  0  0  0
   -9.6934    0.5096   24.8481 F   0  0  0  0  0  0  0  0  0  0  0  0
   -9.7939    1.9544   23.4578 F   0  0  0  0  0  0  0  0  0  0  0  0
   -5.9008    4.6335   28.5731 F   0  0  0  0  0  0  0  0  0  0  0  0
   -7.1136    6.3114   28.0413 F   0  0  0  0  0  0  0  0  0  0  0  0
  1  4  1  0
  5  8  1  0
  8  9  1  0
  8 10  1  0
  8 11  1  0
  4 12  1  0
  4 13  1  0
  1  2  2  0
  2  3  1  0
  3  5  2  0
  5  6  1  0
  6  7  2  0
  7  1  1  0
M  END
$$$$
