No_4934-complexes_sdf/6BKW-FPZ/2024-09-17-14-21-01/
     RDKit          3D

 12 12  0  0  0  0  0  0  0  0999 V2000
   -7.7129    4.2099   27.0854 C   0  0  0  0  0  0  0  0  0  0  0  0
   -8.9133    4.4736   27.0998 C   0  0  0  0  0  0  0  0  0  0  0  0
   -9.7135    3.9633   26.0300 C   0  0  0  0  0  0  0  0  0  0  0  0
   -7.1708    2.9509   26.6517 C   0  0  0  0  0  0  0  0  0  0  0  0
   -8.1422    2.1350   26.0104 C   0  0  0  0  0  0  0  0  0  0  0  0
   -9.3363    2.7131   25.6563 C   0  0  0  0  0  0  0  0  0  0  0  0
   -9.4685    5.5728   27.5303 F   0  0  0  0  0  0  0  0  0  0  0  0
   -7.7260    0.8117   25.5841 C   0  0  0  0  0  0  0  0  0  0  0  0
   -8.0347    0.4870   24.4608 F   0  0  0  0  0  0  0  0  0  0  0  0
   -8.3794   -0.0779   26.5436 F   0  0  0  0  0  0  0  0  0  0  0  0
   -6.4733    0.4807   25.8433 F   0  0  0  0  0  0  0  0  0  0  0  0
   -6.7729    4.8937   28.1500 C   0  0  0  0  0  0  0  0  0  0  0  0
  2  7  1  0
  5  8  1  0
  8  9  1  0
  8 10  1  0
  8 11  1  0
  1 12  1  0
  1  2  2  0
  2  3  1  0
  3  6  2  0
  6  5  1  0
  5  4  2  0
  4  1  1  0
M  END
$$$$
