No_4040-complexes_sdf/6BKW-FPZ/2024-09-17-14-21-01/
     RDKit          3D

 17 19  0  0  0  0  0  0  0  0999 V2000
   -7.7129    4.2099   27.0854 C   0  0  0  0  0  0  0  0  0  0  0  0
   -7.7814    5.1722   27.8972 C   0  0  0  0  0  0  0  0  0  0  0  0
   -8.8998    3.8713   26.3707 C   0  0  0  0  0  0  0  0  0  0  0  0
   -9.9938    4.6774   26.5446 C   0  0  0  0  0  0  0  0  0  0  0  0
   -8.7789    6.1536   27.9256 C   0  0  0  0  0  0  0  0  0  0  0  0
   -9.9428    5.8398   27.2296 C   0  0  0  0  0  0  0  0  0  0  0  0
   -8.9119    2.6447   25.5685 C   0  0  0  0  0  0  0  0  0  0  0  0
   -9.7335    1.6985   26.0442 C   0  0  0  0  0  0  0  0  0  0  0  0
  -10.6205    1.6022   26.6867 C   0  0  0  0  0  0  0  0  0  0  0  0
  -11.2241    2.7776   27.3831 C   0  0  0  0  0  0  0  0  0  0  0  0
  -10.9720    4.0656   27.1711 C   0  0  0  0  0  0  0  0  0  0  0  0
   -9.2339    0.3031   25.4002 C   0  0  0  0  0  0  0  0  0  0  0  0
   -8.6430    0.1045   24.5718 C   0  0  0  0  0  0  0  0  0  0  0  0
   -8.2728   -1.1588   23.9768 C   0  0  0  0  0  0  0  0  0  0  0  0
   -8.6782   -2.2625   24.6231 C   0  0  0  0  0  0  0  0  0  0  0  0
   -9.6218   -0.9708   26.0502 C   0  0  0  0  0  0  0  0  0  0  0  0
   -9.3516   -2.1337   25.6832 C   0  0  0  0  0  0  0  0  0  0  0  0
  3  7  1  0
  7  8  1  0
  8  9  2  0
  9 10  1  0
  4 11  1  0
 10 11  2  0
  8 12  1  0
 12 13  2  0
 13 14  1  0
 14 15  2  0
 15 17  1  0
 17 16  2  0
 16 12  1  0
  1  2  2  0
  2  5  1  0
  5  6  2  0
  6  4  1  0
  4  3  2  0
  3  1  1  0
M  END
$$$$
