No_4614-complexes_sdf/6BKW-FPZ/2024-09-17-14-21-01/
     RDKit          3D

 22 25  0  0  0  0  0  0  0  0999 V2000
   -7.9040    3.9820   27.1177 C   0  0  0  0  0  0  0  0  0  0  0  0
   -8.2057    2.8231   26.8733 C   0  0  0  0  0  0  0  0  0  0  0  0
   -9.2962    2.4021   26.1155 C   0  0  0  0  0  0  0  0  0  0  0  0
   -8.7358    5.0662   26.5917 C   0  0  0  0  0  0  0  0  0  0  0  0
   -9.7618    4.7023   25.7546 C   0  0  0  0  0  0  0  0  0  0  0  0
  -10.0066    3.4105   25.4922 C   0  0  0  0  0  0  0  0  0  0  0  0
   -8.6256    6.4768   26.9069 C   0  0  0  0  0  0  0  0  0  0  0  0
   -8.0572    7.5107   27.0640 N   0  0  0  0  0  0  0  0  0  0  0  0
   -9.5133    0.9577   25.8502 C   0  0  0  0  0  0  0  0  0  0  0  0
   -8.6476    0.2008   25.5109 C   0  0  0  0  0  0  0  0  0  0  0  0
   -8.4970   -0.9073   25.2273 C   0  0  0  0  0  0  0  0  0  0  0  0
   -7.2852   -1.6910   24.8479 C   0  0  0  0  0  0  0  0  0  0  0  0
   -6.0621   -1.0060   24.9359 C   0  0  0  0  0  0  0  0  0  0  0  0
   -6.0751    0.2752   25.4075 C   0  0  0  0  0  0  0  0  0  0  0  0
   -7.1552    0.8880   25.6829 C   0  0  0  0  0  0  0  0  0  0  0  0
   -7.1575    2.1161   26.3720 N   0  0  0  0  0  0  0  0  0  0  0  0
  -10.4195    0.5231   26.9678 C   0  0  0  0  0  0  0  0  0  0  0  0
  -11.7238    0.6316   26.8351 C   0  0  0  0  0  0  0  0  0  0  0  0
  -12.5386    0.2883   27.9574 C   0  0  0  0  0  0  0  0  0  0  0  0
  -11.9755   -0.5758   28.9537 C   0  0  0  0  0  0  0  0  0  0  0  0
  -10.6289   -0.8789   28.9452 C   0  0  0  0  0  0  0  0  0  0  0  0
   -9.7943   -0.3272   27.9585 C   0  0  0  0  0  0  0  0  0  0  0  0
  4  7  1  0
  7  8  3  0
  9 17  1  0
 17 18  2  0
 18 19  1  0
 19 20  2  0
 20 21  1  0
 21 22  2  0
 22 17  1  0
  1  2  2  0
  3  6  2  0
  6  5  1  0
  5  4  2  0
  4  1  1  0
  2  3  1  0
  3  9  1  0
  9 10  2  0
 15 16  2  0
 16  2  1  0
 10 11  1  0
 11 12  2  0
 12 13  1  0
 13 14  2  0
 14 15  1  0
 15 10  1  0
M  END
$$$$
