No_4830-complexes_sdf/6BKW-FPZ/2024-09-17-14-21-01/
     RDKit          3D

 17 18  0  0  0  0  0  0  0  0999 V2000
   -7.9040    3.9820   27.1177 C   0  0  0  0  0  0  0  0  0  0  0  0
   -7.8663    4.8694   27.9238 C   0  0  0  0  0  0  0  0  0  0  0  0
   -9.0953    3.1697   27.0532 C   0  0  0  0  0  0  0  0  0  0  0  0
  -10.1313    3.4052   27.8871 C   0  0  0  0  0  0  0  0  0  0  0  0
   -8.9489    5.3814   28.6671 C   0  0  0  0  0  0  0  0  0  0  0  0
  -10.1039    4.5714   28.7102 C   0  0  0  0  0  0  0  0  0  0  0  0
   -9.0505    1.9437   26.1963 C   0  0  0  0  0  0  0  0  0  0  0  0
   -9.5005    2.1052   24.8742 C   0  0  0  0  0  0  0  0  0  0  0  0
   -9.9312    3.3875   24.4459 C   0  0  0  0  0  0  0  0  0  0  0  0
  -10.3822    3.6514   23.1384 C   0  0  0  0  0  0  0  0  0  0  0  0
  -10.3188    2.6403   22.1953 C   0  0  0  0  0  0  0  0  0  0  0  0
   -9.8205    1.3502   22.6075 C   0  0  0  0  0  0  0  0  0  0  0  0
   -9.4007    1.1541   23.8946 C   0  0  0  0  0  0  0  0  0  0  0  0
   -8.5918    0.7191   26.6828 C   0  0  0  0  0  0  0  0  0  0  0  0
   -7.2744    0.4166   26.9184 C   0  0  0  0  0  0  0  0  0  0  0  0
   -6.7963   -0.7472   27.4760 C   0  0  0  0  0  0  0  0  0  0  0  0
   -7.7717   -1.7106   27.8381 C   0  0  0  0  0  0  0  0  0  0  0  0
  3  7  1  0
  7  8  1  0
  7 14  1  0
 14 15  2  3
 15 16  1  0
 16 17  2  0
  8  9  2  0
  9 10  1  0
 10 11  2  0
 11 12  1  0
 12 13  2  0
 13  8  1  0
  1  2  2  0
  2  5  1  0
  5  6  2  0
  6  4  1  0
  4  3  2  0
  3  1  1  0
M  END
$$$$
