No_4552-complexes_sdf/6BKW-FPZ/2024-09-17-14-21-01/
     RDKit          3D

 22 22  0  0  0  0  0  0  0  0999 V2000
   -7.9040    3.9820   27.1177 C   0  0  0  0  0  0  0  0  0  0  0  0
   -8.2057    2.8231   26.8733 C   0  0  0  0  0  0  0  0  0  0  0  0
   -8.7695    5.0740   26.7916 C   0  0  0  0  0  0  0  0  0  0  0  0
   -9.9618    4.7598   26.1630 C   0  0  0  0  0  0  0  0  0  0  0  0
   -9.4200    2.4524   26.2849 C   0  0  0  0  0  0  0  0  0  0  0  0
  -10.2590    3.4815   25.9250 C   0  0  0  0  0  0  0  0  0  0  0  0
   -8.3840    6.4693   27.0829 C   0  0  0  0  0  0  0  0  0  0  0  0
   -7.7453    6.8270   28.1334 N   0  0  0  0  0  0  0  0  0  0  0  0
   -8.8431    7.4339   26.3634 O   0  0  0  0  0  0  0  0  0  0  0  0
   -7.2735    1.6676   27.2781 C   0  0  0  0  0  0  0  0  0  0  0  0
   -7.6103    0.3870   27.1791 N   0  0  0  0  0  0  0  0  0  0  0  0
   -6.2170    1.9484   27.9532 O   0  0  0  0  0  0  0  0  0  0  0  0
   -6.7614   -0.7198   27.6183 C   0  0  0  0  0  0  0  0  0  0  0  0
   -5.5797   -0.6300   27.7706 C   0  0  0  0  0  0  0  0  0  0  0  0
   -4.7263   -0.4665   26.8527 N   0  0  0  0  0  0  0  0  0  0  0  0
   -3.6884   -1.3145   26.6827 C   0  0  0  0  0  0  0  0  0  0  0  0
   -7.5085   -1.9390   27.7967 C   0  0  0  0  0  0  0  0  0  0  0  0
   -7.2097   -2.7354   28.4782 C   0  0  0  0  0  0  0  0  0  0  0  0
   -7.9425   -3.9699   28.7442 C   0  0  0  0  0  0  0  0  0  0  0  0
   -9.1125   -4.1217   28.0072 C   0  0  0  0  0  0  0  0  0  0  0  0
   -9.5228   -3.1509   27.1337 C   0  0  0  0  0  0  0  0  0  0  0  0
   -8.7993   -2.0294   27.0464 C   0  0  0  0  0  0  0  0  0  0  0  0
  3  7  1  0
  7  8  1  0
  7  9  2  0
  2 10  1  0
 10 11  1  0
 10 12  2  0
 11 13  1  0
 13 14  1  0
 14 15  1  0
 15 16  1  0
 13 17  1  0
 17 18  2  3
 18 19  1  0
 19 20  2  3
 20 21  1  0
 21 22  2  0
  1  2  2  0
  2  5  1  0
  5  6  2  0
  6  4  1  0
  4  3  2  0
  3  1  1  0
M  END
$$$$
