No_4350-complexes_sdf/6BKW-FPZ/2024-09-17-14-21-01/
     RDKit          3D

 12 13  0  0  0  0  0  0  0  0999 V2000
   -7.7129    4.2099   27.0854 C   0  0  0  0  0  0  0  0  0  0  0  0
   -7.7814    5.1722   27.8972 C   0  0  0  0  0  0  0  0  0  0  0  0
   -8.8998    3.8713   26.3707 C   0  0  0  0  0  0  0  0  0  0  0  0
   -9.7416    3.2213   26.9591 C   0  0  0  0  0  0  0  0  0  0  0  0
  -10.9346    2.8300   26.3222 C   0  0  0  0  0  0  0  0  0  0  0  0
   -8.9415    5.3908   28.6307 N   0  0  0  0  0  0  0  0  0  0  0  0
  -10.0482    4.4114   28.3034 C   0  0  0  0  0  0  0  0  0  0  0  0
  -11.2805    1.7744   26.2130 C   0  0  0  0  0  0  0  0  0  0  0  0
  -12.4603    1.2366   25.4657 C   0  0  0  0  0  0  0  0  0  0  0  0
  -13.1733    2.2224   24.8437 C   0  0  0  0  0  0  0  0  0  0  0  0
  -12.7985    3.5691   24.9254 C   0  0  0  0  0  0  0  0  0  0  0  0
  -11.6747    3.9836   25.6651 C   0  0  0  0  0  0  0  0  0  0  0  0
  4  5  1  0
  5  8  2  0
  8  9  1  0
  9 10  2  0
 10 11  1  0
 11 12  2  0
 12  5  1  0
  1  2  2  0
  2  6  1  0
  6  7  2  0
  7  4  1  0
  4  3  2  0
  3  1  1  0
M  END
$$$$
