No_4924-complexes_sdf/6BKW-FPZ/2024-09-17-14-21-01/
     RDKit          3D

 11 11  0  0  0  0  0  0  0  0999 V2000
   -7.9040    3.9820   27.1177 C   0  0  1  0  0  0  0  0  0  0  0  0
   -9.0711    4.3164   27.0630 C   0  0  1  0  0  0  0  0  0  0  0  0
   -9.5294    5.4517   27.7215 C   0  0  0  0  0  0  0  0  0  0  0  0
   -9.9845    3.5634   26.2189 C   0  0  0  0  0  0  0  0  0  0  0  0
   -9.6295    2.5733   25.6121 C   0  0  0  0  0  0  0  0  0  0  0  0
   -6.9226    4.6383   28.0851 C   0  0  0  0  0  0  0  0  0  0  0  0
   -8.7450    1.6589   26.1522 C   0  0  0  0  0  0  0  0  0  0  0  0
   -7.5511    2.3838   26.8169 C   0  0  0  0  0  0  0  0  0  0  0  0
  -10.0563    2.1207   24.2871 C   0  0  0  0  0  0  0  0  0  0  0  0
  -10.6163    3.0966   23.4079 C   0  0  0  0  0  0  0  0  0  0  0  0
  -11.5648    3.0125   22.9096 C   0  0  0  0  0  0  0  0  0  0  0  0
  1  2  1  0
  2  3  1  6
  2  4  1  0
  4  5  1  0
  1  6  1  1
  5  7  1  0
  1  8  1  0
  7  8  1  0
  5  9  1  0
  9 10  1  0
 10 11  2  0
M  END
$$$$
