No_4126-complexes_sdf/6BKW-FPZ/2024-09-17-14-21-01/
     RDKit          3D

 27 29  0  0  0  0  0  0  0  0999 V2000
   -7.2496    3.8871   27.4508 C   0  0  0  0  0  0  0  0  0  0  0  0
   -8.5096    4.0291   27.2770 C   0  0  0  0  0  0  0  0  0  0  0  0
   -9.2677    5.1714   27.5773 C   0  0  0  0  0  0  0  0  0  0  0  0
   -9.2765    2.8248   26.8371 C   0  0  0  0  0  0  0  0  0  0  0  0
   -8.6731    1.7312   26.5464 C   0  0  0  0  0  0  0  0  0  0  0  0
   -6.5350    2.6522   27.3724 C   0  0  0  0  0  0  0  0  0  0  0  0
   -5.1312    2.5258   27.7704 C   0  0  0  0  0  0  0  0  0  0  0  0
   -7.2381    1.5492   26.9619 C   0  0  0  0  0  0  0  0  0  0  0  0
   -9.2347    6.2084   26.7103 C   0  0  0  0  0  0  0  0  0  0  0  0
   -4.5161    1.3383   27.8445 O   0  0  0  0  0  0  0  0  0  0  0  0
   -8.5966    7.4623   27.1512 C   0  0  0  0  0  0  0  0  0  0  0  0
   -9.3203    5.9379   25.3596 C   0  0  0  0  0  0  0  0  0  0  0  0
   -4.7296    3.4530   28.6971 O   0  0  0  0  0  0  0  0  0  0  0  0
   -9.3043    0.5046   26.1491 C   0  0  1  0  0  0  0  0  0  0  0  0
  -10.3711    0.0919   26.7277 C   0  0  0  0  0  0  0  0  0  0  0  0
  -10.4390   -0.5151   27.5882 C   0  0  0  0  0  0  0  0  0  0  0  0
  -11.6771   -0.8976   28.4614 C   0  0  0  0  0  0  0  0  0  0  0  0
  -12.8336   -0.3108   28.0740 C   0  0  0  0  0  0  0  0  0  0  0  0
  -12.8426    0.5087   27.0013 C   0  0  0  0  0  0  0  0  0  0  0  0
  -11.6749    0.8089   26.3764 C   0  0  0  0  0  0  0  0  0  0  0  0
   -9.3687    0.1203   24.6541 C   0  0  0  0  0  0  0  0  0  0  0  0
   -9.0934   -0.8383   24.2439 C   0  0  0  0  0  0  0  0  0  0  0  0
   -9.0977   -1.1611   22.8231 C   0  0  0  0  0  0  0  0  0  0  0  0
   -9.4158   -0.1064   21.9097 C   0  0  0  0  0  0  0  0  0  0  0  0
   -9.5996    1.1778   22.4258 C   0  0  0  0  0  0  0  0  0  0  0  0
   -9.5743    1.3965   23.8080 C   0  0  0  0  0  0  0  0  0  0  0  0
  -14.0061    1.0345   26.6009 F   0  0  0  0  0  0  0  0  0  0  0  0
  2  3  1  0
  6  7  1  0
  3  9  1  0
  7 10  2  0
  9 11  2  0
  9 12  1  0
  7 13  1  0
 14  5  1  6
 14 15  1  0
 14 21  1  0
 19 27  1  0
 15 16  2  0
 16 17  1  0
 17 18  2  0
 18 19  1  0
 19 20  2  0
 20 15  1  0
  1  2  2  0
  2  4  1  0
  4  5  2  0
  5  8  1  0
  8  6  2  0
  6  1  1  0
 21 22  2  0
 22 23  1  0
 23 24  2  0
 24 25  1  0
 25 26  2  0
 26 21  1  0
M  END
$$$$
