No_4575-complexes_sdf/6BKW-FPZ/2024-09-17-14-21-01/
     RDKit          3D

 40 45  0  0  0  0  0  0  0  0999 V2000
   -7.9040    3.9820   27.1177 C   0  0  0  0  0  0  0  0  0  0  0  0
   -8.2057    2.8231   26.8733 C   0  0  0  0  0  0  0  0  0  0  0  0
   -7.4766    1.7477   27.4593 C   0  0  0  0  0  0  0  0  0  0  0  0
   -8.7468    5.1251   26.6967 C   0  0  0  0  0  0  0  0  0  0  0  0
   -8.4775    6.4967   27.1056 C   0  0  0  0  0  0  0  0  0  0  0  0
   -6.1172    2.0790   27.8378 C   0  0  0  0  0  0  0  0  0  0  0  0
   -5.7594    3.4209   27.9937 C   0  0  0  0  0  0  0  0  0  0  0  0
   -6.5892    4.3873   27.6368 C   0  0  0  0  0  0  0  0  0  0  0  0
   -9.6836    4.9131   25.6602 C   0  0  0  0  0  0  0  0  0  0  0  0
   -5.2365    0.9812   28.2910 C   0  0  0  0  0  0  0  0  0  0  0  0
   -3.9822    1.2174   28.7605 C   0  0  0  0  0  0  0  0  0  0  0  0
   -5.5570   -0.3698   27.9027 C   0  0  0  0  0  0  0  0  0  0  0  0
   -4.7334   -1.4132   28.2900 C   0  0  0  0  0  0  0  0  0  0  0  0
   -3.1425    0.1770   29.2097 C   0  0  0  0  0  0  0  0  0  0  0  0
   -3.5424   -1.1542   28.9407 C   0  0  0  0  0  0  0  0  0  0  0  0
  -10.0683    4.0196   25.0451 C   0  0  0  0  0  0  0  0  0  0  0  0
  -10.8644    4.0361   23.8690 C   0  0  0  0  0  0  0  0  0  0  0  0
  -11.6828    3.1196   23.5267 C   0  0  0  0  0  0  0  0  0  0  0  0
  -11.4336    1.8464   24.0371 C   0  0  0  0  0  0  0  0  0  0  0  0
  -10.5817    1.6147   25.0676 C   0  0  0  0  0  0  0  0  0  0  0  0
   -9.8612    2.7323   25.5747 C   0  0  0  0  0  0  0  0  0  0  0  0
   -8.9030    2.4367   26.4383 N   0  0  0  0  0  0  0  0  0  0  0  0
   -9.4173    1.0445   27.1109 C   0  0  0  0  0  0  0  0  0  0  0  0
   -8.1429    0.6642   27.4695 N   0  0  0  0  0  0  0  0  0  0  0  0
   -2.6281   -2.2564   29.3477 C   0  0  2  0  0  0  0  0  0  0  0  0
   -1.5807   -2.0775   29.6046 C   0  0  0  0  0  0  0  0  0  0  0  0
   -0.4481   -2.0322   29.1967 C   0  0  0  0  0  0  0  0  0  0  0  0
   -0.2688   -2.3139   27.7526 C   0  0  1  0  0  0  0  0  0  0  0  0
   -0.8468   -1.7116   26.9124 N   0  0  0  0  0  0  0  0  0  0  0  0
   -1.3031   -2.2656   25.6801 C   0  0  0  0  0  0  0  0  0  0  0  0
   -1.0041   -3.5069   25.4366 C   0  0  0  0  0  0  0  0  0  0  0  0
   -1.6139   -4.1454   24.3835 C   0  0  0  0  0  0  0  0  0  0  0  0
    1.2057   -2.4497   27.2823 C   0  0  0  0  0  0  0  0  0  0  0  0
   -3.0994   -3.5573   29.0537 C   0  0  0  0  0  0  0  0  0  0  0  0
   -3.5221   -4.1836   30.2277 C   0  0  0  0  0  0  0  0  0  0  0  0
   -4.0154   -5.4965   30.1112 C   0  0  0  0  0  0  0  0  0  0  0  0
   -1.0816   -5.3059   23.9102 C   0  0  0  0  0  0  0  0  0  0  0  0
   -0.0729   -5.9366   24.5879 C   0  0  0  0  0  0  0  0  0  0  0  0
    0.5607   -5.3451   25.5960 C   0  0  0  0  0  0  0  0  0  0  0  0
    0.1695   -4.1290   25.9898 C   0  0  0  0  0  0  0  0  0  0  0  0
  1  4  1  0
  4  5  2  0
  4  9  1  0
  6 10  1  0
  9 16  1  0
  2 22  1  0
 21 22  1  0
 22 23  1  0
  3 24  1  0
 23 24  2  0
 15 25  1  0
 25 26  1  0
 26 27  2  3
 27 28  1  0
 28 29  1  0
 29 30  1  0
 30 31  1  0
 28 33  1  6
 25 34  1  6
 34 35  1  0
 35 36  2  0
 31 32  2  0
 32 37  1  0
 37 38  2  0
 38 39  1  0
 39 40  2  0
 40 31  1  0
 10 11  2  0
 11 14  1  0
 14 15  2  0
 15 13  1  0
 13 12  2  0
 12 10  1  0
  1  2  2  0
  2  3  1  0
  3  6  2  0
  6  7  1  0
  7  8  2  0
  8  1  1  0
 16 17  2  0
 17 18  1  0
 18 19  2  0
 19 20  1  0
 20 21  2  0
 21 16  1  0
M  END
$$$$
