No_4357-complexes_sdf/6BKW-FPZ/2024-09-17-14-21-01/
     RDKit          3D

 30 33  0  0  0  0  0  0  0  0999 V2000
   -7.9040    3.9820   27.1177 C   0  0  0  0  0  0  0  0  0  0  0  0
   -7.8663    4.8694   27.9238 C   0  0  0  0  0  0  0  0  0  0  0  0
   -7.4698    2.6989   27.4277 C   0  0  0  0  0  0  0  0  0  0  0  0
   -7.9683    1.5964   26.8266 C   0  0  0  0  0  0  0  0  0  0  0  0
   -8.9447    1.7923   25.8533 C   0  0  0  0  0  0  0  0  0  0  0  0
   -9.4364    2.8303   25.8181 C   0  0  0  0  0  0  0  0  0  0  0  0
   -8.9859    4.0656   26.3129 C   0  0  0  0  0  0  0  0  0  0  0  0
   -8.3028    6.2081   27.6375 N   0  0  0  0  0  0  0  0  0  0  0  0
   -9.2246    6.4815   26.6948 C   0  0  0  0  0  0  0  0  0  0  0  0
   -9.6366    5.3269   26.0040 C   0  0  0  0  0  0  0  0  0  0  0  0
   -7.2890    0.2567   27.0585 C   0  0  0  0  0  0  0  0  0  0  0  0
   -6.0135    0.1898   27.5683 C   0  0  0  0  0  0  0  0  0  0  0  0
   -5.3791   -0.9565   27.8392 C   0  0  0  0  0  0  0  0  0  0  0  0
   -6.0955   -2.1293   27.6325 C   0  0  0  0  0  0  0  0  0  0  0  0
   -7.7822   -1.0059   26.8874 C   0  0  0  0  0  0  0  0  0  0  0  0
   -9.2616   -0.9394   26.3863 C   0  0  1  0  0  0  0  0  0  0  0  0
   -7.2745   -2.1225   27.1710 C   0  0  0  0  0  0  0  0  0  0  0  0
   -9.9845   -2.1104   26.4747 C   0  0  0  0  0  0  0  0  0  0  0  0
   -9.9793    0.1953   26.5973 C   0  0  0  0  0  0  0  0  0  0  0  0
   -9.1123    0.8392   25.2017 N   0  0  0  0  0  0  0  0  0  0  0  0
   -9.8140   -2.9573   25.3677 C   0  0  0  0  0  0  0  0  0  0  0  0
  -10.8847   -2.5469   27.4774 C   0  0  0  0  0  0  0  0  0  0  0  0
   -9.1976   -2.6698   24.3124 C   0  0  0  0  0  0  0  0  0  0  0  0
   -9.0519   -3.5611   23.1927 C   0  0  0  0  0  0  0  0  0  0  0  0
   -8.3822   -3.2027   22.0298 C   0  0  0  0  0  0  0  0  0  0  0  0
   -8.2948   -3.9557   20.9611 C   0  0  0  0  0  0  0  0  0  0  0  0
  -11.0712   -1.6969   28.5459 C   0  0  0  0  0  0  0  0  0  0  0  0
  -11.9451   -2.0558   29.6251 C   0  0  0  0  0  0  0  0  0  0  0  0
  -12.4833   -3.2172   29.6222 C   0  0  0  0  0  0  0  0  0  0  0  0
  -12.2858   -4.1043   28.5401 C   0  0  0  0  0  0  0  0  0  0  0  0
  4 11  1  0
 15 16  1  0
 16 18  1  1
 16 19  1  0
  5 20  1  0
 19 20  1  0
 18 21  1  0
 18 22  1  0
 21 23  2  3
 23 24  1  0
 24 25  2  3
 25 26  1  0
 22 27  2  3
 27 28  1  0
 28 29  2  3
 29 30  1  0
  1  2  2  0
  2  8  1  0
  8  9  2  0
  9 10  1  0
 10  7  2  0
 11 12  2  0
 12 13  1  0
 13 14  2  0
 14 17  1  0
 17 15  2  0
 15 11  1  0
  1  3  1  0
  3  4  2  0
  4  5  1  0
  5  6  2  0
  6  7  1  0
  7  1  1  0
M  END
$$$$
