No_4566-complexes_sdf/6BKW-FPZ/2024-09-17-14-21-01/
     RDKit          3D

 24 27  0  0  0  0  0  0  0  0999 V2000
   -7.9040    3.9820   27.1177 C   0  0  0  0  0  0  0  0  0  0  0  0
   -9.0711    4.3164   27.0630 C   0  0  0  0  0  0  0  0  0  0  0  0
   -9.5182    5.5541   27.5777 C   0  0  0  0  0  0  0  0  0  0  0  0
   -6.9424    4.7983   27.8424 C   0  0  0  0  0  0  0  0  0  0  0  0
   -7.3526    5.9739   28.3909 C   0  0  0  0  0  0  0  0  0  0  0  0
  -10.9067    5.9601   27.4615 C   0  0  0  0  0  0  0  0  0  0  0  0
   -8.6208    6.3347   28.1969 C   0  0  0  0  0  0  0  0  0  0  0  0
  -10.1050    3.4484   26.4057 C   0  0  0  0  0  0  0  0  0  0  0  0
  -11.2648    3.5777   26.4961 C   0  0  0  0  0  0  0  0  0  0  0  0
  -11.8297    4.9542   26.9786 C   0  0  0  0  0  0  0  0  0  0  0  0
   -9.5850    2.2301   25.7352 C   0  0  2  0  0  0  0  0  0  0  0  0
   -9.7784    2.1611   24.3186 C   0  0  0  0  0  0  0  0  0  0  0  0
  -10.2411    3.2047   23.6317 C   0  0  0  0  0  0  0  0  0  0  0  0
  -10.4915    3.1503   22.2374 C   0  0  0  0  0  0  0  0  0  0  0  0
  -10.0433    1.9614   21.5995 C   0  0  0  0  0  0  0  0  0  0  0  0
   -9.3974    1.0551   23.5649 C   0  0  0  0  0  0  0  0  0  0  0  0
   -9.4974    0.9650   22.2429 C   0  0  0  0  0  0  0  0  0  0  0  0
   -9.0478    1.1612   26.4921 C   0  0  0  0  0  0  0  0  0  0  0  0
   -9.8203    0.1001   26.9343 C   0  0  0  0  0  0  0  0  0  0  0  0
  -10.8573    0.4169   27.7703 C   0  0  0  0  0  0  0  0  0  0  0  0
  -11.6767   -0.5391   28.4290 C   0  0  0  0  0  0  0  0  0  0  0  0
  -11.2889   -1.8794   28.2361 C   0  0  0  0  0  0  0  0  0  0  0  0
  -10.2186   -2.2214   27.5021 C   0  0  0  0  0  0  0  0  0  0  0  0
   -9.4244   -1.2500   26.8841 C   0  0  0  0  0  0  0  0  0  0  0  0
  8 11  1  0
 11 12  1  0
 11 18  1  1
 18 19  1  0
 12 13  2  0
 13 14  1  0
 14 15  2  0
 15 17  1  0
 17 16  2  0
 16 12  1  0
  1  2  2  0
  3  7  2  0
  7  5  1  0
  5  4  2  0
  4  1  1  0
  2  3  1  0
  3  6  1  0
  6 10  2  0
 10  9  1  0
  9  8  2  0
  8  2  1  0
 19 20  2  0
 20 21  1  0
 21 22  2  0
 22 23  1  0
 23 24  2  0
 24 19  1  0
M  END
$$$$
