No_4457-complexes_sdf/6BKW-FPZ/2024-09-17-14-21-01/
     RDKit          3D

 19 21  0  0  0  0  0  0  0  0999 V2000
   -7.9040    3.9820   27.1177 C   0  0  0  0  0  0  0  0  0  0  0  0
   -7.8663    4.8694   27.9238 C   0  0  0  0  0  0  0  0  0  0  0  0
   -9.0491    3.8523   26.2542 C   0  0  0  0  0  0  0  0  0  0  0  0
   -8.7661    5.9491   27.9690 C   0  0  0  0  0  0  0  0  0  0  0  0
   -9.1798    2.6731   25.4786 C   0  0  0  0  0  0  0  0  0  0  0  0
   -9.8964    5.8854   27.1460 C   0  0  0  0  0  0  0  0  0  0  0  0
   -9.9958    4.8034   26.3470 C   0  0  0  0  0  0  0  0  0  0  0  0
  -10.0251    2.6919   24.3447 C   0  0  0  0  0  0  0  0  0  0  0  0
  -10.8464    3.8605   24.2296 C   0  0  0  0  0  0  0  0  0  0  0  0
  -10.9196    4.7789   25.1976 C   0  0  0  0  0  0  0  0  0  0  0  0
  -11.8544    3.8028   23.1416 C   0  0  2  0  0  0  0  0  0  0  0  0
  -11.3912    4.0784   21.9666 C   0  0  0  0  0  0  0  0  0  0  0  0
  -13.2017    3.7203   23.3876 C   0  0  0  0  0  0  0  0  0  0  0  0
  -13.6871    3.5976   24.6319 C   0  0  0  0  0  0  0  0  0  0  0  0
  -15.0653    3.6322   24.9383 C   0  0  0  0  0  0  0  0  0  0  0  0
  -15.5241    3.4102   26.2789 C   0  0  0  0  0  0  0  0  0  0  0  0
  -14.5776    3.3337   27.3070 C   0  0  0  0  0  0  0  0  0  0  0  0
  -13.2004    3.4058   27.0803 C   0  0  0  0  0  0  0  0  0  0  0  0
  -12.7883    3.5307   25.8565 C   0  0  0  0  0  0  0  0  0  0  0  0
  9 11  1  0
 11 12  1  1
 11 13  1  0
 13 14  1  0
  3  5  2  0
  5  8  1  0
  8  9  2  0
  9 10  1  0
 10  7  2  0
 14 15  2  0
 15 16  1  0
 16 17  2  0
 17 18  1  0
 18 19  2  0
 19 14  1  0
  1  2  2  0
  2  4  1  0
  4  6  2  0
  6  7  1  0
  7  3  1  0
  3  1  1  0
M  END
$$$$
