No_4574-complexes_sdf/6BKW-FPZ/2024-09-17-14-21-01/
     RDKit          3D

 29 32  0  0  0  0  0  0  0  0999 V2000
   -7.9040    3.9820   27.1177 C   0  0  0  0  0  0  0  0  0  0  0  0
   -7.8663    4.8694   27.9238 C   0  0  0  0  0  0  0  0  0  0  0  0
   -9.0501    3.8017   26.2617 C   0  0  0  0  0  0  0  0  0  0  0  0
  -10.0189    4.7608   26.3707 C   0  0  0  0  0  0  0  0  0  0  0  0
   -8.6973    5.9722   27.8968 C   0  0  0  0  0  0  0  0  0  0  0  0
   -9.8216    5.8946   27.1241 C   0  0  0  0  0  0  0  0  0  0  0  0
   -9.1445    2.6271   25.4265 C   0  0  0  0  0  0  0  0  0  0  0  0
   -8.6427    1.4143   25.8470 C   0  0  0  0  0  0  0  0  0  0  0  0
   -8.7182    0.2943   25.0299 C   0  0  0  0  0  0  0  0  0  0  0  0
   -9.2896    0.4616   23.7674 C   0  0  0  0  0  0  0  0  0  0  0  0
   -9.7777    1.6912   23.3100 C   0  0  0  0  0  0  0  0  0  0  0  0
   -9.6729    2.7693   24.1474 C   0  0  0  0  0  0  0  0  0  0  0  0
   -9.3862   -0.7424   22.8405 C   0  0  2  0  0  0  0  0  0  0  0  0
  -10.3724   -1.6236   23.1815 C   0  0  0  0  0  0  0  0  0  0  0  0
  -11.0242   -1.8374   23.9494 C   0  0  0  0  0  0  0  0  0  0  0  0
  -11.8867   -2.3888   24.5143 C   0  0  0  0  0  0  0  0  0  0  0  0
  -12.8009   -2.7724   25.3459 C   0  0  0  0  0  0  0  0  0  0  0  0
  -13.4638   -2.8228   26.3212 C   0  0  0  0  0  0  0  0  0  0  0  0
  -14.1680   -2.9635   27.2910 C   0  0  0  0  0  0  0  0  0  0  0  0
   -8.0052   -1.0797   22.6433 C   0  0  2  0  0  0  0  0  0  0  0  0
   -9.7794    0.0082   21.4010 C   0  0  0  0  0  0  0  0  0  0  0  0
  -10.1699    1.6729   21.9796 C   0  0  0  0  0  0  0  0  0  0  0  0
   -7.6439   -2.1880   21.7859 C   0  0  0  0  0  0  0  0  0  0  0  0
   -8.1652   -2.6069   20.9186 C   0  0  0  0  0  0  0  0  0  0  0  0
   -7.6897   -3.5811   19.9526 C   0  0  0  0  0  0  0  0  0  0  0  0
   -6.3943   -3.9635   20.1593 C   0  0  0  0  0  0  0  0  0  0  0  0
   -5.6137   -3.4893   21.1405 C   0  0  0  0  0  0  0  0  0  0  0  0
   -6.1189   -2.5203   21.9762 C   0  0  0  0  0  0  0  0  0  0  0  0
   -7.0155   -0.7026   23.5668 N   0  0  0  0  0  0  0  0  0  0  0  0
  3  7  1  0
 10 13  1  0
 13 14  1  0
 14 15  2  3
 15 16  1  0
 16 17  2  3
 17 18  1  0
 18 19  3  0
 13 20  1  0
 13 21  1  6
 11 22  1  0
 21 22  1  0
 20 29  1  1
 20 23  1  0
 23 24  2  0
 24 25  1  0
 25 26  2  0
 26 27  1  0
 27 28  2  0
 28 23  1  0
  1  2  2  0
  2  5  1  0
  5  6  2  0
  6  4  1  0
  4  3  2  0
  3  1  1  0
  7  8  2  0
  8  9  1  0
  9 10  2  0
 10 11  1  0
 11 12  2  0
 12  7  1  0
M  END
$$$$
