No_4578-complexes_sdf/6BKW-FPZ/2024-09-17-14-21-01/
     RDKit          3D

 20 22  0  0  0  0  0  0  0  0999 V2000
   -7.9040    3.9820   27.1177 C   0  0  0  0  0  0  0  0  0  0  0  0
   -7.8663    4.8694   27.9238 C   0  0  0  0  0  0  0  0  0  0  0  0
   -9.0501    3.8017   26.2617 C   0  0  0  0  0  0  0  0  0  0  0  0
  -10.0189    4.7608   26.3707 C   0  0  0  0  0  0  0  0  0  0  0  0
   -8.6973    5.9722   27.8968 C   0  0  0  0  0  0  0  0  0  0  0  0
   -9.8216    5.8946   27.1241 C   0  0  0  0  0  0  0  0  0  0  0  0
   -9.1445    2.6271   25.4265 C   0  0  0  0  0  0  0  0  0  0  0  0
  -10.1480    1.8402   25.6891 C   0  0  0  0  0  0  0  0  0  0  0  0
  -10.1535    0.6589   25.0443 C   0  0  0  0  0  0  0  0  0  0  0  0
   -9.6967    0.2384   24.2142 C   0  0  0  0  0  0  0  0  0  0  0  0
   -8.6185    1.2068   23.6023 C   0  0  0  0  0  0  0  0  0  0  0  0
   -8.3258    2.3353   24.3588 C   0  0  0  0  0  0  0  0  0  0  0  0
   -6.9730    2.9357   27.1711 O   0  0  0  0  0  0  0  0  0  0  0  0
   -6.6096    2.3517   28.3619 C   0  0  0  0  0  0  0  0  0  0  0  0
   -5.4265    1.3429   27.9423 C   0  0  0  0  0  0  0  0  0  0  0  0
   -5.8371   -0.0083   27.8783 C   0  0  0  0  0  0  0  0  0  0  0  0
   -5.0175   -0.7920   27.2896 C   0  0  0  0  0  0  0  0  0  0  0  0
   -3.6381   -0.4634   27.0163 C   0  0  0  0  0  0  0  0  0  0  0  0
   -3.2555    0.8772   27.2067 C   0  0  0  0  0  0  0  0  0  0  0  0
   -4.1900    1.7871   27.6425 C   0  0  0  0  0  0  0  0  0  0  0  0
  3  7  1  0
  1 13  1  0
 13 14  1  0
 14 15  1  0
 15 16  2  0
 16 17  1  0
 17 18  2  0
 18 19  1  0
 19 20  2  0
 20 15  1  0
  1  2  2  0
  2  5  1  0
  5  6  2  0
  6  4  1  0
  4  3  2  0
  3  1  1  0
  7  8  2  0
  8  9  1  0
  9 10  2  0
 10 11  1  0
 11 12  2  0
 12  7  1  0
M  END
$$$$
