No_4600-complexes_sdf/6BKW-FPZ/2024-09-17-14-21-01/
     RDKit          3D

 17 18  0  0  0  0  0  0  0  0999 V2000
   -7.7129    4.2099   27.0854 C   0  0  0  0  0  0  0  0  0  0  0  0
   -7.7814    5.1722   27.8972 C   0  0  0  0  0  0  0  0  0  0  0  0
   -8.8776    3.8408   26.3416 C   0  0  0  0  0  0  0  0  0  0  0  0
   -9.9844    4.6492   26.4743 C   0  0  0  0  0  0  0  0  0  0  0  0
   -8.8033    6.1375   27.8728 C   0  0  0  0  0  0  0  0  0  0  0  0
   -9.9554    5.8280   27.1736 C   0  0  0  0  0  0  0  0  0  0  0  0
   -8.8746    2.3672   25.4134 P   0  0  2  0  0  0  0  0  0  0  0  0
   -7.7014    1.6670   25.7024 O   0  0  0  0  0  0  0  0  0  0  0  0
   -8.8310    2.7720   23.9674 O   0  0  0  0  0  0  0  0  0  0  0  0
  -10.1865    1.6776   25.7196 O   0  0  0  0  0  0  0  0  0  0  0  0
  -10.6249    1.3113   26.8697 C   0  0  0  0  0  0  0  0  0  0  0  0
  -11.8023    0.6074   26.8952 C   0  0  0  0  0  0  0  0  0  0  0  0
  -12.2917    0.2277   28.1716 C   0  0  0  0  0  0  0  0  0  0  0  0
  -13.4126   -0.5583   28.2622 C   0  0  0  0  0  0  0  0  0  0  0  0
  -14.0575   -0.9709   27.1197 C   0  0  0  0  0  0  0  0  0  0  0  0
  -13.5604   -0.6225   25.9117 C   0  0  0  0  0  0  0  0  0  0  0  0
  -12.4256    0.1446   25.8474 C   0  0  0  0  0  0  0  0  0  0  0  0
  3  7  1  0
  7  8  1  1
  7  9  2  0
  7 10  1  0
 10 11  1  0
 11 12  1  0
 12 13  2  0
 13 14  1  0
 14 15  2  0
 15 16  1  0
 16 17  2  0
 17 12  1  0
  1  2  2  0
  2  5  1  0
  5  6  2  0
  6  4  1  0
  4  3  2  0
  3  1  1  0
M  END
$$$$
