No_4087-complexes_sdf/6BKW-FPZ/2024-09-17-14-21-01/
     RDKit          3D

 24 25  0  0  0  0  0  0  0  0999 V2000
   -7.9040    3.9820   27.1177 C   0  0  0  0  0  0  0  0  0  0  0  0
   -8.2057    2.8231   26.8733 C   0  0  0  0  0  0  0  0  0  0  0  0
   -7.4766    1.7477   27.4593 C   0  0  0  0  0  0  0  0  0  0  0  0
   -6.7221    4.3631   27.8544 C   0  0  0  0  0  0  0  0  0  0  0  0
   -7.8124    0.3771   27.2172 C   0  0  0  0  0  0  0  0  0  0  0  0
   -5.8392    3.2900   28.1527 C   0  0  0  0  0  0  0  0  0  0  0  0
   -6.2223    1.9928   27.9988 C   0  0  0  0  0  0  0  0  0  0  0  0
   -9.1951    0.0420   27.4276 C   0  0  0  0  0  0  0  0  0  0  0  0
   -9.6043   -1.3101   27.4179 C   0  0  0  0  0  0  0  0  0  0  0  0
   -8.6313   -2.2585   27.2292 C   0  0  0  0  0  0  0  0  0  0  0  0
   -7.0191   -0.7715   27.1966 C   0  0  0  0  0  0  0  0  0  0  0  0
   -7.3535   -1.9734   27.1471 C   0  0  0  0  0  0  0  0  0  0  0  0
   -8.7660    5.1561   26.7130 C   0  0  0  0  0  0  0  0  0  0  0  0
   -8.6247    6.2676   27.3666 F   0  0  0  0  0  0  0  0  0  0  0  0
  -10.1302    4.7355   26.7479 F   0  0  0  0  0  0  0  0  0  0  0  0
   -8.6465    5.4199   25.3774 F   0  0  0  0  0  0  0  0  0  0  0  0
  -10.9429   -1.5670   27.5443 O   0  0  0  0  0  0  0  0  0  0  0  0
  -11.9153   -1.0401   27.3204 C   0  0  0  0  0  0  0  0  0  0  0  0
  -12.2278    0.1409   27.3157 C   0  0  0  0  0  0  0  0  0  0  0  0
  -13.0280    0.8988   27.2172 C   0  0  0  0  0  0  0  0  0  0  0  0
  -13.2239    2.1217   27.2643 C   0  0  0  0  0  0  0  0  0  0  0  0
  -14.4420    2.9181   27.1184 C   0  0  0  0  0  0  0  0  0  0  0  0
  -15.5553    2.2099   26.8304 C   0  0  0  0  0  0  0  0  0  0  0  0
  -15.4704    0.8874   26.7403 C   0  0  0  0  0  0  0  0  0  0  0  0
  3  5  1  0
  1 13  1  0
 13 14  1  0
 13 15  1  0
 13 16  1  0
  9 17  1  0
 17 18  1  0
 18 19  2  3
 19 20  1  0
 20 21  2  3
 21 22  1  0
 22 23  2  3
 23 24  1  0
  5  8  2  0
  8  9  1  0
  9 10  2  0
 10 12  1  0
 12 11  2  0
 11  5  1  0
  1  2  2  0
  2  3  1  0
  3  7  2  0
  7  6  1  0
  6  4  2  0
  4  1  1  0
M  END
$$$$
