No_427-complexes_sdf/6BKW-FPZ/2024-09-17-14-21-01/
     RDKit          3D

 19 21  0  0  0  0  0  0  0  0999 V2000
   -7.9040    3.9820   27.1177 C   0  0  0  0  0  0  0  0  0  0  0  0
   -7.8663    4.8694   27.9238 C   0  0  0  0  0  0  0  0  0  0  0  0
   -9.0491    3.8523   26.2542 C   0  0  0  0  0  0  0  0  0  0  0  0
   -8.7661    5.9491   27.9690 C   0  0  0  0  0  0  0  0  0  0  0  0
   -9.1798    2.6731   25.4786 C   0  0  0  0  0  0  0  0  0  0  0  0
   -9.8964    5.8854   27.1460 C   0  0  0  0  0  0  0  0  0  0  0  0
   -9.9958    4.8034   26.3470 C   0  0  0  0  0  0  0  0  0  0  0  0
   -8.6595    1.4511   25.8687 C   0  0  0  0  0  0  0  0  0  0  0  0
   -9.8202    2.7632   24.2146 C   0  0  0  0  0  0  0  0  0  0  0  0
   -8.1093    1.2784   27.1736 C   0  0  0  0  0  0  0  0  0  0  0  0
   -9.9488    1.6543   23.3609 C   0  0  0  0  0  0  0  0  0  0  0  0
   -9.3948    0.4154   23.8314 C   0  0  0  0  0  0  0  0  0  0  0  0
   -8.8074    0.3330   25.0256 C   0  0  0  0  0  0  0  0  0  0  0  0
   -7.2416    0.0398   27.1749 C   0  0  0  0  0  0  0  0  0  0  0  0
   -6.3018    0.0381   28.3322 C   0  0  0  0  0  0  0  0  0  0  0  0
   -5.6351   -1.0915   28.6804 C   0  0  0  0  0  0  0  0  0  0  0  0
   -5.7596   -2.1732   27.8232 C   0  0  0  0  0  0  0  0  0  0  0  0
   -6.6090   -2.1835   26.7791 C   0  0  0  0  0  0  0  0  0  0  0  0
   -7.3950   -1.0643   26.4920 C   0  0  0  0  0  0  0  0  0  0  0  0
  3  5  1  0
  8 10  1  0
 10 14  1  0
 14 15  2  0
 15 16  1  0
 16 17  2  0
 17 18  1  0
 18 19  2  0
 19 14  1  0
  1  2  2  0
  2  4  1  0
  4  6  2  0
  6  7  1  0
  7  3  2  0
  3  1  1  0
  5  8  2  0
  8 13  1  0
 13 12  2  0
 12 11  1  0
 11  9  2  0
  9  5  1  0
M  END
$$$$
