No_4589-complexes_sdf/6BKW-FPZ/2024-09-17-14-21-01/
     RDKit          3D

 33 37  0  0  0  0  0  0  0  0999 V2000
   -7.7129    4.2099   27.0854 C   0  0  0  0  0  0  0  0  0  0  0  0
   -8.2112    3.0637   26.9225 C   0  0  0  0  0  0  0  0  0  0  0  0
   -7.0021    4.5281   28.2396 C   0  0  0  0  0  0  0  0  0  0  0  0
   -9.4237    2.7810   26.2714 C   0  0  0  0  0  0  0  0  0  0  0  0
   -9.8781    3.7859   25.4663 C   0  0  0  0  0  0  0  0  0  0  0  0
   -9.3689    5.0975   25.5965 C   0  0  0  0  0  0  0  0  0  0  0  0
   -8.4784    5.3402   26.5448 C   0  0  0  0  0  0  0  0  0  0  0  0
  -10.9887    3.5347   24.5135 C   0  0  0  0  0  0  0  0  0  0  0  0
  -10.9063    2.5567   23.6887 C   0  0  0  0  0  0  0  0  0  0  0  0
  -11.7076    2.4448   22.6120 C   0  0  0  0  0  0  0  0  0  0  0  0
  -12.7713    3.4305   22.4398 C   0  0  0  0  0  0  0  0  0  0  0  0
  -12.8408    4.4905   23.2819 C   0  0  0  0  0  0  0  0  0  0  0  0
  -12.0132    4.5457   24.5847 C   0  0  0  0  0  0  0  0  0  0  0  0
   -7.6011    1.8339   27.6082 C   0  0  0  0  0  0  0  0  0  0  0  0
   -6.2062    1.6118   27.3041 C   0  0  0  0  0  0  0  0  0  0  0  0
   -5.6010    0.4692   27.9063 C   0  0  0  0  0  0  0  0  0  0  0  0
   -4.2201    0.5315   28.1898 C   0  0  0  0  0  0  0  0  0  0  0  0
   -3.6291   -0.5334   28.9104 C   0  0  0  0  0  0  0  0  0  0  0  0
   -4.3792   -1.5714   29.3227 C   0  0  0  0  0  0  0  0  0  0  0  0
   -5.7309   -1.5910   29.0324 C   0  0  0  0  0  0  0  0  0  0  0  0
   -6.3474   -0.5567   28.3732 C   0  0  0  0  0  0  0  0  0  0  0  0
   -6.6297   -2.7301   29.4519 C   0  0  0  0  0  0  0  0  0  0  0  0
   -6.7379   -3.7219   28.9592 C   0  0  0  0  0  0  0  0  0  0  0  0
   -7.3734   -4.5147   28.8240 C   0  0  0  0  0  0  0  0  0  0  0  0
   -8.6026   -4.5887   29.7405 C   0  0  0  0  0  0  0  0  0  0  0  0
   -8.6909   -3.4608   30.5773 C   0  0  0  0  0  0  0  0  0  0  0  0
   -7.7214   -2.4605   30.4495 C   0  0  0  0  0  0  0  0  0  0  0  0
   -9.7890   -3.2825   31.5554 C   0  0  0  0  0  0  0  0  0  0  0  0
  -10.9097   -2.6348   31.1059 C   0  0  0  0  0  0  0  0  0  0  0  0
  -12.0615   -2.5876   31.9182 C   0  0  0  0  0  0  0  0  0  0  0  0
   -9.6075   -3.6300   32.8770 C   0  0  0  0  0  0  0  0  0  0  0  0
  -10.7175   -3.5291   33.7692 C   0  0  0  0  0  0  0  0  0  0  0  0
  -11.9143   -2.9634   33.2689 C   0  0  0  0  0  0  0  0  0  0  0  0
  5  8  1  0
  2 14  1  0
 14 15  1  0
 20 22  1  0
 26 28  1  0
 15 16  1  0
  3  1  1  0
 28 29  2  0
 29 30  1  0
 30 33  2  0
 33 32  1  0
 32 31  2  0
 31 28  1  0
 22 23  2  0
 23 24  1  0
 24 25  2  0
 25 26  1  0
 26 27  2  0
 27 22  1  0
  8  9  2  0
  9 10  1  0
 10 11  2  0
 11 12  1  0
 12 13  2  0
 13  8  1  0
  1  2  2  0
  2  4  1  0
  4  5  2  0
  5  6  1  0
  6  7  2  0
  7  1  1  0
 16 17  2  0
 17 18  1  0
 18 19  2  0
 19 20  1  0
 20 21  2  0
 21 16  1  0
M  END
$$$$
