No_4718-complexes_sdf/6BKW-FPZ/2024-09-17-14-21-01/
     RDKit          3D

 27 29  0  0  0  0  0  0  0  0999 V2000
   -7.7129    4.2099   27.0854 C   0  0  0  0  0  0  0  0  0  0  0  0
   -8.2112    3.0637   26.9225 C   0  0  0  0  0  0  0  0  0  0  0  0
   -7.5138    1.9223   27.4249 C   0  0  0  0  0  0  0  0  0  0  0  0
   -8.5309    5.4147   26.8151 C   0  0  0  0  0  0  0  0  0  0  0  0
   -9.6817    5.2393   26.1100 C   0  0  0  0  0  0  0  0  0  0  0  0
  -10.1032    3.9957   25.8534 C   0  0  0  0  0  0  0  0  0  0  0  0
   -9.4034    2.8430   26.2573 C   0  0  0  0  0  0  0  0  0  0  0  0
   -6.1481    1.9922   27.8210 C   0  0  0  0  0  0  0  0  0  0  0  0
   -5.4897    0.8126   28.2236 C   0  0  0  0  0  0  0  0  0  0  0  0
   -6.0879   -0.4018   28.1493 C   0  0  0  0  0  0  0  0  0  0  0  0
   -7.9650    0.5820   27.3461 C   0  0  0  0  0  0  0  0  0  0  0  0
   -7.3675   -0.4821   27.7671 C   0  0  0  0  0  0  0  0  0  0  0  0
   -8.2064    6.7974   27.1146 C   0  0  0  0  0  0  0  0  0  0  0  0
   -7.7173    6.9733   28.2530 F   0  0  0  0  0  0  0  0  0  0  0  0
   -9.2649    7.6441   27.0528 F   0  0  0  0  0  0  0  0  0  0  0  0
   -7.2551    7.3021   26.2519 F   0  0  0  0  0  0  0  0  0  0  0  0
   -3.8042    1.0383   28.7665 Cl  0  0  0  0  0  0  0  0  0  0  0  0
  -11.5568    3.8183   24.9349 Cl  0  0  0  0  0  0  0  0  0  0  0  0
   -8.0051   -1.7890   27.7718 C   0  0  0  0  0  0  0  0  0  0  0  0
   -9.2606   -1.8775   28.1140 C   0  0  0  0  0  0  0  0  0  0  0  0
   -9.9949   -3.1440   28.2348 C   0  0  0  0  0  0  0  0  0  0  0  0
   -9.2467   -4.2479   28.0108 C   0  0  0  0  0  0  0  0  0  0  0  0
   -7.3737   -3.0454   27.7000 C   0  0  0  0  0  0  0  0  0  0  0  0
   -7.9459   -4.1940   27.7584 C   0  0  0  0  0  0  0  0  0  0  0  0
   -9.9704   -5.4155   28.1316 F   0  0  0  0  0  0  0  0  0  0  0  0
  -11.2858   -3.1430   28.5080 F   0  0  0  0  0  0  0  0  0  0  0  0
   -7.2773   -5.3232   27.5979 F   0  0  0  0  0  0  0  0  0  0  0  0
  2  3  1  0
  4 13  1  0
 13 14  1  0
 13 15  1  0
 13 16  1  0
  9 17  1  0
  6 18  1  0
 12 19  1  0
 22 25  1  0
 21 26  1  0
 24 27  1  0
  3  8  2  0
  8  9  1  0
  9 10  2  0
 10 12  1  0
 12 11  2  0
 11  3  1  0
  1  2  2  0
  2  7  1  0
  7  6  2  0
  6  5  1  0
  5  4  2  0
  4  1  1  0
 19 20  2  0
 20 21  1  0
 21 22  2  0
 22 24  1  0
 24 23  2  0
 23 19  1  0
M  END
$$$$
