No_4523-complexes_sdf/6BKW-FPZ/2024-09-17-14-21-01/
     RDKit          3D

 17 18  0  0  0  0  0  0  0  0999 V2000
   -7.9040    3.9820   27.1177 C   0  0  0  0  0  0  0  0  0  0  0  0
   -8.2057    2.8231   26.8733 C   0  0  0  0  0  0  0  0  0  0  0  0
   -8.7695    5.0740   26.7916 C   0  0  0  0  0  0  0  0  0  0  0  0
   -9.9618    4.7598   26.1630 C   0  0  0  0  0  0  0  0  0  0  0  0
   -9.4200    2.4524   26.2850 C   0  0  0  0  0  0  0  0  0  0  0  0
  -10.2590    3.4815   25.9250 C   0  0  0  0  0  0  0  0  0  0  0  0
   -8.3840    6.4693   27.0829 C   0  0  0  0  0  0  0  0  0  0  0  0
   -7.9676    7.4862   26.9931 N   0  0  0  0  0  0  0  0  0  0  0  0
   -7.2799    1.6688   27.3023 C   0  0  0  0  0  0  0  0  0  0  0  0
   -7.6065    0.3908   27.2179 N   0  0  0  0  0  0  0  0  0  0  0  0
   -6.1284    1.9520   27.7263 O   0  0  0  0  0  0  0  0  0  0  0  0
   -6.7653   -0.7074   27.6686 C   0  0  0  0  0  0  0  0  0  0  0  0
   -6.2566   -1.3215   26.7365 C   0  0  0  0  0  0  0  0  0  0  0  0
   -6.6887   -1.4039   25.4980 C   0  0  0  0  0  0  0  0  0  0  0  0
   -7.9219   -0.8480   25.2690 C   0  0  0  0  0  0  0  0  0  0  0  0
   -8.4506   -0.0476   26.2433 C   0  0  0  0  0  0  0  0  0  0  0  0
   -9.8230    0.3288   26.3726 C   0  0  0  0  0  0  0  0  0  0  0  0
  3  7  1  0
  7  8  3  0
  2  9  1  0
  9 10  1  0
  9 11  2  0
 10 12  1  0
 12 13  1  0
 14 15  1  0
 10 16  1  0
 15 16  1  0
 16 17  1  0
 13 14  1  0
  1  2  2  0
  2  5  1  0
  5  6  2  0
  6  4  1  0
  4  3  2  0
  3  1  1  0
M  END
$$$$
