No_4968-complexes_sdf/6BKW-FPZ/2024-09-17-14-21-01/
     RDKit          3D

 38 42  0  0  0  0  0  0  0  0999 V2000
   -7.2496    3.8871   27.4508 C   0  0  0  0  0  0  0  0  0  0  0  0
   -7.9379    4.9063   27.8518 C   0  0  0  0  0  0  0  0  0  0  0  0
   -9.3376    4.8647   27.7795 C   0  0  0  0  0  0  0  0  0  0  0  0
   -7.8544    2.6294   27.0414 C   0  0  0  0  0  0  0  0  0  0  0  0
   -7.2035    1.5022   26.7428 C   0  0  0  0  0  0  0  0  0  0  0  0
  -10.0282    3.7363   27.4999 C   0  0  0  0  0  0  0  0  0  0  0  0
   -9.2866    2.5941   27.1521 C   0  0  0  0  0  0  0  0  0  0  0  0
   -7.7325    0.5746   25.9422 N   0  0  0  0  0  0  0  0  0  0  0  0
   -7.1024   -0.4894   25.5648 C   0  0  0  0  0  0  0  0  0  0  0  0
   -6.0626    1.0943   27.5375 C   0  0  0  0  0  0  0  0  0  0  0  0
   -5.3696   -0.0746   27.2751 C   0  0  0  0  0  0  0  0  0  0  0  0
   -4.2099   -0.4350   28.0072 C   0  0  1  0  0  0  0  0  0  0  0  0
   -5.9406   -0.8786   26.3013 C   0  0  0  0  0  0  0  0  0  0  0  0
   -3.1369   -0.0680   27.7516 N   0  0  0  0  0  0  0  0  0  0  0  0
   -4.3506   -1.2026   29.2465 C   0  0  0  0  0  0  0  0  0  0  0  0
   -3.3109   -1.4620   30.0411 C   0  0  2  0  0  0  0  0  0  0  0  0
   -2.0629   -1.2217   29.6234 C   0  0  0  0  0  0  0  0  0  0  0  0
   -1.9285   -0.3832   28.4176 C   0  0  0  0  0  0  0  0  0  0  0  0
   -2.8214    0.7463   26.4906 C   0  0  0  0  0  0  0  0  0  0  0  0
  -11.4737    3.4596   27.6207 C   0  0  0  0  0  0  0  0  0  0  0  0
  -12.0126    2.5160   28.0763 C   0  0  0  0  0  0  0  0  0  0  0  0
  -13.4337    2.2745   28.2908 C   0  0  0  0  0  0  0  0  0  0  0  0
  -14.2440    3.4039   28.0118 C   0  0  0  0  0  0  0  0  0  0  0  0
  -13.6974    4.5745   27.5460 C   0  0  0  0  0  0  0  0  0  0  0  0
  -12.3283    4.7499   27.3908 C   0  0  0  0  0  0  0  0  0  0  0  0
   -7.3014    6.0887   28.1693 O   0  0  0  0  0  0  0  0  0  0  0  0
   -3.5309   -2.1647   31.3684 C   0  0  0  0  0  0  0  0  0  0  0  0
   -4.0470   -1.6816   32.3457 C   0  0  0  0  0  0  0  0  0  0  0  0
   -4.4114   -2.3485   33.4851 C   0  0  0  0  0  0  0  0  0  0  0  0
   -4.1330   -3.6880   33.5577 C   0  0  0  0  0  0  0  0  0  0  0  0
   -3.2308   -3.5640   31.4283 C   0  0  0  0  0  0  0  0  0  0  0  0
   -2.4815   -4.3291   29.9861 Cl  0  0  0  0  0  0  0  0  0  0  0  0
   -3.4988   -4.2998   32.5241 C   0  0  0  0  0  0  0  0  0  0  0  0
   -4.4627   -4.4390   34.8195 C   0  0  0  0  0  0  0  0  0  0  0  0
   -5.6011   -4.4032   35.2821 C   0  0  0  0  0  0  0  0  0  0  0  0
   -5.7275   -4.0472   36.5706 C   0  0  0  0  0  0  0  0  0  0  0  0
   -4.7091   -4.2864   37.5409 C   0  0  0  0  0  0  0  0  0  0  0  0
   -4.8305   -3.9378   38.8664 C   0  0  0  0  0  0  0  0  0  0  0  0
  4  5  1  0
 12 11  1  1
 12 14  1  0
 12 15  1  0
 15 16  1  0
 14 18  1  0
 17 18  1  0
 14 19  1  0
  6 20  1  0
  2 26  1  0
 16 27  1  6
 31 32  1  0
 30 34  1  0
 34 35  1  0
 35 36  2  3
 36 37  1  0
 37 38  2  0
 16 17  1  0
  1  2  2  0
  2  3  1  0
  3  6  2  0
  6  7  1  0
  7  4  2  0
  4  1  1  0
  5  8  2  0
  8  9  1  0
  9 13  2  0
 13 11  1  0
 11 10  2  0
 10  5  1  0
 20 21  2  0
 21 22  1  0
 22 23  2  0
 23 24  1  0
 24 25  2  0
 25 20  1  0
 27 28  2  0
 28 29  1  0
 29 30  2  0
 30 33  1  0
 33 31  2  0
 31 27  1  0
M  END
$$$$
