No_4548-complexes_sdf/6BKW-FPZ/2024-09-17-14-21-01/
     RDKit          3D

 33 36  0  0  0  0  0  0  0  0999 V2000
   -7.2496    3.8871   27.4508 C   0  0  0  0  0  0  0  0  0  0  0  0
   -7.6161    2.7143   27.1523 C   0  0  0  0  0  0  0  0  0  0  0  0
   -8.6212    2.2239   26.4073 C   0  0  0  0  0  0  0  0  0  0  0  0
   -8.2540    4.9237   27.1711 C   0  0  0  0  0  0  0  0  0  0  0  0
   -9.3729    4.5806   26.4432 C   0  0  0  0  0  0  0  0  0  0  0  0
   -8.9159    0.9340   26.0822 C   0  0  0  0  0  0  0  0  0  0  0  0
   -9.6005    3.2665   26.0851 C   0  0  0  0  0  0  0  0  0  0  0  0
   -7.8520    6.5649   27.5898 Cl  0  0  0  0  0  0  0  0  0  0  0  0
   -9.1948    0.5629   24.9312 C   0  0  0  0  0  0  0  0  0  0  0  0
   -9.4270   -0.8179   24.5267 C   0  0  0  0  0  0  0  0  0  0  0  0
   -9.2736   -1.7710   25.5102 C   0  0  0  0  0  0  0  0  0  0  0  0
   -8.7078   -0.2017   27.0215 C   0  0  0  0  0  0  0  0  0  0  0  0
   -8.9084   -1.4137   26.8088 C   0  0  0  0  0  0  0  0  0  0  0  0
   -8.8831   -2.2820   27.9929 C   0  0  0  0  0  0  0  0  0  0  0  0
   -9.9397   -2.4734   28.7558 C   0  0  0  0  0  0  0  0  0  0  0  0
   -9.8742   -3.2385   29.9722 C   0  0  0  0  0  0  0  0  0  0  0  0
   -8.6604   -3.7519   30.3643 C   0  0  0  0  0  0  0  0  0  0  0  0
   -7.6123   -2.7932   28.4317 C   0  0  0  0  0  0  0  0  0  0  0  0
   -7.5350   -3.5051   29.6312 C   0  0  0  0  0  0  0  0  0  0  0  0
  -11.2560   -1.8613   28.4419 C   0  0  0  0  0  0  0  0  0  0  0  0
  -11.4884   -0.6689   28.5269 N   0  0  0  0  0  0  0  0  0  0  0  0
  -12.6822   -0.0113   28.1878 C   0  0  0  0  0  0  0  0  0  0  0  0
  -12.2164   -2.7044   28.3586 O   0  0  0  0  0  0  0  0  0  0  0  0
  -13.2051    0.7472   28.6885 C   0  0  0  0  0  0  0  0  0  0  0  0
  -12.5993    1.4317   29.9403 C   0  0  0  0  0  0  0  0  0  0  0  0
  -13.2968    2.5677   30.6219 C   0  0  0  0  0  0  0  0  0  0  0  0
  -12.9156    2.9755   31.7851 C   0  0  0  0  0  0  0  0  0  0  0  0
  -13.8381    3.5409   29.6551 C   0  0  0  0  0  0  0  0  0  0  0  0
  -14.6718    4.5444   30.1953 C   0  0  0  0  0  0  0  0  0  0  0  0
  -13.6809    4.0595   32.4271 C   0  0  0  0  0  0  0  0  0  0  0  0
  -14.4806    4.8931   31.5613 C   0  0  0  0  0  0  0  0  0  0  0  0
  -13.4499    4.2430   33.8065 C   0  0  0  0  0  0  0  0  0  0  0  0
  -13.9165    4.8063   34.6113 N   0  0  0  0  0  0  0  0  0  0  0  0
  3  6  1  0
  4  8  1  0
 13 14  1  0
 15 20  1  0
 20 21  1  0
 21 22  1  0
 20 23  2  0
 22 24  2  3
 24 25  1  0
 25 26  1  0
 30 32  1  0
 32 33  2  0
  6  9  2  0
  9 10  1  0
 10 11  2  0
 11 13  1  0
 13 12  2  0
 12  6  1  0
 26 27  2  0
 27 30  1  0
 30 31  2  0
 31 29  1  0
 29 28  2  0
 28 26  1  0
 14 15  1  0
 15 16  2  0
 16 17  1  0
 17 19  2  0
 19 18  1  0
 18 14  2  0
  1  2  2  0
  2  3  1  0
  3  7  2  0
  7  5  1  0
  5  4  2  0
  4  1  1  0
M  END
$$$$
