No_4031-complexes_sdf/6BKW-FPZ/2024-09-17-14-21-01/
     RDKit          3D

 28 31  0  0  0  0  0  0  0  0999 V2000
   -7.9040    3.9820   27.1177 C   0  0  0  0  0  0  0  0  0  0  0  0
   -8.2057    2.8231   26.8733 C   0  0  0  0  0  0  0  0  0  0  0  0
   -7.4766    1.7477   27.4593 C   0  0  0  0  0  0  0  0  0  0  0  0
   -8.7468    5.1251   26.6967 C   0  0  0  0  0  0  0  0  0  0  0  0
   -9.6471    4.9075   26.0510 C   0  0  0  0  0  0  0  0  0  0  0  0
  -10.0309    3.6580   25.5399 C   0  0  0  0  0  0  0  0  0  0  0  0
   -9.2845    2.5302   26.0222 C   0  0  0  0  0  0  0  0  0  0  0  0
   -6.6762    0.8978   26.7274 C   0  0  0  0  0  0  0  0  0  0  0  0
   -5.9389   -0.1070   27.4623 C   0  0  0  0  0  0  0  0  0  0  0  0
   -5.9613   -1.2110   27.3728 C   0  0  0  0  0  0  0  0  0  0  0  0
   -4.9774   -2.1730   27.9503 C   0  0  0  0  0  0  0  0  0  0  0  0
   -3.9909   -1.6488   28.7932 C   0  0  0  0  0  0  0  0  0  0  0  0
   -3.9548   -0.2278   28.9727 C   0  0  0  0  0  0  0  0  0  0  0  0
   -4.8142    0.5789   28.3026 C   0  0  0  0  0  0  0  0  0  0  0  0
   -8.3369    6.5326   27.1289 C   0  0  0  0  0  0  0  0  0  0  0  0
   -9.0674    7.4663   26.8794 F   0  0  0  0  0  0  0  0  0  0  0  0
   -7.1330    6.6591   27.6455 F   0  0  0  0  0  0  0  0  0  0  0  0
   -2.9752   -2.4493   29.4804 C   0  0  0  0  0  0  0  0  0  0  0  0
   -3.2708   -2.8121   30.7192 C   0  0  0  0  0  0  0  0  0  0  0  0
   -2.3694   -3.4025   31.4409 C   0  0  0  0  0  0  0  0  0  0  0  0
   -1.0933   -3.7624   30.8839 C   0  0  0  0  0  0  0  0  0  0  0  0
   -0.8186   -3.3805   29.6087 C   0  0  0  0  0  0  0  0  0  0  0  0
   -1.7329   -2.5835   28.8703 C   0  0  0  0  0  0  0  0  0  0  0  0
   -1.3870   -2.1374   27.5572 C   0  0  0  0  0  0  0  0  0  0  0  0
   -0.9325   -2.8968   26.6256 C   0  0  0  0  0  0  0  0  0  0  0  0
   -1.5327   -3.0407   25.5593 C   0  0  0  0  0  0  0  0  0  0  0  0
   -2.8350   -2.4388   25.4176 C   0  0  0  0  0  0  0  0  0  0  0  0
   -2.6301   -1.3906   26.3237 N   0  0  0  0  0  0  0  0  0  0  0  0
  2  3  1  0
  3  8  2  3
  8  9  1  0
  4 15  1  0
 15 16  1  0
 15 17  1  0
 12 18  1  0
 23 24  1  0
 24 25  1  0
 25 26  2  0
 26 27  1  0
 24 28  2  0
 27 28  1  0
 18 19  2  0
 19 20  1  0
 20 21  2  0
 21 22  1  0
 22 23  2  0
 23 18  1  0
  1  2  2  0
  2  7  1  0
  7  6  2  0
  6  5  1  0
  5  4  2  0
  4  1  1  0
  9 10  2  0
 10 11  1  0
 11 12  2  0
 12 13  1  0
 13 14  2  0
 14  9  1  0
M  END
$$$$
