No_4986-complexes_sdf/6BKW-FPZ/2024-09-17-14-21-01/
     RDKit          3D

 32 35  0  0  0  0  0  0  0  0999 V2000
   -7.9040    3.9820   27.1177 C   0  0  0  0  0  0  0  0  0  0  0  0
   -7.8663    4.8694   27.9238 C   0  0  0  0  0  0  0  0  0  0  0  0
   -7.4698    2.6989   27.4277 C   0  0  0  0  0  0  0  0  0  0  0  0
   -7.9683    1.5964   26.8266 C   0  0  1  0  0  0  0  0  0  0  0  0
   -8.9447    1.7923   25.8533 C   0  0  0  0  0  0  0  0  0  0  0  0
   -9.4405    2.9988   25.5757 C   0  0  2  0  0  0  0  0  0  0  0  0
   -8.9424    4.1117   26.2388 C   0  0  0  0  0  0  0  0  0  0  0  0
   -8.2732    6.2141   27.6484 N   0  0  0  0  0  0  0  0  0  0  0  0
   -9.1790    6.5361   26.7045 C   0  0  0  0  0  0  0  0  0  0  0  0
   -9.5484    5.4069   25.9266 C   0  0  0  0  0  0  0  0  0  0  0  0
   -7.2484    0.3505   27.1358 C   0  0  0  0  0  0  0  0  0  0  0  0
   -5.9651    0.2645   27.3871 C   0  0  0  0  0  0  0  0  0  0  0  0
   -5.2844   -0.7434   27.7745 C   0  0  0  0  0  0  0  0  0  0  0  0
   -5.9619   -1.9633   27.9450 C   0  0  0  0  0  0  0  0  0  0  0  0
   -7.9445   -0.8778   27.3012 C   0  0  0  0  0  0  0  0  0  0  0  0
   -7.3177   -2.0012   27.6981 C   0  0  0  0  0  0  0  0  0  0  0  0
  -10.5392    2.9656   24.6450 C   0  0  0  0  0  0  0  0  0  0  0  0
  -11.7143    3.3481   25.0560 C   0  0  0  0  0  0  0  0  0  0  0  0
  -10.2765    2.7365   23.3015 C   0  0  0  0  0  0  0  0  0  0  0  0
  -11.1514    2.9229   22.2857 C   0  0  0  0  0  0  0  0  0  0  0  0
  -12.7829    3.5624   24.0704 C   0  0  0  0  0  0  0  0  0  0  0  0
  -12.4732    3.3391   22.7170 C   0  0  0  0  0  0  0  0  0  0  0  0
   -3.8206   -0.6733   28.1685 C   0  0  0  0  0  0  0  0  0  0  0  0
   -3.1171    0.1677   27.3531 C   0  0  0  0  0  0  0  0  0  0  0  0
   -3.5608   -0.2257   29.6502 C   0  0  0  0  0  0  0  0  0  0  0  0
   -3.1790   -2.0730   28.0500 C   0  0  0  0  0  0  0  0  0  0  0  0
   -4.4959   -0.2892   30.6339 C   0  0  0  0  0  0  0  0  0  0  0  0
   -4.1962   -0.1210   32.0027 C   0  0  0  0  0  0  0  0  0  0  0  0
   -5.0476   -0.7635   32.9517 C   0  0  0  0  0  0  0  0  0  0  0  0
   -4.7059   -0.8644   34.3016 C   0  0  0  0  0  0  0  0  0  0  0  0
   -3.3811   -0.6157   34.6897 C   0  0  0  0  0  0  0  0  0  0  0  0
   -2.4094   -0.2242   33.6815 C   0  0  0  0  0  0  0  0  0  0  0  0
  1  3  1  0
  3  4  1  0
  4  5  1  0
  5  6  1  0
  6  7  1  0
  4 11  1  6
  6 17  1  1
 13 23  1  0
 23 24  1  0
 23 25  1  0
 23 26  1  0
 25 27  1  0
 27 28  2  3
 28 29  1  0
 29 30  2  3
 30 31  1  0
 31 32  2  0
  1  2  2  0
  2  8  1  0
  8  9  2  0
  9 10  1  0
 10  7  2  0
  7  1  1  0
 11 12  2  0
 12 13  1  0
 13 14  2  0
 14 16  1  0
 16 15  2  0
 15 11  1  0
 17 18  2  0
 18 21  1  0
 21 22  2  0
 22 20  1  0
 20 19  2  0
 19 17  1  0
M  END
$$$$
