No_4645-complexes_sdf/6BKW-FPZ/2024-09-17-14-21-01/
     RDKit          3D

 29 31  0  0  0  0  0  0  0  0999 V2000
   -7.2496    3.8871   27.4508 C   0  0  0  0  0  0  0  0  0  0  0  0
   -7.6161    2.7143   27.1523 C   0  0  0  0  0  0  0  0  0  0  0  0
   -8.6212    2.2239   26.4073 C   0  0  0  0  0  0  0  0  0  0  0  0
   -8.2540    4.9237   27.1711 C   0  0  0  0  0  0  0  0  0  0  0  0
   -9.3729    4.5806   26.4433 C   0  0  0  0  0  0  0  0  0  0  0  0
   -9.5830    3.2969   26.1026 C   0  0  0  0  0  0  0  0  0  0  0  0
   -7.9420    6.1850   27.5089 F   0  0  0  0  0  0  0  0  0  0  0  0
   -8.8887    0.8876   26.0723 C   0  0  0  0  0  0  0  0  0  0  0  0
   -9.4156    0.0858   26.9871 C   0  0  0  0  0  0  0  0  0  0  0  0
   -9.6703   -1.3209   26.8234 C   0  0  0  0  0  0  0  0  0  0  0  0
   -9.3258   -1.8068   25.5856 C   0  0  0  0  0  0  0  0  0  0  0  0
   -8.7126    0.2730   24.9132 C   0  0  0  0  0  0  0  0  0  0  0  0
   -8.8418   -0.9739   24.5947 C   0  0  0  0  0  0  0  0  0  0  0  0
   -6.6256    1.7201   27.5631 O   0  0  0  0  0  0  0  0  0  0  0  0
   -5.3287    1.9998   27.7178 C   0  0  0  0  0  0  0  0  0  0  0  0
   -4.5936    0.6778   28.0212 C   0  0  0  0  0  0  0  0  0  0  0  0
   -5.0975   -0.0726   28.5859 C   0  0  0  0  0  0  0  0  0  0  0  0
   -4.3920   -1.3685   28.9941 C   0  0  0  0  0  0  0  0  0  0  0  0
   -3.0423   -1.4169   28.7555 C   0  0  0  0  0  0  0  0  0  0  0  0
   -2.4421   -0.3717   28.0778 C   0  0  0  0  0  0  0  0  0  0  0  0
   -3.1704    0.7787   27.7398 C   0  0  0  0  0  0  0  0  0  0  0  0
   -8.5511   -1.5678   23.2773 C   0  0  0  0  0  0  0  0  0  0  0  0
   -9.1747   -1.0578   22.1887 C   0  0  0  0  0  0  0  0  0  0  0  0
   -9.5075    0.2246   22.1309 C   0  0  0  0  0  0  0  0  0  0  0  0
  -10.2517    0.8123   21.0064 C   0  0  0  0  0  0  0  0  0  0  0  0
  -10.6666    2.1716   21.0655 C   0  0  0  0  0  0  0  0  0  0  0  0
  -10.3462    2.9443   22.1882 C   0  0  0  0  0  0  0  0  0  0  0  0
  -10.8016    4.2991   22.2533 C   0  0  0  0  0  0  0  0  0  0  0  0
  -10.5407    5.0689   23.4287 C   0  0  0  0  0  0  0  0  0  0  0  0
  4  7  1  0
  3  8  1  0
  2 14  1  0
 14 15  1  0
 15 16  1  0
 13 22  1  0
 22 23  1  0
 23 24  2  3
 24 25  1  0
 25 26  2  3
 26 27  1  0
 27 28  2  3
 28 29  1  0
 16 17  2  0
 17 18  1  0
 18 19  2  0
 19 20  1  0
 20 21  2  0
 21 16  1  0
  1  2  2  0
  2  3  1  0
  3  6  2  0
  6  5  1  0
  5  4  2  0
  4  1  1  0
  8  9  2  0
  9 10  1  0
 10 11  2  0
 11 13  1  0
 13 12  2  0
 12  8  1  0
M  END
$$$$
