No_4630-complexes_sdf/6BKW-FPZ/2024-09-17-14-21-01/
     RDKit          3D

 20 22  0  0  0  0  0  0  0  0999 V2000
   -7.9040    3.9820   27.1177 C   0  0  0  0  0  0  0  0  0  0  0  0
   -8.2057    2.8231   26.8733 C   0  0  0  0  0  0  0  0  0  0  0  0
   -8.7463    4.9537   27.6708 C   0  0  0  0  0  0  0  0  0  0  0  0
  -10.0901    4.5164   28.0293 C   0  0  0  0  0  0  0  0  0  0  0  0
   -9.5729    2.3483   27.2382 C   0  0  0  0  0  0  0  0  0  0  0  0
  -10.4170    3.2421   27.8237 C   0  0  0  0  0  0  0  0  0  0  0  0
   -8.2216    6.5582   27.9441 Cl  0  0  0  0  0  0  0  0  0  0  0  0
   -9.6702    0.8753   26.9078 C   0  0  0  0  0  0  0  0  0  0  0  0
  -10.6777    0.2390   27.0901 C   0  0  0  0  0  0  0  0  0  0  0  0
  -10.7715   -1.1889   26.8793 C   0  0  0  0  0  0  0  0  0  0  0  0
   -9.6331   -1.7931   26.4256 C   0  0  0  0  0  0  0  0  0  0  0  0
   -8.5227    0.1052   26.5294 C   0  0  0  0  0  0  0  0  0  0  0  0
   -8.5205   -1.1322   26.2723 C   0  0  0  0  0  0  0  0  0  0  0  0
  -11.6386    2.8014   28.2342 O   0  0  0  0  0  0  0  0  0  0  0  0
  -12.7537    3.6230   28.3650 C   0  0  0  0  0  0  0  0  0  0  0  0
  -13.2749    4.2025   27.3681 C   0  0  0  0  0  0  0  0  0  0  0  0
  -13.3219    3.6499   29.7023 C   0  0  0  0  0  0  0  0  0  0  0  0
  -14.2835    3.6502   30.0676 N   0  0  0  0  0  0  0  0  0  0  0  0
  -14.5908    4.8164   27.6839 C   0  0  0  0  0  0  0  0  0  0  0  0
  -15.0992    4.5415   29.0561 C   0  0  0  0  0  0  0  0  0  0  0  0
  3  7  1  0
  5  8  1  0
  6 14  1  0
 14 15  1  0
 15 16  2  0
 16 19  1  0
 19 20  2  0
 20 18  1  0
 18 17  2  0
 17 15  1  0
  1  2  2  0
  2  5  1  0
  5  6  2  0
  6  4  1  0
  4  3  2  0
  3  1  1  0
  8  9  2  0
  9 10  1  0
 10 11  2  0
 11 13  1  0
 13 12  2  0
 12  8  1  0
M  END
$$$$
