No_4312-complexes_sdf/6BKW-FPZ/2024-09-17-14-21-01/
     RDKit          3D

 25 27  0  0  0  0  0  0  0  0999 V2000
   -7.7129    4.2099   27.0854 C   0  0  0  0  0  0  0  0  0  0  0  0
   -7.7814    5.1722   27.8972 C   0  0  0  0  0  0  0  0  0  0  0  0
   -8.8776    3.8408   26.3416 C   0  0  0  0  0  0  0  0  0  0  0  0
   -8.9136    2.6330   25.5655 C   0  0  0  0  0  0  0  0  0  0  0  0
   -8.8361    6.1389   27.9032 C   0  0  0  0  0  0  0  0  0  0  0  0
   -9.8295    4.8219   26.2726 C   0  0  0  0  0  0  0  0  0  0  0  0
  -10.8814    4.5078   25.4055 C   0  0  0  0  0  0  0  0  0  0  0  0
   -9.8397    5.9427   27.0131 C   0  0  0  0  0  0  0  0  0  0  0  0
   -8.2604    1.5040   26.1283 C   0  0  0  0  0  0  0  0  0  0  0  0
   -9.5815    2.5662   24.3788 C   0  0  1  0  0  0  0  0  0  0  0  0
   -9.6367    1.4825   23.5907 C   0  0  0  0  0  0  0  0  0  0  0  0
  -10.6405    3.6018   24.1583 C   0  0  1  0  0  0  0  0  0  0  0  0
   -7.9459    0.5166   25.3635 O   0  0  0  0  0  0  0  0  0  0  0  0
   -7.8906    1.4612   27.3830 O   0  0  0  0  0  0  0  0  0  0  0  0
   -6.7306    5.5100   28.7312 O   0  0  0  0  0  0  0  0  0  0  0  0
  -11.4896    3.6276   23.0928 C   0  0  0  0  0  0  0  0  0  0  0  0
  -11.0990    3.1631   22.0853 C   0  0  0  0  0  0  0  0  0  0  0  0
  -11.7642    3.2146   20.7926 C   0  0  0  0  0  0  0  0  0  0  0  0
   -9.7397    2.4996   21.8612 C   0  0  0  0  0  0  0  0  0  0  0  0
   -9.5825    0.3024   24.0872 C   0  0  0  0  0  0  0  0  0  0  0  0
   -9.6361    1.6815   22.2971 C   0  0  0  0  0  0  0  0  0  0  0  0
   -9.5219   -0.2316   25.0422 C   0  0  2  0  0  0  0  0  0  0  0  0
   -9.6604   -1.2971   25.8222 C   0  0  0  0  0  0  0  0  0  0  0  0
  -10.7270    0.2379   25.9540 C   0  0  0  0  0  0  0  0  0  0  0  0
  -10.5432   -1.9821   26.1890 C   0  0  0  0  0  0  0  0  0  0  0  0
  3  4  1  0
  6  7  1  0
  4  9  1  0
 10  4  1  1
 10 11  1  0
 12  7  1  1
 10 12  1  0
  9 13  2  0
  9 14  1  0
  2 15  1  0
 12 16  1  0
 16 17  2  0
 17 18  1  0
 17 19  1  0
 11 20  2  3
 11 21  1  0
 19 21  1  0
 20 22  1  0
 22 23  1  0
 22 24  1  1
 23 25  2  0
  1  2  2  0
  2  5  1  0
  5  8  2  0
  8  6  1  0
  6  3  2  0
  3  1  1  0
M  END
$$$$
