No_4334-complexes_sdf/6BKW-FPZ/2024-09-17-14-21-01/
     RDKit          3D

 17 18  0  0  0  0  0  0  0  0999 V2000
   -7.7129    4.2099   27.0854 C   0  0  0  0  0  0  0  0  0  0  0  0
   -7.7814    5.1722   27.8972 C   0  0  0  0  0  0  0  0  0  0  0  0
   -8.8522    3.8137   26.2657 C   0  0  0  0  0  0  0  0  0  0  0  0
   -9.9224    4.6845   26.2875 C   0  0  0  0  0  0  0  0  0  0  0  0
   -8.8204    6.1727   27.7799 C   0  0  0  0  0  0  0  0  0  0  0  0
   -9.9053    5.8748   27.0014 C   0  0  0  0  0  0  0  0  0  0  0  0
   -9.0594    2.6034   25.5741 C   0  0  0  0  0  0  0  0  0  0  0  0
   -9.8126    1.7428   26.1130 C   0  0  0  0  0  0  0  0  0  0  0  0
  -10.6549    1.6855   26.8629 C   0  0  0  0  0  0  0  0  0  0  0  0
  -11.3770    0.4982   27.4492 C   0  0  0  0  0  0  0  0  0  0  0  0
  -10.9364   -0.6777   26.9307 C   0  0  0  0  0  0  0  0  0  0  0  0
   -9.4592    0.2490   25.6651 C   0  0  0  0  0  0  0  0  0  0  0  0
  -10.0596   -0.8253   26.0933 C   0  0  0  0  0  0  0  0  0  0  0  0
  -11.7325   -1.9230   27.5234 C   0  0  0  0  0  0  0  0  0  0  0  0
  -11.2188   -2.9636   27.5410 F   0  0  0  0  0  0  0  0  0  0  0  0
  -12.1368   -1.6054   28.8626 F   0  0  0  0  0  0  0  0  0  0  0  0
  -12.9888   -1.9116   26.8900 F   0  0  0  0  0  0  0  0  0  0  0  0
  3  7  1  0
  7  8  1  0
 11 14  1  0
 14 15  1  0
 14 16  1  0
 14 17  1  0
  1  2  2  0
  2  5  1  0
  5  6  2  0
  6  4  1  0
  4  3  2  0
  3  1  1  0
  8  9  2  0
  9 10  1  0
 10 11  2  0
 11 13  1  0
 13 12  2  0
 12  8  1  0
M  END
$$$$
