No_4987-complexes_sdf/6BKW-FPZ/2024-09-17-14-21-01/
     RDKit          3D

 21 22  0  0  0  0  0  0  0  0999 V2000
   -7.7129    4.2099   27.0854 C   0  0  0  0  0  0  0  0  0  0  0  0
   -8.9133    4.4736   27.0998 C   0  0  0  0  0  0  0  0  0  0  0  0
   -9.7937    3.7367   26.2091 C   0  0  0  0  0  0  0  0  0  0  0  0
   -7.2496    2.8647   26.8496 C   0  0  0  0  0  0  0  0  0  0  0  0
   -8.1891    1.9790   26.3454 C   0  0  0  0  0  0  0  0  0  0  0  0
   -9.4252    2.4603   26.0121 C   0  0  0  0  0  0  0  0  0  0  0  0
   -9.3121    5.9663   27.2474 C   0  0  0  0  0  0  0  0  0  0  0  0
   -7.7466    0.5946   26.1401 C   0  0  0  0  0  0  0  0  0  0  0  0
   -7.9509    0.1236   25.0622 O   0  0  0  0  0  0  0  0  0  0  0  0
   -6.8237    0.1058   27.0398 O   0  0  0  0  0  0  0  0  0  0  0  0
   -8.4303    7.0361   26.9065 C   0  0  0  0  0  0  0  0  0  0  0  0
   -6.4292   -1.1653   27.1142 C   0  0  0  0  0  0  0  0  0  0  0  0
   -5.6859   -1.3399   28.0738 C   0  0  0  0  0  0  0  0  0  0  0  0
   -4.7451   -0.3376   28.4008 C   0  0  0  0  0  0  0  0  0  0  0  0
   -3.3984   -0.4331   28.0407 C   0  0  0  0  0  0  0  0  0  0  0  0
   -2.5300    0.7302   28.1654 C   0  0  0  0  0  0  0  0  0  0  0  0
   -2.9213   -1.6281   27.4993 C   0  0  0  0  0  0  0  0  0  0  0  0
   -1.6212   -1.6788   26.9521 C   0  0  0  0  0  0  0  0  0  0  0  0
   -1.1854    0.5766   27.6605 C   0  0  0  0  0  0  0  0  0  0  0  0
   -0.7371   -0.6046   27.1520 C   0  0  0  0  0  0  0  0  0  0  0  0
   -6.8664   -1.7605   26.2070 C   0  0  0  0  0  0  0  0  0  0  0  0
  2  7  1  0
  5  8  1  0
  8  9  2  0
  8 10  1  0
  7 11  1  0
 10 12  1  0
 12 13  1  0
 13 14  1  0
 12 21  1  0
 14 15  1  0
  1  2  2  0
  2  3  1  0
  3  6  2  0
  6  5  1  0
  5  4  2  0
  4  1  1  0
 15 16  2  0
 16 19  1  0
 19 20  2  0
 20 18  1  0
 18 17  2  0
 17 15  1  0
M  END
$$$$
