No_4609-complexes_sdf/6BKW-FPZ/2024-09-17-14-21-01/
     RDKit          3D

 30 33  0  0  0  0  0  0  0  0999 V2000
   -7.9040    3.9820   27.1177 C   0  0  0  0  0  0  0  0  0  0  0  0
   -9.0711    4.3164   27.0630 C   0  0  0  0  0  0  0  0  0  0  0  0
   -9.5182    5.5541   27.5777 C   0  0  0  0  0  0  0  0  0  0  0  0
   -6.9424    4.7983   27.8424 C   0  0  0  0  0  0  0  0  0  0  0  0
   -7.3526    5.9739   28.3909 C   0  0  0  0  0  0  0  0  0  0  0  0
   -8.6479    6.3742   28.2169 C   0  0  0  0  0  0  0  0  0  0  0  0
  -10.0793    3.4689   26.3368 C   0  0  0  0  0  0  0  0  0  0  0  0
  -10.8065    3.4472   25.6317 C   0  0  0  0  0  0  0  0  0  0  0  0
  -11.5555    2.3860   24.9819 C   0  0  2  0  0  0  0  0  0  0  0  0
  -11.1719    1.1467   25.4068 C   0  0  0  0  0  0  0  0  0  0  0  0
   -9.9015    1.8424   26.4730 C   0  0  0  0  0  0  0  0  0  0  0  0
   -9.0842    1.0461   27.2399 C   0  0  0  0  0  0  0  0  0  0  0  0
   -9.6059   -0.1819   27.6341 C   0  0  0  0  0  0  0  0  0  0  0  0
  -10.6870   -0.8353   26.9490 C   0  0  0  0  0  0  0  0  0  0  0  0
  -11.5178   -0.0355   26.0023 C   0  0  0  0  0  0  0  0  0  0  0  0
  -12.5833    2.4842   23.9336 C   0  0  0  0  0  0  0  0  0  0  0  0
  -12.5662    3.6626   23.2602 C   0  0  0  0  0  0  0  0  0  0  0  0
  -11.9345    4.1251   22.4783 C   0  0  0  0  0  0  0  0  0  0  0  0
  -10.6877    4.2245   22.2378 C   0  0  0  0  0  0  0  0  0  0  0  0
   -9.8133    3.7915   23.2260 C   0  0  0  0  0  0  0  0  0  0  0  0
  -12.5437   -0.7141   25.2407 C   0  0  0  0  0  0  0  0  0  0  0  0
  -13.4115   -1.2979   25.7966 N   0  0  0  0  0  0  0  0  0  0  0  0
  -14.4799   -1.8834   25.3447 C   0  0  0  0  0  0  0  0  0  0  0  0
  -12.6303   -0.3755   24.0523 O   0  0  0  0  0  0  0  0  0  0  0  0
  -14.8385   -2.1988   24.3094 C   0  0  0  0  0  0  0  0  0  0  0  0
  -13.9129   -2.1786   23.2641 C   0  0  0  0  0  0  0  0  0  0  0  0
  -14.2662   -2.7714   21.8976 C   0  0  0  0  0  0  0  0  0  0  0  0
  -15.4694   -3.0505   21.7241 C   0  0  0  0  0  0  0  0  0  0  0  0
  -16.4687   -3.0371   22.6894 C   0  0  0  0  0  0  0  0  0  0  0  0
  -16.1301   -2.6764   23.9182 C   0  0  0  0  0  0  0  0  0  0  0  0
  2  7  1  0
  7  8  2  0
  8  9  1  0
  7 11  1  0
  9 16  1  6
 16 17  2  3
 17 18  1  0
 18 19  2  3
 19 20  1  0
 15 21  1  0
 21 22  1  0
 22 23  1  0
 21 24  2  0
  9 10  1  0
 23 25  1  0
 25 26  2  0
 26 27  1  0
 27 28  2  0
 28 29  1  0
 29 30  2  0
 30 25  1  0
  1  2  2  0
  2  3  1  0
  3  6  2  0
  6  5  1  0
  5  4  2  0
  4  1  1  0
 10 11  2  0
 11 12  1  0
 12 13  2  0
 13 14  1  0
 14 15  2  0
 15 10  1  0
M  END
$$$$
