No_4482-complexes_sdf/6BKW-FPZ/2024-09-17-14-21-01/
     RDKit          3D

 23 25  0  0  0  0  0  0  0  0999 V2000
   -7.9040    3.9820   27.1177 C   0  0  0  0  0  0  0  0  0  0  0  0
   -8.2057    2.8231   26.8733 C   0  0  0  0  0  0  0  0  0  0  0  0
   -9.2962    2.4021   26.1155 C   0  0  0  0  0  0  0  0  0  0  0  0
   -8.7358    5.0662   26.5917 C   0  0  0  0  0  0  0  0  0  0  0  0
   -9.7618    4.7023   25.7546 C   0  0  0  0  0  0  0  0  0  0  0  0
  -10.0066    3.4105   25.4922 C   0  0  0  0  0  0  0  0  0  0  0  0
   -8.4139    6.3809   26.8657 N   0  0  0  0  0  0  0  0  0  0  0  0
   -8.1496    7.3610   26.0892 C   0  0  0  0  0  0  0  0  0  0  0  0
   -7.3400    1.6672   27.4849 C   0  0  0  0  0  0  0  0  0  0  0  0
   -7.6952    0.3367   27.3758 C   0  0  0  0  0  0  0  0  0  0  0  0
   -6.7763   -0.6079   27.7457 C   0  0  0  0  0  0  0  0  0  0  0  0
   -5.5214   -0.2221   28.2610 C   0  0  0  0  0  0  0  0  0  0  0  0
   -5.1431    1.1361   28.2400 C   0  0  0  0  0  0  0  0  0  0  0  0
   -5.9584    2.0464   27.8005 C   0  0  0  0  0  0  0  0  0  0  0  0
   -4.3293   -1.5598   28.9094 Br  0  0  0  0  0  0  0  0  0  0  0  0
  -11.0892    3.0822   24.5556 C   0  0  1  0  0  0  0  0  0  0  0  0
  -11.0689    3.5144   23.3197 C   0  0  0  0  0  0  0  0  0  0  0  0
  -12.0338    3.2284   22.3097 C   0  0  0  0  0  0  0  0  0  0  0  0
  -11.8002    3.5367   21.0307 C   0  0  0  0  0  0  0  0  0  0  0  0
  -10.6883    4.3930   20.6090 C   0  0  0  0  0  0  0  0  0  0  0  0
   -9.8413    4.8032   21.6019 C   0  0  0  0  0  0  0  0  0  0  0  0
   -9.9419    4.4171   22.8653 C   0  0  0  0  0  0  0  0  0  0  0  0
  -11.3444    1.5419   24.5465 C   0  0  0  0  0  0  0  0  0  0  0  0
  4  7  1  0
  7  8  1  0
  2  9  1  0
 12 15  1  0
  6 16  1  0
 16 23  1  6
 16 17  1  0
 17 18  2  0
 18 19  1  0
 19 20  2  0
 20 21  1  0
 21 22  2  0
 22 17  1  0
  1  2  2  0
  2  3  1  0
  3  6  2  0
  6  5  1  0
  5  4  2  0
  4  1  1  0
  9 10  2  0
 10 11  1  0
 11 12  2  0
 12 13  1  0
 13 14  2  0
 14  9  1  0
M  END
$$$$
