No_4688-complexes_sdf/6BKW-FPZ/2024-09-17-14-21-01/
     RDKit          3D

 13 13  0  0  0  0  0  0  0  0999 V2000
   -7.7129    4.2099   27.0854 C   0  0  0  0  0  0  0  0  0  0  0  0
   -8.2112    3.0637   26.9225 C   0  0  0  0  0  0  0  0  0  0  0  0
   -9.4446    2.8304   26.1868 C   0  0  0  0  0  0  0  0  0  0  0  0
   -8.4697    5.3956   26.7238 C   0  0  0  0  0  0  0  0  0  0  0  0
   -9.6172    5.2111   25.9513 C   0  0  0  0  0  0  0  0  0  0  0  0
  -10.0424    3.9782   25.6873 C   0  0  0  0  0  0  0  0  0  0  0  0
   -8.1318    6.7643   27.0481 C   0  0  0  0  0  0  0  0  0  0  0  0
   -8.7336    7.8257   26.6222 N   0  0  0  0  0  0  0  0  0  0  0  0
   -6.8981    6.8282   27.6195 O   0  0  0  0  0  0  0  0  0  0  0  0
   -7.7072    1.7026   27.3277 C   0  0  0  0  0  0  0  0  0  0  0  0
   -8.4505    0.8693   27.7584 F   0  0  0  0  0  0  0  0  0  0  0  0
   -6.7738    1.9633   28.4305 F   0  0  0  0  0  0  0  0  0  0  0  0
   -6.8541    1.1788   26.3355 F   0  0  0  0  0  0  0  0  0  0  0  0
  4  7  1  0
  7  8  1  0
  7  9  2  0
  2 10  1  0
 10 11  1  0
 10 12  1  0
 10 13  1  0
  1  2  2  0
  2  3  1  0
  3  6  2  0
  6  5  1  0
  5  4  2  0
  4  1  1  0
M  END
$$$$
