No_4426-complexes_sdf/6BKW-FPZ/2024-09-17-14-21-01/
     RDKit          3D

 19 21  0  0  0  0  0  0  0  0999 V2000
   -7.9040    3.9820   27.1177 C   0  0  0  0  0  0  0  0  0  0  0  0
   -9.0711    4.3164   27.0630 C   0  0  0  0  0  0  0  0  0  0  0  0
   -9.5294    5.4517   27.7215 C   0  0  0  0  0  0  0  0  0  0  0  0
   -6.9328    4.7309   27.8881 C   0  0  0  0  0  0  0  0  0  0  0  0
   -7.3377    5.8421   28.5537 C   0  0  0  0  0  0  0  0  0  0  0  0
   -8.6411    6.2609   28.3972 C   0  0  0  0  0  0  0  0  0  0  0  0
  -10.0493    3.4953   26.2711 C   0  0  0  0  0  0  0  0  0  0  0  0
  -10.5585    3.8087   25.3240 C   0  0  0  0  0  0  0  0  0  0  0  0
  -11.2573    3.2128   24.3350 C   0  0  0  0  0  0  0  0  0  0  0  0
  -11.4490    1.8655   24.4909 C   0  0  0  0  0  0  0  0  0  0  0  0
   -9.9777    2.0492   26.4211 C   0  0  0  0  0  0  0  0  0  0  0  0
  -10.7234    1.2445   25.5642 C   0  0  0  0  0  0  0  0  0  0  0  0
   -9.2177    1.3942   27.5302 C   0  0  0  0  0  0  0  0  0  0  0  0
   -8.3890    0.2526   27.2061 C   0  0  0  0  0  0  0  0  0  0  0  0
   -7.2589    0.4480   27.0304 C   0  0  0  0  0  0  0  0  0  0  0  0
   -6.3324   -0.6504   26.6587 C   0  0  0  0  0  0  0  0  0  0  0  0
   -6.8890   -1.8548   26.4698 C   0  0  0  0  0  0  0  0  0  0  0  0
   -8.9294   -1.0031   26.9792 C   0  0  0  0  0  0  0  0  0  0  0  0
   -8.2248   -2.0555   26.6329 C   0  0  0  0  0  0  0  0  0  0  0  0
  2  7  1  0
 11 13  1  0
 13 14  1  0
  7  8  2  0
  8  9  1  0
  9 10  2  0
 10 12  1  0
 12 11  2  0
 11  7  1  0
 14 15  2  0
 15 16  1  0
 16 17  2  0
 17 19  1  0
 19 18  2  0
 18 14  1  0
  1  2  2  0
  2  3  1  0
  3  6  2  0
  6  5  1  0
  5  4  2  0
  4  1  1  0
M  END
$$$$
