No_4361-complexes_sdf/6BKW-FPZ/2024-09-17-14-21-01/
     RDKit          3D

 12 13  0  0  0  0  0  0  0  0999 V2000
   -7.7129    4.2099   27.0854 C   0  0  0  0  0  0  0  0  0  0  0  0
   -8.2112    3.0637   26.9225 C   0  0  0  0  0  0  0  0  0  0  0  0
   -8.5108    5.3904   26.9436 C   0  0  0  0  0  0  0  0  0  0  0  0
   -9.5333    5.2878   26.5026 C   0  0  0  0  0  0  0  0  0  0  0  0
   -7.5058    1.8263   27.3016 C   0  0  0  0  0  0  0  0  0  0  0  0
   -9.5014    2.9103   26.4805 C   0  0  0  0  0  0  0  0  0  0  0  0
  -10.2283    4.0637   26.2558 C   0  0  0  0  0  0  0  0  0  0  0  0
   -7.9558    0.6219   27.1466 N   0  0  0  0  0  0  0  0  0  0  0  0
   -7.2543   -0.4771   27.3998 C   0  0  0  0  0  0  0  0  0  0  0  0
   -5.9479   -0.2653   27.8119 C   0  0  0  0  0  0  0  0  0  0  0  0
   -5.3674    0.9908   27.9674 C   0  0  0  0  0  0  0  0  0  0  0  0
   -6.0857    2.0511   27.6752 C   0  0  0  0  0  0  0  0  0  0  0  0
  2  5  1  0
  5  8  2  0
  8  9  1  0
  9 10  2  0
 10 11  1  0
 11 12  2  0
 12  5  1  0
  1  2  2  0
  2  6  1  0
  6  7  2  0
  7  4  1  0
  4  3  2  0
  3  1  1  0
M  END
$$$$
