No_431-complexes_sdf/6BKW-FPZ/2024-09-17-14-21-01/
     RDKit          3D

 19 20  0  0  0  0  0  0  0  0999 V2000
   -7.2496    3.8871   27.4508 C   0  0  0  0  0  0  0  0  0  0  0  0
   -8.5096    4.0291   27.2770 C   0  0  0  0  0  0  0  0  0  0  0  0
   -9.2677    5.1714   27.5773 C   0  0  0  0  0  0  0  0  0  0  0  0
   -6.5711    2.6400   27.2842 C   0  0  0  0  0  0  0  0  0  0  0  0
   -7.2939    1.5094   27.0532 C   0  0  0  0  0  0  0  0  0  0  0  0
   -8.6122    1.6580   26.7575 C   0  0  0  0  0  0  0  0  0  0  0  0
   -9.2984    2.8495   26.9904 C   0  0  0  0  0  0  0  0  0  0  0  0
   -8.5461    6.4173   27.5488 C   0  0  0  0  0  0  0  0  0  0  0  0
  -10.5977    5.2310   26.8483 C   0  0  0  0  0  0  0  0  0  0  0  0
   -6.5956    0.2622   26.8609 C   0  0  0  0  0  0  0  0  0  0  0  0
   -6.9815   -0.6908   27.7556 C   0  0  0  0  0  0  0  0  0  0  0  0
   -6.0894   -1.4679   28.3884 C   0  0  0  0  0  0  0  0  0  0  0  0
   -4.7390   -1.3491   28.0591 C   0  0  0  0  0  0  0  0  0  0  0  0
   -4.3414   -0.4497   27.1090 C   0  0  0  0  0  0  0  0  0  0  0  0
   -5.2586    0.4899   26.6074 C   0  0  0  0  0  0  0  0  0  0  0  0
   -2.8917   -0.3989   26.7279 C   0  0  0  0  0  0  0  0  0  0  0  0
   -2.7839   -1.0657   25.6955 F   0  0  0  0  0  0  0  0  0  0  0  0
   -2.4829    0.8859   26.4356 F   0  0  0  0  0  0  0  0  0  0  0  0
   -2.1053   -0.9341   27.6206 F   0  0  0  0  0  0  0  0  0  0  0  0
  1  2  1  0
  2  3  2  3
  1  4  1  0
  4  5  1  0
  5  6  1  0
  2  7  1  0
  6  7  1  0
  3  8  1  0
  3  9  1  0
  5 10  1  0
 14 16  1  0
 16 17  1  0
 16 18  1  0
 16 19  1  0
 10 11  2  0
 11 12  1  0
 12 13  2  0
 13 14  1  0
 14 15  2  0
 15 10  1  0
M  END
$$$$
