No_4596-complexes_sdf/6BKW-FPZ/2024-09-17-14-21-01/
     RDKit          3D

 12 12  0  0  0  0  0  0  0  0999 V2000
   -7.2496    3.8871   27.4508 C   0  0  0  0  0  0  0  0  0  0  0  0
   -7.6161    2.7143   27.1523 C   0  0  0  0  0  0  0  0  0  0  0  0
   -8.8302    2.4659   26.5056 C   0  0  0  0  0  0  0  0  0  0  0  0
   -6.1096    4.2818   28.2555 C   0  0  0  0  0  0  0  0  0  0  0  0
   -9.3011    1.0700   26.2947 C   0  0  0  0  0  0  0  0  0  0  0  0
   -8.2527    4.9318   27.2233 C   0  0  0  0  0  0  0  0  0  0  0  0
   -9.3657    4.7578   26.4794 C   0  0  0  0  0  0  0  0  0  0  0  0
   -9.6688    3.4896   26.1537 C   0  0  0  0  0  0  0  0  0  0  0  0
  -10.0412    0.3410   26.7377 F   0  0  0  0  0  0  0  0  0  0  0  0
   -9.4029    0.9684   24.7970 F   0  0  0  0  0  0  0  0  0  0  0  0
   -8.0758    0.2488   26.3968 F   0  0  0  0  0  0  0  0  0  0  0  0
   -7.7441    6.6180   27.6797 Cl  0  0  0  0  0  0  0  0  0  0  0  0
  1  4  1  0
  3  5  1  0
  5  9  1  0
  5 10  1  0
  5 11  1  0
  6 12  1  0
  1  2  2  0
  2  3  1  0
  3  8  2  0
  8  7  1  0
  7  6  2  0
  6  1  1  0
M  END
$$$$
