No_4425-complexes_sdf/6BKW-FPZ/2024-09-17-14-21-01/
     RDKit          3D

 37 40  0  0  0  0  0  0  0  0999 V2000
   -7.2496    3.8871   27.4508 C   0  0  0  0  0  0  0  0  0  0  0  0
   -7.9379    4.9063   27.8518 C   0  0  0  0  0  0  0  0  0  0  0  0
   -9.3460    4.8223   27.8695 C   0  0  0  0  0  0  0  0  0  0  0  0
   -7.8628    2.6163   27.1065 C   0  0  0  0  0  0  0  0  0  0  0  0
   -9.2787    2.5744   27.1970 C   0  0  0  0  0  0  0  0  0  0  0  0
  -10.0108    3.6770   27.6340 C   0  0  0  0  0  0  0  0  0  0  0  0
  -11.4855    3.5731   27.7420 C   0  0  0  0  0  0  0  0  0  0  0  0
  -11.9299    2.8562   28.8221 C   0  0  0  0  0  0  0  0  0  0  0  0
  -13.2938    2.7194   29.1618 C   0  0  0  0  0  0  0  0  0  0  0  0
  -13.6781    1.8871   30.2069 C   0  0  0  0  0  0  0  0  0  0  0  0
  -14.2829    3.4300   28.4415 C   0  0  0  0  0  0  0  0  0  0  0  0
  -13.8694    4.2386   27.3521 C   0  0  0  0  0  0  0  0  0  0  0  0
  -12.3943    4.4027   27.0573 C   0  0  0  0  0  0  0  0  0  0  0  0
   -7.0787    1.4756   26.7828 C   0  0  0  0  0  0  0  0  0  0  0  0
   -7.7895    0.5817   25.8240 N   0  0  0  0  0  0  0  0  0  0  0  0
   -7.2077   -0.5870   25.5894 C   0  0  0  0  0  0  0  0  0  0  0  0
  -13.9024    2.4093   31.3933 N   0  0  0  0  0  0  0  0  0  0  0  0
  -14.3739    1.7774   32.5272 C   0  0  0  0  0  0  0  0  0  0  0  0
  -14.8588    2.2951   33.3936 C   0  0  0  0  0  0  0  0  0  0  0  0
  -13.7407    3.8147   31.7201 C   0  0  0  0  0  0  0  0  0  0  0  0
  -14.1022    4.4678   32.7795 C   0  0  0  0  0  0  0  0  0  0  0  0
  -14.6224    3.6922   33.8018 C   0  0  0  0  0  0  0  0  0  0  0  0
  -14.0980    0.7501   29.9525 O   0  0  0  0  0  0  0  0  0  0  0  0
   -7.3357    6.1034   28.1270 O   0  0  0  0  0  0  0  0  0  0  0  0
   -7.7758   -1.6395   25.6002 C   0  0  1  0  0  0  0  0  0  0  0  0
   -9.0781   -1.6694   25.7887 C   0  0  0  0  0  0  0  0  0  0  0  0
   -9.6245   -2.1783   26.8414 C   0  0  0  0  0  0  0  0  0  0  0  0
  -11.0717   -2.0717   27.1729 C   0  0  0  0  0  0  0  0  0  0  0  0
  -11.8650   -1.4176   26.2532 C   0  0  0  0  0  0  0  0  0  0  0  0
  -11.3210   -0.8701   25.1204 C   0  0  0  0  0  0  0  0  0  0  0  0
   -9.9832   -0.9282   24.9362 C   0  0  0  0  0  0  0  0  0  0  0  0
  -12.2181   -0.1106   24.2210 C   0  0  0  0  0  0  0  0  0  0  0  0
  -11.9539    0.9300   23.7631 O   0  0  0  0  0  0  0  0  0  0  0  0
  -13.4523   -0.5199   24.2587 O   0  0  0  0  0  0  0  0  0  0  0  0
   -6.0138    1.2426   27.2459 O   0  0  0  0  0  0  0  0  0  0  0  0
   -7.2000   -2.9210   25.2275 C   0  0  0  0  0  0  0  0  0  0  0  0
   -5.8813   -0.4606   25.3420 O   0  0  0  0  0  0  0  0  0  0  0  0
  6  7  1  0
  9 10  1  0
  4 14  1  0
 14 15  1  0
 15 16  1  0
 10 17  1  0
 17 18  1  0
 17 20  1  0
 19 22  1  0
 21 22  1  0
 10 23  2  0
  2 24  1  0
 16 25  1  0
 25 26  1  0
 30 32  1  0
 32 33  2  0
 32 34  1  0
 14 35  2  0
 25 36  1  6
 16 37  2  0
 18 19  1  0
 21 20  1  0
 26 27  2  0
 27 28  1  0
 28 29  2  0
 29 30  1  0
 30 31  2  0
 31 26  1  0
  7  8  2  0
  8  9  1  0
  9 11  2  0
 11 12  1  0
 12 13  2  0
 13  7  1  0
  1  2  2  0
  2  3  1  0
  3  6  2  0
  6  5  1  0
  5  4  2  0
  4  1  1  0
M  END
$$$$
