No_4185-complexes_sdf/6BKW-FPZ/2024-09-17-14-21-01/
     RDKit          3D

  3  2  0  0  0  0  0  0  0  0999 V2000
   -7.2496    3.8871   27.4508 C   0  0  0  0  0  0  0  0  0  0  0  0
   -7.6161    2.7143   27.1523 C   0  0  0  0  0  0  0  0  0  0  0  0
   -7.0937    1.4735   27.4689 C   0  0  0  0  0  0  0  0  0  0  0  0
  1  2  3  0
  2  3  1  0
M  END
$$$$
