No_4668-complexes_sdf/6BKW-FPZ/2024-09-17-14-21-01/
     RDKit          3D

 21 23  0  0  0  0  0  0  0  0999 V2000
   -7.9040    3.9820   27.1177 C   0  0  0  0  0  0  0  0  0  0  0  0
   -7.8663    4.8694   27.9238 C   0  0  0  0  0  0  0  0  0  0  0  0
   -9.0501    3.8017   26.2617 C   0  0  0  0  0  0  0  0  0  0  0  0
  -10.0189    4.7608   26.3707 C   0  0  0  0  0  0  0  0  0  0  0  0
   -8.6770    5.9780   27.9222 C   0  0  0  0  0  0  0  0  0  0  0  0
   -9.8040    5.8752   27.0958 C   0  0  0  0  0  0  0  0  0  0  0  0
   -9.1317    2.6414   25.4147 C   0  0  0  0  0  0  0  0  0  0  0  0
   -8.6458    1.4431   25.8429 C   0  0  0  0  0  0  0  0  0  0  0  0
   -9.8152    2.7444   24.1900 C   0  0  0  0  0  0  0  0  0  0  0  0
   -8.7189    0.3583   25.0028 C   0  0  0  0  0  0  0  0  0  0  0  0
   -9.8603    1.6493   23.3627 C   0  0  0  0  0  0  0  0  0  0  0  0
   -9.2929    0.4527   23.7710 C   0  0  0  0  0  0  0  0  0  0  0  0
  -10.4791    1.7721   22.0266 C   0  0  0  0  0  0  0  0  0  0  0  0
  -10.4720    2.9895   21.4662 C   0  0  0  0  0  0  0  0  0  0  0  0
  -11.0572    3.1481   20.1977 C   0  0  0  0  0  0  0  0  0  0  0  0
  -11.5669    2.0583   19.4786 C   0  0  0  0  0  0  0  0  0  0  0  0
  -10.8087    0.6690   21.2308 C   0  0  0  0  0  0  0  0  0  0  0  0
  -11.3986    0.8298   20.0161 C   0  0  0  0  0  0  0  0  0  0  0  0
  -11.8354   -0.3254   19.2252 C   0  0  2  0  0  0  0  0  0  0  0  0
  -11.4033   -1.2355   19.5516 Br  0  0  0  0  0  0  0  0  0  0  0  0
  -11.8043    0.3755   17.7566 C   0  0  0  0  0  0  0  0  0  0  0  0
  3  7  1  0
 11 13  1  0
 18 19  1  0
 19 20  1  0
 19 21  1  6
 13 14  2  0
 14 15  1  0
 15 16  2  0
 16 18  1  0
 18 17  2  0
 17 13  1  0
  1  2  2  0
  2  5  1  0
  5  6  2  0
  6  4  1  0
  4  3  2  0
  3  1  1  0
  7  8  2  0
  8 10  1  0
 10 12  2  0
 12 11  1  0
 11  9  2  0
  9  7  1  0
M  END
$$$$
