No_4332-complexes_sdf/6BKW-FPZ/2024-09-17-14-21-01/
     RDKit          3D

 28 30  0  0  0  0  0  0  0  0999 V2000
   -7.9040    3.9820   27.1177 C   0  0  0  0  0  0  0  0  0  0  0  0
   -8.2057    2.8231   26.8733 C   0  0  0  0  0  0  0  0  0  0  0  0
   -9.2962    2.4021   26.1155 C   0  0  0  0  0  0  0  0  0  0  0  0
   -8.7358    5.0662   26.5917 C   0  0  0  0  0  0  0  0  0  0  0  0
   -8.4603    6.4492   26.8781 C   0  0  0  0  0  0  0  0  0  0  0  0
  -10.1146    3.3815   25.6105 C   0  0  0  0  0  0  0  0  0  0  0  0
   -9.8194    4.7235   25.8263 C   0  0  0  0  0  0  0  0  0  0  0  0
   -8.5562    7.3988   26.1032 N   0  0  0  0  0  0  0  0  0  0  0  0
   -7.7210    6.5783   28.0111 O   0  0  0  0  0  0  0  0  0  0  0  0
   -7.3128    1.6693   27.4414 C   0  0  0  0  0  0  0  0  0  0  0  0
   -7.6901    0.3947   27.3659 N   0  0  0  0  0  0  0  0  0  0  0  0
   -8.8049   -0.0570   27.3315 C   0  0  0  0  0  0  0  0  0  0  0  0
   -6.0995    2.0540   27.7063 O   0  0  0  0  0  0  0  0  0  0  0  0
   -9.3329   -0.4542   28.5410 C   0  0  0  0  0  0  0  0  0  0  0  0
  -10.6799   -1.0491   28.6317 C   0  0  0  0  0  0  0  0  0  0  0  0
  -11.4180   -1.0233   27.4149 C   0  0  0  0  0  0  0  0  0  0  0  0
  -12.7250   -1.5500   27.5376 C   0  0  0  0  0  0  0  0  0  0  0  0
   -9.7605   -0.1960   26.3035 C   0  0  0  0  0  0  0  0  0  0  0  0
  -10.9732   -0.7260   26.3457 C   0  0  0  0  0  0  0  0  0  0  0  0
  -13.4812   -1.6272   26.6917 C   0  0  0  0  0  0  0  0  0  0  0  0
  -12.9791   -1.2291   25.3293 C   0  0  0  0  0  0  0  0  0  0  0  0
  -11.7986   -0.7099   25.1891 C   0  0  0  0  0  0  0  0  0  0  0  0
   -6.5394   -0.5881   27.3931 C   0  0  0  0  0  0  0  0  0  0  0  0
   -5.8111   -0.6162   28.4660 C   0  0  0  0  0  0  0  0  0  0  0  0
   -4.9712   -1.1287   28.9425 C   0  0  0  0  0  0  0  0  0  0  0  0
   -4.1748   -0.8093   30.2245 C   0  0  0  0  0  0  0  0  0  0  0  0
   -4.5119    0.4361   30.7477 C   0  0  0  0  0  0  0  0  0  0  0  0
   -5.1948    1.2957   30.0297 C   0  0  0  0  0  0  0  0  0  0  0  0
  4  5  1  0
  5  8  1  0
  5  9  2  0
  2 10  1  0
 10 11  1  0
 11 12  1  0
 10 13  2  0
 11 23  1  0
 23 24  2  3
 24 25  1  0
 25 26  1  0
 26 27  2  3
 27 28  1  0
  1  2  2  0
  2  3  1  0
  3  6  2  0
  6  7  1  0
  7  4  2  0
  4  1  1  0
 16 17  1  0
 17 20  2  0
 20 21  1  0
 21 22  2  0
 22 19  1  0
 12 14  2  0
 14 15  1  0
 15 16  2  0
 16 19  1  0
 19 18  2  0
 18 12  1  0
M  END
$$$$
