No_42-complexes_sdf/6BKW-FPZ/2024-09-17-14-21-01/
     RDKit          3D

 15 16  0  0  0  0  0  0  0  0999 V2000
   -7.7129    4.2099   27.0854 C   0  0  0  0  0  0  0  0  0  0  0  0
   -8.2112    3.0637   26.9225 C   0  0  0  0  0  0  0  0  0  0  0  0
   -7.5138    1.9223   27.4249 C   0  0  0  0  0  0  0  0  0  0  0  0
   -8.5309    5.4147   26.8151 C   0  0  0  0  0  0  0  0  0  0  0  0
   -9.6817    5.2393   26.1100 C   0  0  0  0  0  0  0  0  0  0  0  0
  -10.1032    3.9957   25.8534 C   0  0  0  0  0  0  0  0  0  0  0  0
   -9.4035    2.8430   26.2573 C   0  0  0  0  0  0  0  0  0  0  0  0
   -8.0026    0.6485   27.2900 N   0  0  0  0  0  0  0  0  0  0  0  0
   -7.2032   -0.3786   27.5463 C   0  0  0  0  0  0  0  0  0  0  0  0
   -6.1409    2.0068   27.4686 C   0  0  0  0  0  0  0  0  0  0  0  0
   -5.3009    0.9306   27.8998 C   0  0  0  0  0  0  0  0  0  0  0  0
   -5.8915   -0.2820   27.9016 C   0  0  0  0  0  0  0  0  0  0  0  0
   -7.9806    6.7628   27.0967 C   0  0  0  0  0  0  0  0  0  0  0  0
   -8.6894    7.7564   26.8961 F   0  0  0  0  0  0  0  0  0  0  0  0
   -7.6440    6.7367   28.5123 F   0  0  0  0  0  0  0  0  0  0  0  0
  2  3  1  0
  4 13  1  0
 13 14  1  0
 13 15  1  0
  3  8  2  0
  8  9  1  0
  9 12  2  0
 12 11  1  0
 11 10  2  0
 10  3  1  0
  1  2  2  0
  2  7  1  0
  7  6  2  0
  6  5  1  0
  5  4  2  0
  4  1  1  0
M  END
$$$$
