No_4926-complexes_sdf/6BKW-FPZ/2024-09-17-14-21-01/
     RDKit          3D

 16 18  0  0  0  0  0  0  0  0999 V2000
   -7.9040    3.9820   27.1177 C   0  0  0  0  0  0  0  0  0  0  0  0
   -7.8663    4.8694   27.9238 C   0  0  0  0  0  0  0  0  0  0  0  0
   -9.0501    3.8017   26.2617 C   0  0  0  0  0  0  0  0  0  0  0  0
  -10.0189    4.7608   26.3707 C   0  0  0  0  0  0  0  0  0  0  0  0
   -8.6973    5.9722   27.8968 C   0  0  0  0  0  0  0  0  0  0  0  0
   -9.8216    5.8946   27.1241 C   0  0  0  0  0  0  0  0  0  0  0  0
   -9.1338    2.7079   25.4780 N   0  0  0  0  0  0  0  0  0  0  0  0
   -9.9241    2.7028   24.3644 C   0  0  0  0  0  0  0  0  0  0  0  0
   -9.8892    1.5327   23.5487 C   0  0  0  0  0  0  0  0  0  0  0  0
   -8.4631    1.5600   25.7153 C   0  0  0  0  0  0  0  0  0  0  0  0
   -8.4481    0.4455   24.9896 C   0  0  0  0  0  0  0  0  0  0  0  0
   -9.1621    0.4812   23.8408 C   0  0  0  0  0  0  0  0  0  0  0  0
   -9.1506   -0.6838   22.9004 C   0  0  0  0  0  0  0  0  0  0  0  0
   -9.8296   -0.6568   21.7678 C   0  0  0  0  0  0  0  0  0  0  0  0
  -10.5832    0.5578   21.4214 C   0  0  0  0  0  0  0  0  0  0  0  0
  -10.6215    1.6304   22.2745 C   0  0  0  0  0  0  0  0  0  0  0  0
  3  7  1  0
  7  8  1  0
  7 10  1  0
 11 12  1  0
  8  9  1  0
 11 10  1  0
  9 12  2  0
 12 13  1  0
 13 14  2  0
 14 15  1  0
 15 16  2  0
 16  9  1  0
  1  2  2  0
  2  5  1  0
  5  6  2  0
  6  4  1  0
  4  3  2  0
  3  1  1  0
M  END
$$$$
