No_4401-complexes_sdf/6BKW-FPZ/2024-09-17-14-21-01/
     RDKit          3D

 28 32  0  0  0  0  0  0  0  0999 V2000
   -7.7129    4.2099   27.0854 C   0  0  0  0  0  0  0  0  0  0  0  0
   -7.7814    5.1722   27.8972 C   0  0  0  0  0  0  0  0  0  0  0  0
   -8.8776    3.8408   26.3416 C   0  0  0  0  0  0  0  0  0  0  0  0
   -8.9136    2.6330   25.5655 C   0  0  0  0  0  0  0  0  0  0  0  0
   -8.8361    6.1389   27.9032 C   0  0  0  0  0  0  0  0  0  0  0  0
   -9.9718    4.7048   26.3433 C   0  0  0  0  0  0  0  0  0  0  0  0
   -9.9205    5.8499   27.1013 C   0  0  0  0  0  0  0  0  0  0  0  0
   -8.3041    1.4977   26.1841 C   0  0  0  0  0  0  0  0  0  0  0  0
   -8.3335    0.2552   25.5744 C   0  0  0  0  0  0  0  0  0  0  0  0
   -7.7403   -0.8059   26.2155 C   0  0  0  0  0  0  0  0  0  0  0  0
   -7.0998   -0.6669   27.4687 C   0  0  0  0  0  0  0  0  0  0  0  0
   -6.9192    0.6229   27.9618 C   0  0  0  0  0  0  0  0  0  0  0  0
   -7.4914    1.6628   27.4069 C   0  0  0  0  0  0  0  0  0  0  0  0
   -6.4762   -1.8266   28.1135 C   0  0  1  0  0  0  0  0  0  0  0  0
   -5.3128   -1.5829   28.6409 C   0  0  2  0  0  0  0  0  0  0  0  0
   -5.2818   -1.6701   30.0920 C   0  0  1  0  0  0  0  0  0  0  0  0
   -4.3915   -0.8099   30.8540 C   0  0  0  0  0  0  0  0  0  0  0  0
   -3.4339   -0.0413   30.0820 C   0  0  0  0  0  0  0  0  0  0  0  0
   -3.4749    0.0707   28.7318 C   0  0  0  0  0  0  0  0  0  0  0  0
   -4.4111   -0.6325   28.0508 C   0  0  1  0  0  0  0  0  0  0  0  0
   -7.5226   -2.4493   29.0235 C   0  0  0  0  0  0  0  0  0  0  0  0
   -6.3744   -2.3392   30.6790 C   0  0  0  0  0  0  0  0  0  0  0  0
   -7.2098   -2.9799   30.2842 C   0  0  0  0  0  0  0  0  0  0  0  0
   -5.9775   -3.0401   27.2248 C   0  0  0  0  0  0  0  0  0  0  0  0
   -4.8689   -2.7685   26.7137 C   0  0  0  0  0  0  0  0  0  0  0  0
   -3.9112   -1.2949   26.7829 C   0  0  0  0  0  0  0  0  0  0  0  0
   -8.9211   -2.4343   28.5541 C   0  0  0  0  0  0  0  0  0  0  0  0
   -4.4517   -2.9662   28.7732 O   0  0  0  0  0  0  0  0  0  0  0  0
  3  4  1  0
  4  8  2  3
  8  9  1  0
  9 10  1  0
 10 11  1  0
 11 12  1  0
  8 13  1  0
 12 13  1  0
 14 11  1  6
 14 15  1  0
 15 16  1  0
 17 18  1  0
 15 20  1  0
 20 19  1  1
 14 21  1  0
 16 22  1  1
 21 23  1  0
 14 24  1  0
 20 26  1  0
 25 26  1  0
 21 27  1  0
 15 28  1  6
 24 25  1  0
 22 23  1  0
 16 17  1  0
 18 19  1  0
  1  2  2  0
  2  5  1  0
  5  7  2  0
  7  6  1  0
  6  3  2  0
  3  1  1  0
M  END
$$$$
