No_4789-complexes_sdf/6BKW-FPZ/2024-09-17-14-21-01/
     RDKit          3D

 23 27  0  0  0  0  0  0  0  0999 V2000
   -7.7129    4.2099   27.0854 C   0  0  0  0  0  0  0  0  0  0  0  0
   -8.9133    4.4736   27.0998 C   0  0  0  0  0  0  0  0  0  0  0  0
   -9.7937    3.7367   26.2091 C   0  0  0  0  0  0  0  0  0  0  0  0
   -7.2496    2.8647   26.8496 C   0  0  0  0  0  0  0  0  0  0  0  0
   -8.1891    1.9790   26.3454 C   0  0  0  0  0  0  0  0  0  0  0  0
   -9.4252    2.4603   26.0121 C   0  0  0  0  0  0  0  0  0  0  0  0
   -9.3121    5.9663   27.2474 C   0  0  0  0  0  0  0  0  0  0  0  0
   -7.7466    0.5946   26.1401 C   0  0  0  0  0  0  0  0  0  0  0  0
   -8.0852    0.0018   24.9819 C   0  0  0  0  0  0  0  0  0  0  0  0
   -7.6073   -1.3168   24.7009 C   0  0  0  0  0  0  0  0  0  0  0  0
   -7.9049   -1.8799   23.4438 C   0  0  0  0  0  0  0  0  0  0  0  0
   -8.5740   -1.0955   22.5981 C   0  0  0  0  0  0  0  0  0  0  0  0
   -8.9798    0.1764   22.7506 C   0  0  0  0  0  0  0  0  0  0  0  0
   -9.6226    0.9880   21.8129 C   0  0  0  0  0  0  0  0  0  0  0  0
   -8.6395    0.7766   24.0376 C   0  0  0  0  0  0  0  0  0  0  0  0
   -9.8560    2.3254   21.9929 C   0  0  0  0  0  0  0  0  0  0  0  0
  -10.5372    3.0775   21.0328 C   0  0  0  0  0  0  0  0  0  0  0  0
  -10.6854    4.4899   21.2413 C   0  0  0  0  0  0  0  0  0  0  0  0
  -10.5390    5.0367   22.5250 C   0  0  0  0  0  0  0  0  0  0  0  0
  -10.1404    4.1758   23.6014 C   0  0  0  0  0  0  0  0  0  0  0  0
   -9.8408    2.8364   23.3567 C   0  0  0  0  0  0  0  0  0  0  0  0
   -9.1973    2.0416   24.2366 N   0  0  0  0  0  0  0  0  0  0  0  0
   -8.3998    7.2363   27.1114 Cl  0  0  0  0  0  0  0  0  0  0  0  0
  2  7  1  0
  5  8  1  0
 13 14  1  0
  6 22  1  0
 15 22  1  0
 21 22  1  0
  7 23  1  0
  8  9  1  0
 14 16  1  0
  1  2  2  0
  2  3  1  0
  3  6  2  0
  6  5  1  0
  5  4  2  0
  4  1  1  0
  9 10  2  0
 10 11  1  0
 11 12  2  0
 12 13  1  0
 13 15  2  0
 15  9  1  0
 16 17  2  0
 17 18  1  0
 18 19  2  0
 19 20  1  0
 20 21  2  0
 21 16  1  0
M  END
$$$$
