No_4486-complexes_sdf/6BKW-FPZ/2024-09-17-14-21-01/
     RDKit          3D

 21 22  0  0  0  0  0  0  0  0999 V2000
   -7.7129    4.2099   27.0854 C   0  0  0  0  0  0  0  0  0  0  0  0
   -8.9133    4.4736   27.0998 C   0  0  0  0  0  0  0  0  0  0  0  0
   -9.4643    5.5426   27.7628 C   0  0  0  0  0  0  0  0  0  0  0  0
   -7.2009    2.9448   26.6134 C   0  0  0  0  0  0  0  0  0  0  0  0
   -8.1365    1.9533   26.2981 C   0  0  0  0  0  0  0  0  0  0  0  0
   -9.4501    2.2651   26.2497 C   0  0  0  0  0  0  0  0  0  0  0  0
   -9.8615    3.4703   26.6763 C   0  0  0  0  0  0  0  0  0  0  0  0
   -7.5886    0.6540   25.9006 C   0  0  0  0  0  0  0  0  0  0  0  0
   -8.1266   -0.4386   26.5346 C   0  0  0  0  0  0  0  0  0  0  0  0
   -7.4678   -1.5374   26.4760 C   0  0  0  0  0  0  0  0  0  0  0  0
   -6.3065   -1.6736   25.6957 C   0  0  0  0  0  0  0  0  0  0  0  0
   -5.7736   -0.5778   25.0796 C   0  0  0  0  0  0  0  0  0  0  0  0
   -6.3800    0.5796   25.2352 C   0  0  0  0  0  0  0  0  0  0  0  0
  -11.3052    3.7546   26.6145 C   0  0  0  0  0  0  0  0  0  0  0  0
  -11.9282    3.8661   27.8794 C   0  0  0  0  0  0  0  0  0  0  0  0
  -11.9478    3.1685   28.7294 C   0  0  0  0  0  0  0  0  0  0  0  0
  -12.7163    3.3073   30.0261 C   0  0  0  0  0  0  0  0  0  0  0  0
  -13.8595    4.0654   29.9643 C   0  0  0  0  0  0  0  0  0  0  0  0
  -14.0057    4.9443   28.8166 C   0  0  0  0  0  0  0  0  0  0  0  0
  -13.1576    4.8671   27.7416 C   0  0  0  0  0  0  0  0  0  0  0  0
  -13.4380    5.6737   26.7913 O   0  0  0  0  0  0  0  0  0  0  0  0
  5  8  1  0
  7 14  1  0
 14 15  2  3
 15 16  1  0
 16 17  2  3
 17 18  1  0
 18 19  2  3
 19 20  1  0
 20 21  2  0
  3  2  1  0
  1  2  2  0
  2  7  1  0
  7  6  2  0
  6  5  1  0
  5  4  2  0
  4  1  1  0
  8  9  2  0
  9 10  1  0
 10 11  2  0
 11 12  1  0
 12 13  2  0
 13  8  1  0
M  END
$$$$
