No_4374-complexes_sdf/6BKW-FPZ/2024-09-17-14-21-01/
     RDKit          3D

 16 18  0  0  0  0  0  0  0  0999 V2000
   -7.2496    3.8871   27.4508 C   0  0  0  0  0  0  0  0  0  0  0  0
   -8.5096    4.0291   27.2770 C   0  0  0  0  0  0  0  0  0  0  0  0
   -9.2677    5.1714   27.5773 C   0  0  0  0  0  0  0  0  0  0  0  0
   -6.5711    2.6400   27.2842 C   0  0  0  0  0  0  0  0  0  0  0  0
   -7.2939    1.5094   27.0532 C   0  0  2  0  0  0  0  0  0  0  0  0
   -6.6434    0.3282   26.9215 C   0  0  0  0  0  0  0  0  0  0  0  0
   -8.6811    1.6768   26.8702 C   0  0  0  0  0  0  0  0  0  0  0  0
   -9.4646    0.5509   26.6586 C   0  0  0  0  0  0  0  0  0  0  0  0
   -9.2874    2.8760   27.0642 C   0  0  0  0  0  0  0  0  0  0  0  0
  -10.4893    0.4678   27.0144 C   0  0  0  0  0  0  0  0  0  0  0  0
  -11.2406    1.7094   27.5380 C   0  0  0  0  0  0  0  0  0  0  0  0
  -10.6245    2.8841   27.4546 C   0  0  0  0  0  0  0  0  0  0  0  0
   -7.0554   -0.6386   26.3115 O   0  0  0  0  0  0  0  0  0  0  0  0
   -5.4612    0.1647   27.5280 F   0  0  0  0  0  0  0  0  0  0  0  0
  -10.6841    5.2575   27.6466 C   0  0  0  0  0  0  0  0  0  0  0  0
  -11.3778    4.0552   27.7358 C   0  0  0  0  0  0  0  0  0  0  0  0
  1  2  1  0
  1  4  1  0
  4  5  1  0
  5  6  1  6
  5  7  1  0
  6 13  2  0
  6 14  1  0
  2  3  1  0
  3 15  2  0
 15 16  1  0
 16 12  2  0
  9  2  2  0
  7  8  2  0
  8 10  1  0
 10 11  2  0
 11 12  1  0
 12  9  1  0
  9  7  1  0
M  END
$$$$
