No_4238-complexes_sdf/6BKW-FPZ/2024-09-17-14-21-01/
     RDKit          3D

 13 13  0  0  0  0  0  0  0  0999 V2000
   -7.2496    3.8871   27.4508 C   0  0  0  0  0  0  0  0  0  0  0  0
   -8.5096    4.0291   27.2770 C   0  0  0  0  0  0  0  0  0  0  0  0
   -9.2677    5.1714   27.5773 C   0  0  0  0  0  0  0  0  0  0  0  0
   -6.5711    2.6400   27.2842 C   0  0  0  0  0  0  0  0  0  0  0  0
   -7.2939    1.5094   27.0532 C   0  0  0  0  0  0  0  0  0  0  0  0
   -8.6122    1.6580   26.7575 C   0  0  0  0  0  0  0  0  0  0  0  0
   -9.2984    2.8495   26.9904 C   0  0  0  0  0  0  0  0  0  0  0  0
   -8.4929    6.2081   27.7687 F   0  0  0  0  0  0  0  0  0  0  0  0
  -10.1573    5.4778   26.6099 F   0  0  0  0  0  0  0  0  0  0  0  0
   -6.5978    0.2620   26.8564 C   0  0  0  0  0  0  0  0  0  0  0  0
   -6.6899   -0.2603   25.8578 F   0  0  0  0  0  0  0  0  0  0  0  0
   -5.2753    0.5011   27.2427 F   0  0  0  0  0  0  0  0  0  0  0  0
   -7.2245   -0.9488   28.3034 Br  0  0  0  0  0  0  0  0  0  0  0  0
  1  2  1  0
  2  3  2  3
  1  4  1  0
  4  5  1  0
  5  6  1  0
  2  7  1  0
  6  7  1  0
  3  8  1  0
  3  9  1  0
  5 10  1  0
 10 11  1  0
 10 12  1  0
 10 13  1  0
M  END
$$$$
