No_4073-complexes_sdf/6BKW-FPZ/2024-09-17-14-21-01/
     RDKit          3D

 20 22  0  0  0  0  0  0  0  0999 V2000
   -7.2496    3.8871   27.4508 C   0  0  0  0  0  0  0  0  0  0  0  0
   -7.6161    2.7143   27.1523 C   0  0  0  0  0  0  0  0  0  0  0  0
   -8.8302    2.4659   26.5056 C   0  0  0  0  0  0  0  0  0  0  0  0
   -8.1584    5.0090   27.3234 C   0  0  0  0  0  0  0  0  0  0  0  0
   -9.3788    4.7965   26.7695 C   0  0  0  0  0  0  0  0  0  0  0  0
   -9.7028    3.5649   26.3276 C   0  0  0  0  0  0  0  0  0  0  0  0
   -6.7190    1.5585   27.3667 C   0  0  0  0  0  0  0  0  0  0  0  0
   -5.5646    1.7458   28.0273 N   0  0  0  0  0  0  0  0  0  0  0  0
   -4.7154    0.6653   28.2282 C   0  0  0  0  0  0  0  0  0  0  0  0
   -4.9229   -0.3138   28.1918 C   0  0  0  0  0  0  0  0  0  0  0  0
   -7.1215    0.2470   27.2081 C   0  0  0  0  0  0  0  0  0  0  0  0
   -6.2765   -0.7636   27.6521 C   0  0  0  0  0  0  0  0  0  0  0  0
   -7.6212    6.5678   27.8890 Cl  0  0  0  0  0  0  0  0  0  0  0  0
   -3.4521    1.2069   28.8530 N   0  0  0  0  0  0  0  0  0  0  0  0
  -11.0003    3.3891   25.6490 C   0  0  0  0  0  0  0  0  0  0  0  0
  -11.2646    2.2457   24.9523 C   0  0  0  0  0  0  0  0  0  0  0  0
  -12.3557    2.1785   24.2169 C   0  0  0  0  0  0  0  0  0  0  0  0
  -13.3092    3.2537   24.2445 C   0  0  0  0  0  0  0  0  0  0  0  0
  -13.0515    4.4034   24.9580 C   0  0  0  0  0  0  0  0  0  0  0  0
  -11.8601    4.5224   25.6648 C   0  0  0  0  0  0  0  0  0  0  0  0
  2  7  1  0
  4 13  1  0
  9 14  1  0
  6 15  1  0
  7  8  2  0
  8  9  1  0
  9 10  2  0
 10 12  1  0
 12 11  2  0
 11  7  1  0
  1  2  2  0
  2  3  1  0
  3  6  2  0
  6  5  1  0
  5  4  2  0
  4  1  1  0
 15 16  2  0
 16 17  1  0
 17 18  2  0
 18 19  1  0
 19 20  2  0
 20 15  1  0
M  END
$$$$
