No_470-complexes_sdf/6BKW-FPZ/2024-09-17-14-21-01/
     RDKit          3D

 13 14  0  0  0  0  0  0  0  0999 V2000
   -7.7129    4.2099   27.0854 C   0  0  0  0  0  0  0  0  0  0  0  0
   -7.7814    5.1722   27.8972 C   0  0  0  0  0  0  0  0  0  0  0  0
   -7.3155    2.9699   27.6145 C   0  0  0  0  0  0  0  0  0  0  0  0
   -7.1760    1.9119   26.6708 C   0  0  0  0  0  0  0  0  0  0  0  0
   -6.6384    0.7154   27.2306 C   0  0  0  0  0  0  0  0  0  0  0  0
   -8.5125    6.2959   27.5421 C   0  0  0  0  0  0  0  0  0  0  0  0
   -9.0945    6.4477   26.2385 C   0  0  0  0  0  0  0  0  0  0  0  0
   -8.6368    4.2998   25.9873 C   0  0  0  0  0  0  0  0  0  0  0  0
   -9.2711    5.3566   25.5967 C   0  0  0  0  0  0  0  0  0  0  0  0
   -7.0141   -0.4844   26.7690 C   0  0  0  0  0  0  0  0  0  0  0  0
   -7.8602   -0.5046   25.6360 C   0  0  0  0  0  0  0  0  0  0  0  0
   -8.4185    0.6140   25.1294 C   0  0  0  0  0  0  0  0  0  0  0  0
   -8.0930    1.8681   25.7043 C   0  0  0  0  0  0  0  0  0  0  0  0
  1  3  1  0
  3  4  1  0
  4  5  2  0
  5 10  1  0
 10 11  2  0
 11 12  1  0
 12 13  2  0
 13  4  1  0
  1  2  2  0
  2  6  1  0
  6  7  2  0
  7  9  1  0
  9  8  2  0
  8  1  1  0
M  END
$$$$
