No_4390-complexes_sdf/6BKW-FPZ/2024-09-17-14-21-01/
     RDKit          3D

 27 29  0  0  0  0  0  0  0  0999 V2000
   -7.9040    3.9820   27.1177 C   0  0  0  0  0  0  0  0  0  0  0  0
   -9.0711    4.3164   27.0630 C   0  0  0  0  0  0  0  0  0  0  0  0
   -9.5294    5.4517   27.7215 C   0  0  0  0  0  0  0  0  0  0  0  0
  -10.0314    3.1095   27.2528 C   0  0  0  0  0  0  0  0  0  0  0  0
  -10.4559    2.7065   25.9774 C   0  0  0  0  0  0  0  0  0  0  0  0
  -10.5352    3.5138   24.9955 C   0  0  0  0  0  0  0  0  0  0  0  0
  -10.5787    3.0393   23.6405 C   0  0  0  0  0  0  0  0  0  0  0  0
  -10.1039    1.8440   23.3637 C   0  0  0  0  0  0  0  0  0  0  0  0
   -9.8077    0.9157   24.3619 C   0  0  0  0  0  0  0  0  0  0  0  0
   -9.9291    1.3427   25.6855 C   0  0  0  0  0  0  0  0  0  0  0  0
   -6.9026    4.7571   27.9623 C   0  0  0  0  0  0  0  0  0  0  0  0
   -7.3568    5.9684   28.5296 C   0  0  0  0  0  0  0  0  0  0  0  0
   -8.6798    6.3968   28.2887 C   0  0  0  0  0  0  0  0  0  0  0  0
   -9.5564    0.4060   26.7402 C   0  0  0  0  0  0  0  0  0  0  0  0
   -8.2796    0.0429   27.0261 C   0  0  0  0  0  0  0  0  0  0  0  0
  -10.6475   -0.0805   27.5067 C   0  0  0  0  0  0  0  0  0  0  0  0
   -7.9017   -1.0395   27.7845 C   0  0  0  0  0  0  0  0  0  0  0  0
  -10.3337   -1.1995   28.4293 C   0  0  0  0  0  0  0  0  0  0  0  0
   -8.9941   -1.5784   28.6078 C   0  0  0  0  0  0  0  0  0  0  0  0
   -9.3323   -0.4158   24.0314 C   0  0  0  0  0  0  0  0  0  0  0  0
   -8.4389   -0.5458   23.5031 O   0  0  0  0  0  0  0  0  0  0  0  0
  -10.0548   -1.3980   24.5286 O   0  0  0  0  0  0  0  0  0  0  0  0
  -10.8268    4.0450   22.5244 C   0  0  0  0  0  0  0  0  0  0  0  0
  -12.0108    4.6159   22.2998 Cl  0  0  0  0  0  0  0  0  0  0  0  0
   -8.5362   -2.7188   29.4663 C   0  0  0  0  0  0  0  0  0  0  0  0
   -7.3346   -2.9267   29.7453 C   0  0  0  0  0  0  0  0  0  0  0  0
   -6.2918   -2.2866   28.9905 C   0  0  0  0  0  0  0  0  0  0  0  0
  2  4  1  0
  4  5  1  0
 10 14  1  0
  9 20  1  0
 20 21  2  0
 20 22  1  0
  7 23  1  0
 23 24  1  0
 19 25  1  0
 25 26  2  3
 26 27  1  0
  5  6  2  0
  6  7  1  0
  7  8  2  0
  8  9  1  0
  9 10  2  0
 10  5  1  0
 14 15  2  0
 15 17  1  0
 17 19  2  0
 19 18  1  0
 18 16  2  0
 16 14  1  0
  1  2  2  0
  2  3  1  0
  3 13  2  0
 13 12  1  0
 12 11  2  0
 11  1  1  0
M  END
$$$$
