No_4208-complexes_sdf/6BKW-FPZ/2024-09-17-14-21-01/
     RDKit          3D

 38 42  0  0  0  0  0  0  0  0999 V2000
   -7.9040    3.9820   27.1177 C   0  0  0  0  0  0  0  0  0  0  0  0
   -9.0711    4.3164   27.0630 C   0  0  0  0  0  0  0  0  0  0  0  0
   -9.5294    5.4517   27.7215 C   0  0  0  0  0  0  0  0  0  0  0  0
   -7.4336    2.7132   26.5681 C   0  0  0  0  0  0  0  0  0  0  0  0
   -8.3353    1.8569   26.0442 C   0  0  0  0  0  0  0  0  0  0  0  0
   -9.6477    2.2853   25.9146 C   0  0  0  0  0  0  0  0  0  0  0  0
  -10.0346    3.4497   26.4483 C   0  0  2  0  0  0  0  0  0  0  0  0
   -7.8750    0.5509   25.5918 C   0  0  0  0  0  0  0  0  0  0  0  0
   -6.9702    0.0164   26.1017 O   0  0  0  0  0  0  0  0  0  0  0  0
   -8.4198    0.1206   24.4519 O   0  0  0  0  0  0  0  0  0  0  0  0
   -7.0675    4.7874   27.9154 N   0  0  0  0  0  0  0  0  0  0  0  0
   -7.5065    5.8707   28.4215 N   0  0  0  0  0  0  0  0  0  0  0  0
   -8.7111    6.3073   28.3125 C   0  0  0  0  0  0  0  0  0  0  0  0
  -11.4296    3.8549   26.1611 C   0  0  0  0  0  0  0  0  0  0  0  0
  -12.2951    3.7554   27.2804 C   0  0  0  0  0  0  0  0  0  0  0  0
  -11.9243    3.4763   28.4581 C   0  0  0  0  0  0  0  0  0  0  0  0
  -12.8776    3.2742   29.5993 C   0  0  0  0  0  0  0  0  0  0  0  0
  -14.1689    3.6286   29.4265 C   0  0  0  0  0  0  0  0  0  0  0  0
  -13.7406    4.0491   27.0559 C   0  0  0  0  0  0  0  0  0  0  0  0
  -14.6325    4.0279   28.1224 C   0  0  0  0  0  0  0  0  0  0  0  0
  -11.7574    4.2217   25.0488 O   0  0  0  0  0  0  0  0  0  0  0  0
  -15.1214    3.5162   30.5392 C   0  0  0  0  0  0  0  0  0  0  0  0
  -14.9166    4.3531   31.4752 C   0  0  1  0  0  0  0  0  0  0  0  0
  -13.8987    4.5335   32.1780 C   0  0  0  0  0  0  0  0  0  0  0  0
  -13.7323    5.2977   33.3876 C   0  0  0  0  0  0  0  0  0  0  0  0
  -12.6152    5.2024   34.2708 C   0  0  0  0  0  0  0  0  0  0  0  0
  -12.4994    4.3350   35.1198 C   0  0  0  0  0  0  0  0  0  0  0  0
  -11.1903    4.1896   35.8991 C   0  0  0  0  0  0  0  0  0  0  0  0
  -10.1672    4.7880   35.3239 C   0  0  0  0  0  0  0  0  0  0  0  0
  -10.1863    5.3557   34.0753 C   0  0  0  0  0  0  0  0  0  0  0  0
  -11.4192    5.6279   33.5842 C   0  0  0  0  0  0  0  0  0  0  0  0
  -15.8089    5.5752   31.3890 C   0  0  0  0  0  0  0  0  0  0  0  0
  -17.1273    5.3297   31.4576 C   0  0  0  0  0  0  0  0  0  0  0  0
  -17.7041    4.5450   32.1765 C   0  0  0  0  0  0  0  0  0  0  0  0
  -19.1150    4.2766   32.1341 C   0  0  0  0  0  0  0  0  0  0  0  0
  -17.9392    6.0753   30.4661 C   0  0  0  0  0  0  0  0  0  0  0  0
  -19.3066    5.8549   30.3597 C   0  0  0  0  0  0  0  0  0  0  0  0
  -19.8811    4.9915   31.2700 C   0  0  0  0  0  0  0  0  0  0  0  0
  1  4  1  0
  4  5  1  0
  5  6  1  0
  2  7  1  0
  6  7  1  0
  5  8  1  0
  8  9  2  0
  8 10  1  0
  7 14  1  6
 14 15  1  0
 14 21  2  0
 18 22  1  0
 23 22  1  6
 23 24  1  0
 24 25  2  3
 25 26  1  0
 23 32  1  0
 32 33  1  0
 33 34  2  0
 34 35  1  0
 35 38  2  0
 38 37  1  0
 37 36  2  0
 36 33  1  0
  1  2  1  0
  2  3  2  0
  3 13  1  0
 13 12  2  0
 12 11  1  0
 11  1  2  0
 26 27  2  0
 27 28  1  0
 28 29  2  0
 29 30  1  0
 30 31  2  0
 31 26  1  0
 15 16  2  0
 16 17  1  0
 17 18  2  0
 18 20  1  0
 20 19  2  0
 19 15  1  0
M  END
$$$$
