No_4707-complexes_sdf/6BKW-FPZ/2024-09-17-14-21-01/
     RDKit          3D

 26 29  0  0  0  0  0  0  0  0999 V2000
   -7.9040    3.9820   27.1177 C   0  0  0  0  0  0  0  0  0  0  0  0
   -9.0711    4.3164   27.0630 C   0  0  0  0  0  0  0  0  0  0  0  0
   -9.5294    5.4517   27.7215 C   0  0  0  0  0  0  0  0  0  0  0  0
   -9.9845    3.5634   26.2189 C   0  0  0  0  0  0  0  0  0  0  0  0
  -10.5758    2.5046   26.7628 C   0  0  0  0  0  0  0  0  0  0  0  0
  -11.3159    1.7641   26.2485 C   0  0  0  0  0  0  0  0  0  0  0  0
   -6.9382    4.6423   28.0502 C   0  0  0  0  0  0  0  0  0  0  0  0
   -8.6466    6.2715   28.4802 C   0  0  0  0  0  0  0  0  0  0  0  0
   -7.3524    5.7440   28.6215 C   0  0  0  0  0  0  0  0  0  0  0  0
  -10.2116    3.9283   24.8922 C   0  0  0  0  0  0  0  0  0  0  0  0
  -11.0660    3.1488   24.1525 C   0  0  0  0  0  0  0  0  0  0  0  0
  -11.3941    3.4037   22.7818 C   0  0  0  0  0  0  0  0  0  0  0  0
  -11.6761    2.0470   24.8093 C   0  0  0  0  0  0  0  0  0  0  0  0
  -11.3211    4.4484   22.2010 C   0  0  0  0  0  0  0  0  0  0  0  0
  -11.4804    4.7249   20.7954 C   0  0  0  0  0  0  0  0  0  0  0  0
  -11.8395    3.6002   20.0288 C   0  0  0  0  0  0  0  0  0  0  0  0
  -11.9158    2.3726   20.6337 C   0  0  0  0  0  0  0  0  0  0  0  0
  -11.6482    2.2383   21.9735 C   0  0  0  0  0  0  0  0  0  0  0  0
  -12.0148    0.5513   26.7699 C   0  0  0  0  0  0  0  0  0  0  0  0
  -11.7651   -0.3676   27.0939 C   0  0  0  0  0  0  0  0  0  0  0  0
  -10.2638   -0.7866   26.9925 C   0  0  0  0  0  0  0  0  0  0  0  0
   -9.4355   -0.2813   26.4917 C   0  0  0  0  0  0  0  0  0  0  0  0
   -8.0117   -0.8664   26.6447 C   0  0  0  0  0  0  0  0  0  0  0  0
   -7.8249   -1.9646   27.3375 C   0  0  0  0  0  0  0  0  0  0  0  0
   -9.9461   -2.0815   27.8586 C   0  0  0  0  0  0  0  0  0  0  0  0
   -8.7871   -2.5933   27.9565 C   0  0  0  0  0  0  0  0  0  0  0  0
  2  4  1  0
 11 12  1  0
  6 19  1  0
 19 20  2  3
 20 21  1  0
  4  5  2  0
  5  6  1  0
  6 13  2  0
 13 11  1  0
 11 10  2  0
 10  4  1  0
 21 22  2  0
 22 23  1  0
 23 24  2  0
 24 26  1  0
 26 25  2  0
 25 21  1  0
  1  2  2  0
  2  3  1  0
  3  8  2  0
  8  9  1  0
  9  7  2  0
  7  1  1  0
 12 14  2  0
 14 15  1  0
 15 16  2  0
 16 17  1  0
 17 18  2  0
 18 12  1  0
M  END
$$$$
