No_459-complexes_sdf/6BKW-FPZ/2024-09-17-14-21-01/
     RDKit          3D

 29 32  0  0  0  0  0  0  0  0999 V2000
   -7.9040    3.9820   27.1177 C   0  0  0  0  0  0  0  0  0  0  0  0
   -9.0711    4.3164   27.0630 C   0  0  0  0  0  0  0  0  0  0  0  0
  -10.0395    3.8218   27.1938 C   0  0  0  0  0  0  0  0  0  0  0  0
   -7.6424    2.5858   27.3610 C   0  0  0  0  0  0  0  0  0  0  0  0
   -8.7741    1.7889   27.4566 C   0  0  0  0  0  0  0  0  0  0  0  0
  -10.0155    2.3581   27.4300 C   0  0  0  0  0  0  0  0  0  0  0  0
   -9.1463    5.9504   26.8742 C   0  0  0  0  0  0  0  0  0  0  0  0
   -9.2055    6.3507   25.5991 F   0  0  0  0  0  0  0  0  0  0  0  0
  -10.2697    6.5126   27.4393 F   0  0  0  0  0  0  0  0  0  0  0  0
   -7.9280    6.6124   27.2906 F   0  0  0  0  0  0  0  0  0  0  0  0
   -6.4095    2.0278   27.3443 N   0  0  0  0  0  0  0  0  0  0  0  0
   -6.0922    0.7269   27.3759 C   0  0  0  0  0  0  0  0  0  0  0  0
   -5.2145    0.3659   28.3231 C   0  0  0  0  0  0  0  0  0  0  0  0
   -5.2033   -0.9601   28.8945 C   0  0  0  0  0  0  0  0  0  0  0  0
   -4.3386   -1.3022   29.9227 C   0  0  0  0  0  0  0  0  0  0  0  0
   -3.4729   -0.3531   30.4769 C   0  0  0  0  0  0  0  0  0  0  0  0
   -3.4733    0.9487   29.9015 C   0  0  0  0  0  0  0  0  0  0  0  0
   -4.2917    1.2647   28.9304 C   0  0  0  0  0  0  0  0  0  0  0  0
   -6.6462   -0.0576   26.6258 O   0  0  0  0  0  0  0  0  0  0  0  0
   -2.5427   -0.6831   31.5737 C   0  0  0  0  0  0  0  0  0  0  0  0
   -3.0656   -1.3858   32.6055 N   0  0  0  0  0  0  0  0  0  0  0  0
   -2.5477   -1.4685   33.7443 C   0  0  0  0  0  0  0  0  0  0  0  0
   -3.2412   -1.9853   34.8822 C   0  0  0  0  0  0  0  0  0  0  0  0
   -3.0324   -1.5618   36.1196 C   0  0  0  0  0  0  0  0  0  0  0  0
   -1.8305   -0.8287   36.4754 C   0  0  0  0  0  0  0  0  0  0  0  0
   -1.0754   -0.3380   35.3948 C   0  0  0  0  0  0  0  0  0  0  0  0
   -1.4572   -0.5249   34.1030 C   0  0  0  0  0  0  0  0  0  0  0  0
   -4.1293   -2.2909   32.3487 C   0  0  0  0  0  0  0  0  0  0  0  0
   -4.9312   -2.0007   31.1008 C   0  0  0  0  0  0  0  0  0  0  0  0
  2  7  1  0
  7  8  1  0
  7  9  1  0
  7 10  1  0
  4 11  1  0
 11 12  1  0
 12 13  1  0
 12 19  2  0
 16 20  1  0
 20 21  1  0
 21 22  1  0
 21 28  1  0
 15 29  1  0
 29 28  1  0
 13 14  2  0
 14 15  1  0
 15 16  2  0
 16 17  1  0
 17 18  2  0
 18 13  1  0
  1  2  2  0
  2  3  1  0
  3  6  2  0
  6  5  1  0
  5  4  2  0
  4  1  1  0
 22 23  2  0
 23 24  1  0
 24 25  2  0
 25 26  1  0
 26 27  2  0
 27 22  1  0
M  END
$$$$
