No_4373-complexes_sdf/6BKW-FPZ/2024-09-17-14-21-01/
     RDKit          3D

 38 42  0  0  0  0  0  0  0  0999 V2000
   -7.9040    3.9820   27.1177 C   0  0  0  0  0  0  0  0  0  0  0  0
   -8.2057    2.8231   26.8733 C   0  0  0  0  0  0  0  0  0  0  0  0
   -7.0130    4.3706   28.1140 C   0  0  0  0  0  0  0  0  0  0  0  0
   -9.3829    2.4374   26.1668 C   0  0  0  0  0  0  0  0  0  0  0  0
  -10.0151    3.2164   25.8460 C   0  0  0  0  0  0  0  0  0  0  0  0
   -9.8517    4.6499   25.9574 C   0  0  0  0  0  0  0  0  0  0  0  0
   -8.7642    5.0121   26.6984 C   0  0  0  0  0  0  0  0  0  0  0  0
   -8.5280    6.3246   26.9776 N   0  0  0  0  0  0  0  0  0  0  0  0
   -7.4498    6.7297   27.6980 C   0  0  0  0  0  0  0  0  0  0  0  0
   -6.8031    5.7897   28.3555 C   0  0  0  0  0  0  0  0  0  0  0  0
   -7.3851    1.7775   27.3984 F   0  0  0  0  0  0  0  0  0  0  0  0
  -11.2681    2.9310   24.8569 C   0  0  0  0  0  0  0  0  0  0  0  0
  -12.4224    2.6546   25.3855 C   0  0  0  0  0  0  0  0  0  0  0  0
  -11.0756    3.0330   23.4486 C   0  0  0  0  0  0  0  0  0  0  0  0
  -12.0483    2.7725   22.5995 C   0  0  0  0  0  0  0  0  0  0  0  0
  -13.5351    2.4401   24.4930 C   0  0  0  0  0  0  0  0  0  0  0  0
  -13.3253    2.5028   23.1141 C   0  0  0  0  0  0  0  0  0  0  0  0
   -9.5356    0.9061   25.8591 C   0  0  2  0  0  0  0  0  0  0  0  0
   -9.9321    0.0477   26.7706 C   0  0  0  0  0  0  0  0  0  0  0  0
  -10.1096   -1.1934   26.6859 C   0  0  0  0  0  0  0  0  0  0  0  0
  -10.6143   -1.9733   27.8206 C   0  0  0  0  0  0  0  0  0  0  0  0
  -10.6278   -3.2887   27.9317 C   0  0  0  0  0  0  0  0  0  0  0  0
  -11.2036   -1.1463   28.9807 C   0  0  0  0  0  0  0  0  0  0  0  0
  -11.2015    0.2522   28.9157 C   0  0  0  0  0  0  0  0  0  0  0  0
  -10.6474    0.9130   27.8446 C   0  0  0  0  0  0  0  0  0  0  0  0
   -8.1076    0.4020   25.3356 C   0  0  0  0  0  0  0  0  0  0  0  0
   -8.1510   -0.1175   23.9702 C   0  0  0  0  0  0  0  0  0  0  0  0
   -7.0230   -0.6451   23.4146 C   0  0  0  0  0  0  0  0  0  0  0  0
   -7.0839   -1.0755   22.0960 C   0  0  0  0  0  0  0  0  0  0  0  0
   -8.3378   -1.0507   21.3802 C   0  0  0  0  0  0  0  0  0  0  0  0
   -9.4528   -0.4626   21.9947 C   0  0  0  0  0  0  0  0  0  0  0  0
   -9.3428    0.0105   23.3153 C   0  0  0  0  0  0  0  0  0  0  0  0
  -11.8737    2.8658   21.1546 C   0  0  0  0  0  0  0  0  0  0  0  0
  -10.3779    3.1664   20.6455 Cl  0  0  0  0  0  0  0  0  0  0  0  0
   -9.8098   -3.9768   27.3142 C   0  0  0  0  0  0  0  0  0  0  0  0
   -9.9427   -5.3983   27.0598 C   0  0  0  0  0  0  0  0  0  0  0  0
  -10.9585   -6.0137   27.7718 C   0  0  0  0  0  0  0  0  0  0  0  0
  -11.6538   -5.3784   28.4149 C   0  0  0  0  0  0  0  0  0  0  0  0
  2 11  1  0
  5 12  1  0
  4 18  1  0
 18 19  1  0
 18 26  1  1
 15 33  1  0
 33 34  1  0
 22 35  1  0
 35 36  2  3
 36 37  1  0
 37 38  2  0
 22 21  1  0
 26 27  1  0
  1  3  1  0
  3 10  2  0
 10  9  1  0
  9  8  2  0
  8  7  1  0
 12 13  2  0
 13 16  1  0
 16 17  2  0
 17 15  1  0
 15 14  2  0
 14 12  1  0
 19 20  2  0
 20 21  1  0
 21 23  2  0
 23 24  1  0
 24 25  2  0
 25 19  1  0
 27 28  2  0
 28 29  1  0
 29 30  2  0
 30 31  1  0
 31 32  2  0
 32 27  1  0
  1  2  2  0
  2  4  1  0
  4  5  2  0
  5  6  1  0
  6  7  2  0
  7  1  1  0
M  END
$$$$
