No_4775-complexes_sdf/6BKW-FPZ/2024-09-17-14-21-01/
     RDKit          3D

 26 28  0  0  0  0  0  0  0  0999 V2000
   -7.9040    3.9820   27.1177 C   0  0  0  0  0  0  0  0  0  0  0  0
   -9.0711    4.3164   27.0630 C   0  0  0  0  0  0  0  0  0  0  0  0
   -9.9692    3.7224   26.1073 C   0  0  0  0  0  0  0  0  0  0  0  0
   -7.4776    2.6994   26.6283 C   0  0  0  0  0  0  0  0  0  0  0  0
   -8.4406    1.9440   25.9776 C   0  0  0  0  0  0  0  0  0  0  0  0
   -9.6379    2.5001   25.6881 C   0  0  0  0  0  0  0  0  0  0  0  0
   -6.8728    4.5098   28.0617 C   0  0  0  0  0  0  0  0  0  0  0  0
   -5.8023    4.6165   27.5719 F   0  0  0  0  0  0  0  0  0  0  0  0
   -7.3611    5.9263   28.1812 F   0  0  0  0  0  0  0  0  0  0  0  0
  -10.5903    1.7582   24.7879 C   0  0  2  0  0  0  0  0  0  0  0  0
  -10.8339    2.0236   23.6535 C   0  0  0  0  0  0  0  0  0  0  0  0
  -10.1796    3.2863   23.0714 C   0  0  0  0  0  0  0  0  0  0  0  0
  -10.4287    3.6897   21.7184 C   0  0  0  0  0  0  0  0  0  0  0  0
  -11.1275    2.8357   20.8950 C   0  0  0  0  0  0  0  0  0  0  0  0
  -11.6630    1.6173   21.3603 C   0  0  0  0  0  0  0  0  0  0  0  0
  -11.4642    1.2582   22.6605 C   0  0  0  0  0  0  0  0  0  0  0  0
  -11.7927    1.3922   25.6040 C   0  0  0  0  0  0  0  0  0  0  0  0
  -11.6929    0.0090   25.9231 C   0  0  0  0  0  0  0  0  0  0  0  0
  -10.7383   -0.6415   26.1343 C   0  0  0  0  0  0  0  0  0  0  0  0
  -10.7843   -2.0760   26.4006 C   0  0  0  0  0  0  0  0  0  0  0  0
  -12.0632   -2.6217   26.5029 C   0  0  0  0  0  0  0  0  0  0  0  0
  -12.9808   -0.7421   26.0600 C   0  0  0  0  0  0  0  0  0  0  0  0
  -13.1214   -1.9649   26.3357 C   0  0  0  0  0  0  0  0  0  0  0  0
  -12.7704    2.2613   25.9610 C   0  0  0  0  0  0  0  0  0  0  0  0
  -13.8850    2.4475   25.1520 C   0  0  0  0  0  0  0  0  0  0  0  0
  -14.8425    3.4151   25.4951 C   0  0  0  0  0  0  0  0  0  0  0  0
  1  7  1  0
  7  8  1  0
  7  9  1  0
  6 10  1  0
 10 17  1  1
 17 18  1  0
 17 24  1  0
 24 25  2  3
 25 26  1  0
 10 11  1  0
 11 12  2  0
 12 13  1  0
 13 14  2  0
 14 15  1  0
 15 16  2  0
 16 11  1  0
  1  2  2  0
  2  3  1  0
  3  6  2  0
  6  5  1  0
  5  4  2  0
  4  1  1  0
 18 19  2  0
 19 20  1  0
 20 21  2  0
 21 23  1  0
 23 22  2  0
 22 18  1  0
M  END
$$$$
