No_4342-complexes_sdf/6BKW-FPZ/2024-09-17-14-21-01/
     RDKit          3D

 19 19  0  0  0  0  0  0  0  0999 V2000
   -7.7129    4.2099   27.0854 C   0  0  0  0  0  0  0  0  0  0  0  0
   -8.9133    4.4736   27.0998 C   0  0  0  0  0  0  0  0  0  0  0  0
   -9.4643    5.5426   27.7628 C   0  0  0  0  0  0  0  0  0  0  0  0
   -9.8091    3.6358   26.2841 C   0  0  0  0  0  0  0  0  0  0  0  0
   -9.4101    2.5938   25.7918 C   0  0  0  0  0  0  0  0  0  0  0  0
   -7.2012    2.8508   26.8768 C   0  0  0  0  0  0  0  0  0  0  0  0
   -8.0866    2.0216   26.2188 C   0  0  0  0  0  0  0  0  0  0  0  0
   -7.6585    0.6881   25.8174 C   0  0  0  0  0  0  0  0  0  0  0  0
   -6.8562   -0.0510   26.7048 C   0  0  0  0  0  0  0  0  0  0  0  0
   -6.8457    0.2047   27.9176 C   0  0  0  0  0  0  0  0  0  0  0  0
   -5.8929   -0.5009   28.8604 C   0  0  0  0  0  0  0  0  0  0  0  0
   -4.9737   -1.3297   28.2836 C   0  0  0  0  0  0  0  0  0  0  0  0
   -5.0007   -1.5524   26.9027 C   0  0  1  0  0  0  0  0  0  0  0  0
   -5.9018   -0.8682   26.0964 C   0  0  0  0  0  0  0  0  0  0  0  0
   -3.9785   -2.4922   26.3346 C   0  0  0  0  0  0  0  0  0  0  0  0
   -4.4467   -1.8090   26.0384 C   0  0  0  0  0  0  0  0  0  0  0  0
   -6.1643   -0.9213   24.6148 O   0  0  0  0  0  0  0  0  0  0  0  0
   -4.4655   -1.9332   24.4766 C   0  0  0  0  0  0  0  0  0  0  0  0
   -4.9890   -2.3878   27.4651 Br  0  0  0  0  0  0  0  0  0  0  0  0
  2  3  1  0
  7  8  1  0
  8  9  1  0
  9 10  2  3
 10 11  1  0
 11 12  2  3
 12 13  1  0
  9 14  1  0
 13 15  1  0
 15 16  1  0
 14 17  1  0
 16 18  1  0
 13 19  1  1
  1  2  2  0
  2  4  1  0
  4  5  2  0
  5  7  1  0
  7  6  2  0
  6  1  1  0
M  END
$$$$
