No_4607-complexes_sdf/6BKW-FPZ/2024-09-17-14-21-01/
     RDKit          3D

 21 24  0  0  0  0  0  0  0  0999 V2000
   -7.9040    3.9820   27.1177 C   0  0  0  0  0  0  0  0  0  0  0  0
   -9.0711    4.3164   27.0630 C   0  0  0  0  0  0  0  0  0  0  0  0
   -9.5294    5.4517   27.7215 C   0  0  0  0  0  0  0  0  0  0  0  0
   -7.4336    2.7132   26.5681 C   0  0  0  0  0  0  0  0  0  0  0  0
   -6.3309    2.0536   27.2853 C   0  0  0  0  0  0  0  0  0  0  0  0
   -6.0697    0.7257   27.2175 C   0  0  0  0  0  0  0  0  0  0  0  0
   -6.9376   -0.0097   26.4117 C   0  0  0  0  0  0  0  0  0  0  0  0
   -8.3269    1.8243   26.1260 C   0  0  0  0  0  0  0  0  0  0  0  0
   -8.1049    0.5352   25.9365 C   0  0  0  0  0  0  0  0  0  0  0  0
  -10.0873    3.5974   26.2925 C   0  0  0  0  0  0  0  0  0  0  0  0
   -9.7080    2.3240   25.8482 C   0  0  1  0  0  0  0  0  0  0  0  0
   -4.8128    0.2068   27.8199 C   0  0  0  0  0  0  0  0  0  0  0  0
   -4.7783   -0.7806   28.0156 F   0  0  0  0  0  0  0  0  0  0  0  0
   -3.8504    1.0565   27.9508 F   0  0  0  0  0  0  0  0  0  0  0  0
  -10.5684    1.6382   24.9456 C   0  0  0  0  0  0  0  0  0  0  0  0
  -11.3013    2.2666   24.0365 C   0  0  0  0  0  0  0  0  0  0  0  0
  -11.8328    1.6522   23.0111 C   0  0  0  0  0  0  0  0  0  0  0  0
  -11.7253    0.2561   22.9417 C   0  0  0  0  0  0  0  0  0  0  0  0
  -10.9059   -0.4248   23.7930 C   0  0  0  0  0  0  0  0  0  0  0  0
  -10.2869    0.2439   24.8012 C   0  0  0  0  0  0  0  0  0  0  0  0
   -9.0494   -0.2685   25.2081 C   0  0  0  0  0  0  0  0  0  0  0  0
  1  2  1  0
  2  3  2  0
  1  4  1  0
  2 10  1  0
  8 11  1  0
 11 10  1  6
  6 12  1  0
 12 13  1  0
 12 14  1  0
 11 15  1  0
  9 21  1  0
 20 21  1  0
  4  5  2  0
  5  6  1  0
  6  7  2  0
  7  9  1  0
  9  8  2  0
  8  4  1  0
 15 16  2  0
 16 17  1  0
 17 18  2  0
 18 19  1  0
 19 20  2  0
 20 15  1  0
M  END
$$$$
