No_4946-complexes_sdf/6BKW-FPZ/2024-09-17-14-21-01/
     RDKit          3D

 26 29  0  0  0  0  0  0  0  0999 V2000
   -7.7129    4.2099   27.0854 C   0  0  0  0  0  0  0  0  0  0  0  0
   -8.2112    3.0637   26.9225 C   0  0  0  0  0  0  0  0  0  0  0  0
   -8.5108    5.3904   26.9436 C   0  0  0  0  0  0  0  0  0  0  0  0
   -9.7256    5.1955   26.3518 C   0  0  0  0  0  0  0  0  0  0  0  0
   -9.4995    2.8258   26.4878 C   0  0  0  0  0  0  0  0  0  0  0  0
  -10.2542    3.9691   26.2055 C   0  0  0  0  0  0  0  0  0  0  0  0
   -7.8138    6.9227   27.2348 Cl  0  0  0  0  0  0  0  0  0  0  0  0
   -7.3640    1.8353   27.2492 C   0  0  0  0  0  0  0  0  0  0  0  0
   -6.1498    2.0141   27.7477 N   0  0  0  0  0  0  0  0  0  0  0  0
   -5.3821    0.8639   28.0195 C   0  0  0  0  0  0  0  0  0  0  0  0
   -5.9434   -0.3310   27.8731 C   0  0  0  0  0  0  0  0  0  0  0  0
   -7.6988    0.4714   27.1756 C   0  0  0  0  0  0  0  0  0  0  0  0
   -7.1062   -0.5260   27.4883 C   0  0  0  0  0  0  0  0  0  0  0  0
   -4.0681    0.9589   28.5249 N   0  0  0  0  0  0  0  0  0  0  0  0
   -3.6123   -0.2513   28.8184 C   0  0  0  0  0  0  0  0  0  0  0  0
   -4.6568   -1.1017   28.5122 C   0  0  0  0  0  0  0  0  0  0  0  0
   -2.3481   -0.6125   29.3400 C   0  0  0  0  0  0  0  0  0  0  0  0
   -1.8899   -1.6597   29.7930 N   0  0  0  0  0  0  0  0  0  0  0  0
   -2.0598   -1.8501   31.0952 C   0  0  0  0  0  0  0  0  0  0  0  0
   -1.3405   -2.5893   28.9783 C   0  0  0  0  0  0  0  0  0  0  0  0
   -2.7461   -2.3594   31.6521 C   0  0  0  0  0  0  0  0  0  0  0  0
   -2.9730   -2.4557   33.1156 C   0  0  0  0  0  0  0  0  0  0  0  0
   -4.0801   -2.9317   33.7842 C   0  0  0  0  0  0  0  0  0  0  0  0
   -5.0988   -3.4435   32.9144 C   0  0  0  0  0  0  0  0  0  0  0  0
   -4.9774   -3.3531   31.5497 C   0  0  0  0  0  0  0  0  0  0  0  0
   -3.9533   -2.7723   30.9367 C   0  0  0  0  0  0  0  0  0  0  0  0
  3  7  1  0
  2  8  1  0
 10 14  1  0
 14 15  1  0
 11 16  1  0
 15 16  2  0
 15 17  1  0
 17 18  1  0
 18 19  1  0
 18 20  1  0
 19 21  1  0
 21 22  2  0
 22 23  1  0
 23 24  2  0
 24 25  1  0
 25 26  2  0
 26 21  1  0
  1  2  2  0
  2  5  1  0
  5  6  2  0
  6  4  1  0
  4  3  2  0
  3  1  1  0
  8  9  2  0
  9 10  1  0
 10 11  2  0
 11 13  1  0
 13 12  2  0
 12  8  1  0
M  END
$$$$
