No_4156-complexes_sdf/6BKW-FPZ/2024-09-17-14-21-01/
     RDKit          3D

 38 42  0  0  0  0  0  0  0  0999 V2000
   -7.7129    4.2099   27.0854 C   0  0  0  0  0  0  0  0  0  0  0  0
   -7.7814    5.1722   27.8972 C   0  0  0  0  0  0  0  0  0  0  0  0
   -8.8998    3.8713   26.3707 C   0  0  0  0  0  0  0  0  0  0  0  0
   -9.9938    4.6774   26.5446 C   0  0  0  0  0  0  0  0  0  0  0  0
   -8.7789    6.1536   27.9256 C   0  0  0  0  0  0  0  0  0  0  0  0
   -9.9428    5.8398   27.2296 C   0  0  0  0  0  0  0  0  0  0  0  0
   -8.9075    2.7268   25.6172 N   0  0  0  0  0  0  0  0  0  0  0  0
   -8.3680    1.5668   26.0858 C   0  0  0  0  0  0  0  0  0  0  0  0
   -9.0649    0.5040   26.1059 C   0  0  0  0  0  0  0  0  0  0  0  0
  -10.2741    0.4046   26.2273 C   0  0  0  0  0  0  0  0  0  0  0  0
  -11.0238   -0.8891   26.3210 C   0  0  0  0  0  0  0  0  0  0  0  0
  -10.2477   -2.0219   26.2817 C   0  0  0  0  0  0  0  0  0  0  0  0
   -8.3503   -0.8481   26.1881 C   0  0  0  0  0  0  0  0  0  0  0  0
   -8.9410   -1.9748   26.2756 C   0  0  0  0  0  0  0  0  0  0  0  0
   -9.5374    2.7170   24.3543 C   0  0  0  0  0  0  0  0  0  0  0  0
   -7.0993    1.6553   26.4575 O   0  0  0  0  0  0  0  0  0  0  0  0
   -8.1510   -3.2436   26.2707 C   0  0  0  0  0  0  0  0  0  0  0  0
   -8.3489   -4.1582   25.8004 C   0  0  0  0  0  0  0  0  0  0  0  0
   -7.7796   -5.1871   25.5618 C   0  0  0  0  0  0  0  0  0  0  0  0
   -6.4009   -5.2712   26.1252 C   0  0  0  0  0  0  0  0  0  0  0  0
   -5.9378   -4.1756   26.7773 C   0  0  0  0  0  0  0  0  0  0  0  0
   -6.7366   -3.0569   26.8548 C   0  0  0  0  0  0  0  0  0  0  0  0
   -6.6358    5.5723   28.6249 O   0  0  0  0  0  0  0  0  0  0  0  0
  -10.8005    3.1256   24.2474 C   0  0  0  0  0  0  0  0  0  0  0  0
  -11.4766    3.0594   23.0105 C   0  0  0  0  0  0  0  0  0  0  0  0
  -12.8085    3.5565   22.8860 C   0  0  0  0  0  0  0  0  0  0  0  0
  -13.5017    3.4159   21.7464 C   0  0  0  0  0  0  0  0  0  0  0  0
  -12.8254    2.9486   20.5695 C   0  0  0  0  0  0  0  0  0  0  0  0
  -10.9255    2.6014   21.7368 C   0  0  0  0  0  0  0  0  0  0  0  0
  -11.5722    2.5312   20.6269 C   0  0  0  0  0  0  0  0  0  0  0  0
  -12.4731   -0.9147   26.3525 C   0  0  1  0  0  0  0  0  0  0  0  0
  -13.1423   -0.4377   27.3031 C   0  0  0  0  0  0  0  0  0  0  0  0
  -12.4597    0.1273   28.4458 C   0  0  0  0  0  0  0  0  0  0  0  0
  -13.2527    0.7816   29.5375 C   0  0  0  0  0  0  0  0  0  0  0  0
  -14.5616    0.6227   29.5410 C   0  0  0  0  0  0  0  0  0  0  0  0
  -15.2429    0.0869   28.4584 C   0  0  0  0  0  0  0  0  0  0  0  0
  -14.5544   -0.4170   27.4251 C   0  0  0  0  0  0  0  0  0  0  0  0
  -12.8834   -0.9381   25.2189 F   0  0  0  0  0  0  0  0  0  0  0  0
  3  7  1  0
  7  8  1  0
  8  9  1  0
  7 15  1  0
  8 16  2  0
 14 17  1  0
  2 23  1  0
 15 24  2  3
 24 25  1  0
 11 31  1  0
 31 38  1  6
 31 32  1  0
 32 33  2  0
 33 34  1  0
 34 35  2  0
 35 36  1  0
 36 37  2  0
 37 32  1  0
 25 26  2  0
 26 27  1  0
 27 28  2  0
 28 30  1  0
 30 29  2  0
 29 25  1  0
  9 10  2  0
 10 11  1  0
 11 12  2  0
 12 14  1  0
 14 13  2  0
 13  9  1  0
 17 18  2  0
 18 19  1  0
 19 20  2  0
 20 21  1  0
 21 22  2  0
 22 17  1  0
  1  2  2  0
  2  5  1  0
  5  6  2  0
  6  4  1  0
  4  3  2  0
  3  1  1  0
M  END
$$$$
