No_4200-complexes_sdf/6BKW-FPZ/2024-09-17-14-21-01/
     RDKit          3D

 22 24  0  0  0  0  0  0  0  0999 V2000
   -7.9040    3.9820   27.1177 C   0  0  0  0  0  0  0  0  0  0  0  0
   -9.0711    4.3164   27.0630 C   0  0  0  0  0  0  0  0  0  0  0  0
  -10.0395    3.8218   27.1938 C   0  0  0  0  0  0  0  0  0  0  0  0
   -7.6424    2.5858   27.3610 C   0  0  0  0  0  0  0  0  0  0  0  0
   -8.7646    1.7754   27.4263 C   0  0  0  0  0  0  0  0  0  0  0  0
   -9.9966    2.3406   27.3957 C   0  0  0  0  0  0  0  0  0  0  0  0
   -6.2872    2.0438   27.3877 C   0  0  0  0  0  0  0  0  0  0  0  0
   -6.0159    0.7024   27.3044 C   0  0  0  0  0  0  0  0  0  0  0  0
   -4.8365    0.3511   27.2073 C   0  0  0  0  0  0  0  0  0  0  0  0
   -4.4507   -1.0298   27.1183 C   0  0  0  0  0  0  0  0  0  0  0  0
   -5.4293   -1.9465   27.1000 C   0  0  0  0  0  0  0  0  0  0  0  0
   -6.8948   -0.3528   27.2761 C   0  0  0  0  0  0  0  0  0  0  0  0
   -6.6746   -1.5764   27.1940 C   0  0  0  0  0  0  0  0  0  0  0  0
   -8.5346    0.2942   27.4969 C   0  0  0  0  0  0  0  0  0  0  0  0
   -9.1629    5.9857   26.8820 C   0  0  0  0  0  0  0  0  0  0  0  0
   -9.1359    6.4290   25.6725 F   0  0  0  0  0  0  0  0  0  0  0  0
  -10.2793    6.5286   27.4228 F   0  0  0  0  0  0  0  0  0  0  0  0
   -8.0837    6.6676   27.4710 F   0  0  0  0  0  0  0  0  0  0  0  0
   -9.6451   -0.8592   27.0958 Cl  0  0  0  0  0  0  0  0  0  0  0  0
   -2.9494   -1.3450   27.0102 C   0  0  0  0  0  0  0  0  0  0  0  0
   -2.3276   -0.5824   26.2915 O   0  0  0  0  0  0  0  0  0  0  0  0
   -2.4894   -2.3125   27.5969 O   0  0  0  0  0  0  0  0  0  0  0  0
  2 15  1  0
 15 16  1  0
 15 17  1  0
 15 18  1  0
 14 19  1  0
 10 20  1  0
 20 21  1  0
 20 22  2  0
  1  2  2  0
  2  3  1  0
  3  6  2  0
  6  5  1  0
  4  1  1  0
  4  5  2  0
  5 14  1  0
 14 12  2  0
  8  7  2  0
  7  4  1  0
  8  9  1  0
  9 10  2  0
 10 11  1  0
 11 13  2  0
 13 12  1  0
 12  8  1  0
M  END
$$$$
