No_4657-complexes_sdf/6BKW-FPZ/2024-09-17-14-21-01/
     RDKit          3D

 19 22  0  0  0  0  0  0  0  0999 V2000
   -7.9040    3.9820   27.1177 C   0  0  0  0  0  0  0  0  0  0  0  0
   -7.8663    4.8694   27.9238 C   0  0  0  0  0  0  0  0  0  0  0  0
   -9.0491    3.8523   26.2542 C   0  0  0  0  0  0  0  0  0  0  0  0
   -8.7661    5.9491   27.9690 C   0  0  0  0  0  0  0  0  0  0  0  0
   -9.9295    4.8502   26.2323 C   0  0  0  0  0  0  0  0  0  0  0  0
   -9.8077    5.9288   27.0933 C   0  0  0  0  0  0  0  0  0  0  0  0
   -9.0726    2.7074   25.3087 C   0  0  2  0  0  0  0  0  0  0  0  0
   -9.9759    2.7847   24.3262 N   0  0  0  0  0  0  0  0  0  0  0  0
  -10.5648    3.8085   23.8842 C   0  0  0  0  0  0  0  0  0  0  0  0
  -10.7598    4.8368   25.0396 N   0  0  0  0  0  0  0  0  0  0  0  0
   -9.9711    1.6839   23.3424 C   0  0  0  0  0  0  0  0  0  0  0  0
  -11.3160    4.0558   23.0073 O   0  0  0  0  0  0  0  0  0  0  0  0
   -6.9005    2.8508   27.2698 C   0  0  1  0  0  0  0  0  0  0  0  0
   -5.7241    3.1386   27.8170 N   0  0  0  0  0  0  0  0  0  0  0  0
   -7.2112    1.4735   27.0173 C   0  0  0  0  0  0  0  0  0  0  0  0
   -8.3322    0.8074   26.9820 C   0  0  0  0  0  0  0  0  0  0  0  0
   -9.1196    1.3680   25.7933 C   0  0  2  0  0  0  0  0  0  0  0  0
   -8.8411    0.4812   24.5516 C   0  0  0  0  0  0  0  0  0  0  0  0
   -9.7217    0.6304   23.6197 C   0  0  0  0  0  0  0  0  0  0  0  0
  3  7  1  0
  7  8  1  6
  8  9  1  0
  5 10  1  0
  9 10  1  0
  8 11  1  0
  9 12  2  0
  1 13  1  0
 13 14  1  1
 13 15  1  0
 15 16  2  0
  7 17  1  0
 16 17  1  0
 17 18  1  6
 11 19  1  0
 18 19  1  0
  1  2  2  0
  2  4  1  0
  4  6  2  0
  6  5  1  0
  5  3  2  0
  3  1  1  0
M  END
$$$$
