No_4030-complexes_sdf/6BKW-FPZ/2024-09-17-14-21-01/
     RDKit          3D

 26 28  0  0  0  0  0  0  0  0999 V2000
   -7.7129    4.2099   27.0854 C   0  0  0  0  0  0  0  0  0  0  0  0
   -8.2112    3.0637   26.9225 C   0  0  0  0  0  0  0  0  0  0  0  0
   -9.4446    2.8304   26.1868 C   0  0  0  0  0  0  0  0  0  0  0  0
   -6.6388    4.5347   28.1122 C   0  0  0  0  0  0  0  0  0  0  0  0
   -9.9448    3.9173   25.5585 C   0  0  0  0  0  0  0  0  0  0  0  0
   -9.3660    5.1901   25.7094 C   0  0  0  0  0  0  0  0  0  0  0  0
   -8.3659    5.4005   26.5436 C   0  0  0  0  0  0  0  0  0  0  0  0
  -11.1204    3.7819   24.6448 C   0  0  0  0  0  0  0  0  0  0  0  0
  -11.2528    2.7082   23.8888 C   0  0  0  0  0  0  0  0  0  0  0  0
  -10.4071    1.6394   24.0063 C   0  0  0  0  0  0  0  0  0  0  0  0
   -9.5099    1.6092   25.2110 C   0  0  0  0  0  0  0  0  0  0  0  0
   -8.7075    0.4150   25.5127 C   0  0  0  0  0  0  0  0  0  0  0  0
   -9.2061   -0.4029   25.8406 N   0  0  0  0  0  0  0  0  0  0  0  0
  -10.1718   -0.6932   26.5096 C   0  0  1  0  0  0  0  0  0  0  0  0
  -10.5815   -2.0455   26.8254 C   0  0  0  0  0  0  0  0  0  0  0  0
   -8.5847   -1.7961   25.4308 C   0  0  0  0  0  0  0  0  0  0  0  0
   -9.1176   -2.9246   25.6672 C   0  0  0  0  0  0  0  0  0  0  0  0
  -10.0782   -3.1277   26.4958 C   0  0  0  0  0  0  0  0  0  0  0  0
   -7.4240    0.7037   25.3163 O   0  0  0  0  0  0  0  0  0  0  0  0
  -10.8994    0.3511   27.1491 N   0  0  0  0  0  0  0  0  0  0  0  0
  -10.8962    0.6442   28.3249 C   0  0  0  0  0  0  0  0  0  0  0  0
  -11.7730    1.7737   28.8225 C   0  0  0  0  0  0  0  0  0  0  0  0
  -12.8179    2.1641   28.5008 C   0  0  0  0  0  0  0  0  0  0  0  0
  -13.4658    3.3758   28.8887 C   0  0  0  0  0  0  0  0  0  0  0  0
  -13.5810    4.4277   28.6393 C   0  0  0  0  0  0  0  0  0  0  0  0
  -12.8295    5.0024   27.4712 C   0  0  0  0  0  0  0  0  0  0  0  0
  1  4  1  0
 11 12  1  0
 12 13  1  0
 13 14  1  0
 13 16  1  0
 15 18  1  0
 17 18  1  0
 12 19  2  0
 14 20  1  1
 20 21  1  0
 21 22  2  3
 22 23  1  0
 23 24  2  3
 24 25  1  0
 25 26  2  0
 14 15  1  0
 17 16  1  0
  5  8  2  0
  8  9  1  0
  9 10  2  0
 10 11  1  0
 11  3  2  0
  1  2  2  0
  2  3  1  0
  3  5  1  0
  5  6  1  0
  6  7  2  0
  7  1  1  0
M  END
$$$$
