No_4875-complexes_sdf/6BKW-FPZ/2024-09-17-14-21-01/
     RDKit          3D

  6  5  0  0  0  0  0  0  0  0999 V2000
   -7.9040    3.9820   27.1177 C   0  0  0  0  0  0  0  0  0  0  0  0
   -8.2057    2.8231   26.8733 C   0  0  0  0  0  0  0  0  0  0  0  0
   -7.0215    4.6665   27.9638 C   0  0  0  0  0  0  0  0  0  0  0  0
   -9.3515    2.3500   26.2663 C   0  0  0  0  0  0  0  0  0  0  0  0
  -10.1695    3.2531   25.6711 C   0  0  0  0  0  0  0  0  0  0  0  0
   -9.8560    4.6349   25.8073 C   0  0  0  0  0  0  0  0  0  0  0  0
  1  2  3  0
  1  3  1  0
  2  4  1  0
  4  5  2  3
  5  6  1  0
M  END
$$$$
