No_4893-complexes_sdf/6BKW-FPZ/2024-09-17-14-21-01/
     RDKit          3D

 15 16  0  0  0  0  0  0  0  0999 V2000
   -7.9040    3.9820   27.1177 C   0  0  0  0  0  0  0  0  0  0  0  0
   -8.2057    2.8231   26.8733 C   0  0  0  0  0  0  0  0  0  0  0  0
   -8.7695    5.0740   26.7916 C   0  0  0  0  0  0  0  0  0  0  0  0
   -8.4337    6.4678   27.0913 C   0  0  0  0  0  0  0  0  0  0  0  0
   -9.3742    2.4311   26.2346 C   0  0  0  0  0  0  0  0  0  0  0  0
  -10.2395    3.4267   25.8887 C   0  0  0  0  0  0  0  0  0  0  0  0
   -9.9567    4.7548   26.1374 C   0  0  0  0  0  0  0  0  0  0  0  0
   -7.8881    6.8714   28.1602 N   0  0  0  0  0  0  0  0  0  0  0  0
   -8.7714    7.4102   26.1908 N   0  0  0  0  0  0  0  0  0  0  0  0
   -7.2517    1.6778   27.2784 C   0  0  0  0  0  0  0  0  0  0  0  0
   -6.1067    1.9949   27.8610 N   0  0  0  0  0  0  0  0  0  0  0  0
   -7.5906    0.3263   27.2352 C   0  0  0  0  0  0  0  0  0  0  0  0
   -5.1324    0.9775   28.0641 C   0  0  0  0  0  0  0  0  0  0  0  0
   -5.4037   -0.2783   28.1065 C   0  0  0  0  0  0  0  0  0  0  0  0
   -6.6946   -0.6119   27.6514 C   0  0  0  0  0  0  0  0  0  0  0  0
  3  4  1  0
  4  8  2  0
  4  9  1  0
  2 10  1  0
 10 11  2  0
 11 13  1  0
 13 14  2  0
 14 15  1  0
 15 12  2  0
 12 10  1  0
  1  2  2  0
  2  5  1  0
  5  6  2  0
  6  7  1  0
  7  3  2  0
  3  1  1  0
M  END
$$$$
