No_4116-complexes_sdf/6BKW-FPZ/2024-09-17-14-21-01/
     RDKit          3D

 23 25  0  0  0  0  0  0  0  0999 V2000
   -7.9040    3.9820   27.1177 C   0  0  0  0  0  0  0  0  0  0  0  0
   -7.8663    4.8694   27.9238 C   0  0  0  0  0  0  0  0  0  0  0  0
   -9.0953    3.1697   27.0532 C   0  0  0  0  0  0  0  0  0  0  0  0
   -9.1405    2.0104   26.1761 C   0  0  0  0  0  0  0  0  0  0  0  0
   -9.0299    5.5381   28.3948 C   0  0  0  0  0  0  0  0  0  0  0  0
  -10.2709    4.9222   28.1362 C   0  0  0  0  0  0  0  0  0  0  0  0
  -10.2487    3.7550   27.4045 C   0  0  0  0  0  0  0  0  0  0  0  0
   -9.8414    1.7696   25.2539 C   0  0  0  0  0  0  0  0  0  0  0  0
   -9.7739    0.5809   24.4617 C   0  0  0  0  0  0  0  0  0  0  0  0
   -8.7705   -0.3338   24.7171 C   0  0  0  0  0  0  0  0  0  0  0  0
   -8.0407    0.9490   26.5360 C   0  0  0  0  0  0  0  0  0  0  0  0
   -7.9345   -0.1503   25.8616 C   0  0  0  0  0  0  0  0  0  0  0  0
  -11.5534    3.0744   27.1835 C   0  0  0  0  0  0  0  0  0  0  0  0
  -11.9208    2.0525   27.9101 C   0  0  0  0  0  0  0  0  0  0  0  0
  -12.9897    1.2434   27.7211 C   0  0  0  0  0  0  0  0  0  0  0  0
  -13.7532    1.5655   26.5978 C   0  0  0  0  0  0  0  0  0  0  0  0
  -12.3110    3.3373   26.0324 C   0  0  0  0  0  0  0  0  0  0  0  0
  -13.4282    2.6694   25.7854 C   0  0  0  0  0  0  0  0  0  0  0  0
  -10.9037    0.2791   23.0153 Br  0  0  0  0  0  0  0  0  0  0  0  0
  -14.9589    0.7760   26.2844 C   0  0  0  0  0  0  0  0  0  0  0  0
  -15.3540   -0.0993   26.9140 F   0  0  0  0  0  0  0  0  0  0  0  0
  -15.9552    1.6734   26.0372 F   0  0  0  0  0  0  0  0  0  0  0  0
  -14.6883    0.2477   24.9905 F   0  0  0  0  0  0  0  0  0  0  0  0
  3  4  1  0
  7 13  1  0
  9 19  1  0
 16 20  1  0
 20 21  1  0
 20 22  1  0
 20 23  1  0
  4  8  2  0
  8  9  1  0
  9 10  2  0
 10 12  1  0
 12 11  2  0
 11  4  1  0
 13 14  2  0
 14 15  1  0
 15 16  2  0
 16 18  1  0
 18 17  2  0
 17 13  1  0
  1  2  2  0
  2  5  1  0
  5  6  2  0
  6  7  1  0
  7  3  2  0
  3  1  1  0
M  END
$$$$
