No_4382-complexes_sdf/6BKW-FPZ/2024-09-17-14-21-01/
     RDKit          3D

 21 25  0  0  0  0  0  0  0  0999 V2000
   -7.7129    4.2099   27.0854 C   0  0  0  0  0  0  0  0  0  0  0  0
   -8.9133    4.4736   27.0998 C   0  0  0  0  0  0  0  0  0  0  0  0
   -9.7135    3.9633   26.0300 C   0  0  0  0  0  0  0  0  0  0  0  0
   -7.1708    2.9509   26.6517 C   0  0  0  0  0  0  0  0  0  0  0  0
   -8.1422    2.1350   26.0104 C   0  0  0  0  0  0  0  0  0  0  0  0
   -9.3363    2.7131   25.6563 C   0  0  0  0  0  0  0  0  0  0  0  0
  -10.2574    1.9443   24.7747 C   0  0  0  0  0  0  0  0  0  0  0  0
  -11.1473    2.2454   24.1177 C   0  0  0  0  0  0  0  0  0  0  0  0
  -11.9400    1.4294   23.2090 C   0  0  0  0  0  0  0  0  0  0  0  0
  -11.4923    0.1069   23.0877 C   0  0  0  0  0  0  0  0  0  0  0  0
   -9.8483    0.5723   24.4725 C   0  0  0  0  0  0  0  0  0  0  0  0
  -10.4370   -0.2643   23.7081 C   0  0  0  0  0  0  0  0  0  0  0  0
   -6.8480    4.8807   28.0782 N   0  0  0  0  0  0  0  0  0  0  0  0
   -7.5640    6.0310   28.5189 C   0  0  0  0  0  0  0  0  0  0  0  0
   -8.8774    5.8250   27.7780 C   0  0  0  0  0  0  0  0  0  0  0  0
   -8.5149    0.0528   25.1699 C   0  0  0  0  0  0  0  0  0  0  0  0
   -7.7493    0.8469   25.7541 C   0  0  0  0  0  0  0  0  0  0  0  0
   -8.2077   -1.3583   24.9017 C   0  0  0  0  0  0  0  0  0  0  0  0
   -8.8972   -2.1363   24.1596 C   0  0  0  0  0  0  0  0  0  0  0  0
  -10.0358   -1.6411   23.4790 C   0  0  0  0  0  0  0  0  0  0  0  0
  -13.1467    1.9670   22.5505 C   0  0  0  0  0  0  0  0  0  0  0  0
  6  7  1  0
  1 13  1  0
 13 14  2  0
  2 15  1  0
 14 15  1  0
  5 17  1  0
 16 17  1  0
  9 21  1  0
  7  8  2  0
  8  9  1  0
  9 10  2  0
 10 12  1  0
 11  7  1  0
 11 12  2  0
 12 20  1  0
 20 19  2  0
 19 18  1  0
 18 16  2  0
 16 11  1  0
  1  2  1  0
  2  3  2  0
  3  6  1  0
  6  5  2  0
  5  4  1  0
  4  1  2  0
M  END
$$$$
