No_4418-complexes_sdf/6BKW-FPZ/2024-09-17-14-21-01/
     RDKit          3D

 31 33  0  0  0  0  0  0  0  0999 V2000
   -7.9040    3.9820   27.1177 C   0  0  0  0  0  0  0  0  0  0  0  0
   -8.2057    2.8231   26.8733 C   0  0  0  0  0  0  0  0  0  0  0  0
   -8.7695    5.0740   26.7916 C   0  0  0  0  0  0  0  0  0  0  0  0
   -9.9618    4.7598   26.1630 C   0  0  0  0  0  0  0  0  0  0  0  0
   -9.4200    2.4524   26.2849 C   0  0  0  0  0  0  0  0  0  0  0  0
  -10.2590    3.4815   25.9250 C   0  0  0  0  0  0  0  0  0  0  0  0
   -8.3840    6.4693   27.0829 C   0  0  0  0  0  0  0  0  0  0  0  0
   -7.9676    7.4862   26.9931 N   0  0  0  0  0  0  0  0  0  0  0  0
   -7.4892    1.5292   27.2396 C   0  0  0  0  0  0  0  0  0  0  0  0
   -6.2435    1.7476   27.7832 N   0  0  0  0  0  0  0  0  0  0  0  0
   -5.4859    0.6458   28.1095 C   0  0  0  0  0  0  0  0  0  0  0  0
   -4.1436    0.8789   28.6926 C   0  0  0  0  0  0  0  0  0  0  0  0
   -5.9663   -0.6326   27.9843 C   0  0  0  0  0  0  0  0  0  0  0  0
   -8.1394    0.4781   27.2848 O   0  0  0  0  0  0  0  0  0  0  0  0
   -5.0618   -1.6496   28.4855 C   0  0  0  0  0  0  0  0  0  0  0  0
   -3.3764   -0.1066   29.1886 C   0  0  0  0  0  0  0  0  0  0  0  0
   -3.8177   -1.3800   29.0914 C   0  0  0  0  0  0  0  0  0  0  0  0
   -3.1233   -2.5835   29.5878 C   0  0  0  0  0  0  0  0  0  0  0  0
   -3.1416   -3.5703   29.1144 C   0  0  0  0  0  0  0  0  0  0  0  0
   -2.1945   -4.5828   29.5085 C   0  0  0  0  0  0  0  0  0  0  0  0
   -1.3224   -4.3697   30.5868 C   0  0  0  0  0  0  0  0  0  0  0  0
   -2.0955   -2.1614   30.6595 C   0  0  0  0  0  0  0  0  0  0  0  0
   -1.2699   -3.0899   31.1522 C   0  0  0  0  0  0  0  0  0  0  0  0
  -11.5367    3.2217   25.1923 C   0  0  0  0  0  0  0  0  0  0  0  0
  -12.6590    3.0609   25.8071 C   0  0  0  0  0  0  0  0  0  0  0  0
  -12.7558    2.7948   27.0858 C   0  0  0  0  0  0  0  0  0  0  0  0
  -13.4176    2.7178   27.9507 C   0  0  0  0  0  0  0  0  0  0  0  0
  -13.1679    2.3250   29.4058 C   0  0  0  0  0  0  0  0  0  0  0  0
  -14.0603    2.3328   30.4514 C   0  0  0  0  0  0  0  0  0  0  0  0
  -15.3681    2.7064   30.1908 C   0  0  0  0  0  0  0  0  0  0  0  0
  -15.7114    3.0875   28.9338 C   0  0  0  0  0  0  0  0  0  0  0  0
  3  7  1  0
  7  8  3  0
  2  9  1  0
  9 10  1  0
  9 14  2  0
 17 18  1  0
  6 24  1  0
 24 25  1  0
 25 26  2  3
 26 27  1  0
 27 28  2  3
 28 29  1  0
 29 30  2  3
 30 31  1  0
 10 11  1  0
 18 19  2  0
 19 20  1  0
 20 21  2  0
 21 23  1  0
 23 22  2  0
 22 18  1  0
 11 12  2  0
 12 16  1  0
 16 17  2  0
 17 15  1  0
 15 13  2  0
 13 11  1  0
  1  2  2  0
  2  5  1  0
  5  6  2  0
  6  4  1  0
  4  3  2  0
  3  1  1  0
M  END
$$$$
