No_4763-complexes_sdf/6BKW-FPZ/2024-09-17-14-21-01/
     RDKit          3D

  9  9  0  0  0  0  0  0  0  0999 V2000
   -7.2496    3.8871   27.4508 C   0  0  0  0  0  0  0  0  0  0  0  0
   -8.5096    4.0291   27.2770 C   0  0  0  0  0  0  0  0  0  0  0  0
   -9.2669    5.1645   27.5845 C   0  0  0  0  0  0  0  0  0  0  0  0
  -10.6621    5.2321   27.4284 C   0  0  0  0  0  0  0  0  0  0  0  0
   -9.2831    2.8719   26.7564 C   0  0  0  0  0  0  0  0  0  0  0  0
   -8.5831    1.7059   26.4529 C   0  0  0  0  0  0  0  0  0  0  0  0
   -6.5244    2.6560   27.3971 C   0  0  0  0  0  0  0  0  0  0  0  0
   -7.2358    1.5939   26.8620 C   0  0  0  0  0  0  0  0  0  0  0  0
   -8.5761    6.4730   27.0676 C   0  0  0  0  0  0  0  0  0  0  0  0
  2  3  1  0
  3  4  1  0
  3  9  1  0
  1  2  2  0
  2  5  1  0
  5  6  2  0
  6  8  1  0
  8  7  2  0
  7  1  1  0
M  END
$$$$
