No_4298-complexes_sdf/6BKW-FPZ/2024-09-17-14-21-01/
     RDKit          3D

 31 34  0  0  0  0  0  0  0  0999 V2000
   -7.9040    3.9820   27.1177 C   0  0  0  0  0  0  0  0  0  0  0  0
   -8.2057    2.8231   26.8733 C   0  0  0  0  0  0  0  0  0  0  0  0
   -9.2962    2.4021   26.1155 C   0  0  0  0  0  0  0  0  0  0  0  0
   -8.7358    5.0662   26.5917 C   0  0  0  0  0  0  0  0  0  0  0  0
   -9.7618    4.7023   25.7546 C   0  0  0  0  0  0  0  0  0  0  0  0
  -10.0066    3.4105   25.4922 C   0  0  0  0  0  0  0  0  0  0  0  0
   -8.3936    6.4769   26.8843 C   0  0  0  0  0  0  0  0  0  0  0  0
   -8.6672    7.3248   26.1418 F   0  0  0  0  0  0  0  0  0  0  0  0
   -8.9022    6.6135   28.1638 F   0  0  0  0  0  0  0  0  0  0  0  0
   -7.0220    6.5735   27.1791 F   0  0  0  0  0  0  0  0  0  0  0  0
   -7.3503    1.6665   27.4956 C   0  0  0  0  0  0  0  0  0  0  0  0
   -7.7112    0.3372   27.3910 C   0  0  0  0  0  0  0  0  0  0  0  0
   -6.8506   -0.6323   27.8714 C   0  0  0  0  0  0  0  0  0  0  0  0
   -5.5715   -0.2500   28.3599 C   0  0  0  0  0  0  0  0  0  0  0  0
   -5.1611    1.0938   28.2932 C   0  0  0  0  0  0  0  0  0  0  0  0
   -5.9693    2.0134   27.8543 C   0  0  0  0  0  0  0  0  0  0  0  0
   -4.6587   -1.3099   28.8975 C   0  0  0  0  0  0  0  0  0  0  0  0
   -3.2546   -1.4734   28.7229 Cl  0  0  0  0  0  0  0  0  0  0  0  0
   -5.3333   -2.5959   28.7182 F   0  0  0  0  0  0  0  0  0  0  0  0
   -4.9141   -1.1945   30.3885 F   0  0  0  0  0  0  0  0  0  0  0  0
  -11.1271    3.1450   24.5818 C   0  0  0  0  0  0  0  0  0  0  0  0
  -12.3285    2.8861   25.0360 C   0  0  0  0  0  0  0  0  0  0  0  0
  -10.8624    3.1069   23.1738 C   0  0  0  0  0  0  0  0  0  0  0  0
   -9.6563    3.2895   22.5495 C   0  0  0  0  0  0  0  0  0  0  0  0
  -12.0573    2.9504   22.3493 C   0  0  0  0  0  0  0  0  0  0  0  0
  -12.5794    2.7687   26.4521 C   0  0  0  0  0  0  0  0  0  0  0  0
  -13.8818    2.5394   26.9761 C   0  0  0  0  0  0  0  0  0  0  0  0
  -14.8581    2.5572   26.1044 C   0  0  0  0  0  0  0  0  0  0  0  0
  -14.7498    2.7727   24.7443 C   0  0  0  0  0  0  0  0  0  0  0  0
  -13.4711    3.0053   24.2246 C   0  0  0  0  0  0  0  0  0  0  0  0
  -13.3494    3.0319   22.8087 C   0  0  0  0  0  0  0  0  0  0  0  0
  4  7  1  0
  7  8  1  0
  7  9  1  0
  7 10  1  0
  2 11  1  0
 14 17  1  0
 17 18  1  0
 17 19  1  0
 17 20  1  0
  6 21  1  0
 23 24  1  0
 21 22  2  0
 30 31  2  0
 31 25  1  0
 25 23  2  0
 23 21  1  0
 11 12  2  0
 12 13  1  0
 13 14  2  0
 14 15  1  0
 15 16  2  0
 16 11  1  0
 22 26  1  0
 26 27  2  0
 27 28  1  0
 28 29  2  0
 29 30  1  0
 30 22  1  0
  1  2  2  0
  2  3  1  0
  3  6  2  0
  6  5  1  0
  5  4  2  0
  4  1  1  0
M  END
$$$$
