No_4721-complexes_sdf/6BKW-FPZ/2024-09-17-14-21-01/
     RDKit          3D

 40 45  0  0  0  0  0  0  0  0999 V2000
   -7.2496    3.8871   27.4508 C   0  0  0  0  0  0  0  0  0  0  0  0
   -7.6161    2.7143   27.1523 C   0  0  0  0  0  0  0  0  0  0  0  0
   -8.6211    2.2238   26.4073 C   0  0  0  0  0  0  0  0  0  0  0  0
   -8.2540    4.9237   27.1711 C   0  0  0  0  0  0  0  0  0  0  0  0
   -9.3729    4.5806   26.4432 C   0  0  0  0  0  0  0  0  0  0  0  0
   -9.5830    3.2968   26.1025 C   0  0  0  0  0  0  0  0  0  0  0  0
   -7.9304    6.3207   27.5389 C   0  0  0  0  0  0  0  0  0  0  0  0
   -8.8115    7.3691   27.0321 C   0  0  0  0  0  0  0  0  0  0  0  0
   -6.5963    1.5413   27.5720 C   0  0  0  0  0  0  0  0  0  0  0  0
   -5.3386    1.8707   28.1382 C   0  0  0  0  0  0  0  0  0  0  0  0
   -4.4389    0.8452   28.4643 C   0  0  0  0  0  0  0  0  0  0  0  0
   -4.8176   -0.4772   28.4612 C   0  0  0  0  0  0  0  0  0  0  0  0
   -6.8139    0.1683   27.6519 C   0  0  0  0  0  0  0  0  0  0  0  0
   -3.9567   -1.4968   28.9431 C   0  0  0  0  0  0  0  0  0  0  0  0
   -6.0474   -0.7765   28.0268 C   0  0  0  0  0  0  0  0  0  0  0  0
   -3.7387   -2.4620   28.5259 C   0  0  0  0  0  0  0  0  0  0  0  0
   -2.7513   -3.4892   29.0257 C   0  0  0  0  0  0  0  0  0  0  0  0
   -2.4521   -4.6595   28.4669 C   0  0  0  0  0  0  0  0  0  0  0  0
   -1.9517   -2.7880   30.1526 C   0  0  0  0  0  0  0  0  0  0  0  0
   -2.1716   -1.6148   30.6564 C   0  0  0  0  0  0  0  0  0  0  0  0
   -3.0785   -0.7984   30.0967 C   0  0  0  0  0  0  0  0  0  0  0  0
  -10.7460    2.9398   25.2525 C   0  0  2  0  0  0  0  0  0  0  0  0
  -10.8613    3.4297   24.0173 C   0  0  0  0  0  0  0  0  0  0  0  0
  -11.9395    3.1642   23.1431 C   0  0  0  0  0  0  0  0  0  0  0  0
  -11.8411    3.4950   21.8464 C   0  0  0  0  0  0  0  0  0  0  0  0
  -10.7419    4.2854   21.3162 C   0  0  0  0  0  0  0  0  0  0  0  0
   -9.7862    4.6626   22.2304 C   0  0  0  0  0  0  0  0  0  0  0  0
   -9.7698    4.2990   23.4675 C   0  0  0  0  0  0  0  0  0  0  0  0
  -11.9499    3.2006   26.1318 C   0  0  0  0  0  0  0  0  0  0  0  0
  -12.5654    4.1803   26.4839 C   0  0  0  0  0  0  0  0  0  0  0  0
  -13.7037    4.3349   27.3034 C   0  0  0  0  0  0  0  0  0  0  0  0
  -14.2258    5.5684   27.6451 C   0  0  0  0  0  0  0  0  0  0  0  0
  -14.2452    3.1772   27.9146 C   0  0  0  0  0  0  0  0  0  0  0  0
  -14.4031    3.1253   29.1376 C   0  0  0  0  0  0  0  0  0  0  0  0
  -14.9487    5.6459   28.9216 C   0  0  0  0  0  0  0  0  0  0  0  0
  -15.1009    4.4566   29.6971 C   0  0  0  0  0  0  0  0  0  0  0  0
  -15.6776    4.4891   30.8755 F   0  0  0  0  0  0  0  0  0  0  0  0
   -2.6493   -5.1754   27.6038 C   0  0  0  0  0  0  0  0  0  0  0  0
   -3.4539   -4.4366   26.5530 C   0  0  0  0  0  0  0  0  0  0  0  0
   -4.0611   -3.1547   27.0192 C   0  0  0  0  0  0  0  0  0  0  0  0
  4  7  1  0
  7  8  1  0
  2  9  1  0
 12 14  1  0
 22  6  1  1
 22 29  1  0
 29 30  2  3
 30 31  1  0
 36 37  1  0
 22 23  1  0
 23 24  2  0
 24 25  1  0
 25 26  2  0
 26 27  1  0
 27 28  2  0
 28 23  1  0
  1  2  2  0
  2  3  1  0
  3  6  2  0
  6  5  1  0
  5  4  2  0
  4  1  1  0
 31 32  2  0
 32 35  1  0
 35 36  2  0
 36 34  1  0
 34 33  2  0
 33 31  1  0
 14 16  1  0
 17 19  1  0
 19 20  2  0
 20 21  1  0
 21 14  2  0
  9 10  2  0
 10 11  1  0
 11 12  2  0
 12 15  1  0
 15 13  2  0
 13  9  1  0
 16 17  1  0
 17 18  2  0
 18 38  1  0
 38 39  2  0
 39 40  1  0
 40 16  2  0
M  END
$$$$
