No_4379-complexes_sdf/6BKW-FPZ/2024-09-17-14-21-01/
     RDKit          3D

 22 24  0  0  0  0  0  0  0  0999 V2000
   -7.9040    3.9820   27.1177 C   0  0  0  0  0  0  0  0  0  0  0  0
   -7.8663    4.8694   27.9238 C   0  0  0  0  0  0  0  0  0  0  0  0
   -9.0491    3.8523   26.2542 C   0  0  0  0  0  0  0  0  0  0  0  0
   -8.7661    5.9491   27.9690 C   0  0  0  0  0  0  0  0  0  0  0  0
   -9.9295    4.8502   26.2323 C   0  0  0  0  0  0  0  0  0  0  0  0
   -9.8077    5.9288   27.0933 C   0  0  0  0  0  0  0  0  0  0  0  0
   -6.9996    2.9096   27.1565 O   0  0  0  0  0  0  0  0  0  0  0  0
   -7.3398    1.5998   26.9303 C   0  0  0  0  0  0  0  0  0  0  0  0
   -6.3550    0.7362   27.3720 C   0  0  0  0  0  0  0  0  0  0  0  0
   -6.5544   -0.6599   27.2259 C   0  0  0  0  0  0  0  0  0  0  0  0
   -7.8175   -1.0549   26.7456 C   0  0  0  0  0  0  0  0  0  0  0  0
   -8.4866    0.9195   26.6115 C   0  0  0  0  0  0  0  0  0  0  0  0
   -8.7518   -0.2386   26.4901 C   0  0  0  0  0  0  0  0  0  0  0  0
   -5.0261    1.1931   27.8889 C   0  0  0  0  0  0  0  0  0  0  0  0
   -4.3065    0.4360   28.6939 C   0  0  0  0  0  0  0  0  0  0  0  0
   -3.3019    0.1513   29.0528 C   0  0  0  0  0  0  0  0  0  0  0  0
   -3.2073   -0.6207   30.3683 C   0  0  0  0  0  0  0  0  0  0  0  0
   -1.9858   -0.9406   30.9546 C   0  0  0  0  0  0  0  0  0  0  0  0
   -2.0399   -1.5271   32.2399 C   0  0  0  0  0  0  0  0  0  0  0  0
   -2.9008   -1.4112   32.8726 C   0  0  0  0  0  0  0  0  0  0  0  0
   -4.1809   -0.5763   31.4116 C   0  0  0  0  0  0  0  0  0  0  0  0
   -4.1876   -0.9859   32.5698 C   0  0  0  0  0  0  0  0  0  0  0  0
  1  7  1  0
  7  8  1  0
  9 14  1  0
 14 15  1  0
 15 16  3  0
 16 17  1  0
 17 18  2  0
 18 19  1  0
 19 20  2  0
 20 22  1  0
 22 21  2  0
 21 17  1  0
  1  2  2  0
  2  4  1  0
  4  6  2  0
  6  5  1  0
  5  3  2  0
  3  1  1  0
  8  9  1  0
  9 10  2  0
 10 11  1  0
 11 13  2  0
 13 12  1  0
 12  8  2  0
M  END
$$$$
