No_4960-complexes_sdf/6BKW-FPZ/2024-09-17-14-21-01/
     RDKit          3D

 18 20  0  0  0  0  0  0  0  0999 V2000
   -7.9040    3.9820   27.1177 C   0  0  0  0  0  0  0  0  0  0  0  0
   -7.8663    4.8694   27.9238 C   0  0  0  0  0  0  0  0  0  0  0  0
   -9.0501    3.8017   26.2617 C   0  0  0  0  0  0  0  0  0  0  0  0
  -10.0189    4.7608   26.3707 C   0  0  0  0  0  0  0  0  0  0  0  0
   -8.6973    5.9722   27.8968 C   0  0  0  0  0  0  0  0  0  0  0  0
   -9.8216    5.8946   27.1241 C   0  0  0  0  0  0  0  0  0  0  0  0
   -9.1437    2.6293   25.4175 C   0  0  0  0  0  0  0  0  0  0  0  0
   -8.6170    1.4258   25.8177 C   0  0  0  0  0  0  0  0  0  0  0  0
   -8.6844    0.3194   24.9788 C   0  0  0  0  0  0  0  0  0  0  0  0
   -9.3359    0.4939   23.7289 C   0  0  0  0  0  0  0  0  0  0  0  0
   -9.8521    1.7195   23.3158 C   0  0  0  0  0  0  0  0  0  0  0  0
   -9.7240    2.7821   24.1593 C   0  0  0  0  0  0  0  0  0  0  0  0
   -9.4326   -0.6951   22.7905 C   0  0  0  0  0  0  0  0  0  0  0  0
  -10.3846   -1.6122   23.1688 C   0  0  0  0  0  0  0  0  0  0  0  0
  -10.5139   -2.6760   22.4258 C   0  0  0  0  0  0  0  0  0  0  0  0
   -9.7422   -2.8344   21.1860 C   0  0  0  0  0  0  0  0  0  0  0  0
   -8.8323   -1.8751   20.8052 C   0  0  0  0  0  0  0  0  0  0  0  0
   -8.6195   -0.7210   21.6295 C   0  0  0  0  0  0  0  0  0  0  0  0
  3  7  1  0
 10 13  1  0
 13 14  2  0
 14 15  1  0
 15 16  2  0
 16 17  1  0
 17 18  2  0
 18 13  1  0
  1  2  2  0
  2  5  1  0
  5  6  2  0
  6  4  1  0
  4  3  2  0
  3  1  1  0
  7  8  2  0
  8  9  1  0
  9 10  2  0
 10 11  1  0
 11 12  2  0
 12  7  1  0
M  END
$$$$
