No_481-complexes_sdf/6BKW-FPZ/2024-09-17-14-21-01/
     RDKit          3D

 23 26  0  0  0  0  0  0  0  0999 V2000
   -7.7129    4.2099   27.0854 C   0  0  0  0  0  0  0  0  0  0  0  0
   -7.7814    5.1722   27.8972 C   0  0  0  0  0  0  0  0  0  0  0  0
   -8.8998    3.8713   26.3707 C   0  0  0  0  0  0  0  0  0  0  0  0
   -8.9563    2.6796   25.5490 C   0  0  0  0  0  0  0  0  0  0  0  0
   -8.8501    6.0071   27.8467 N   0  0  0  0  0  0  0  0  0  0  0  0
   -9.9490    5.7837   27.2002 C   0  0  0  0  0  0  0  0  0  0  0  0
   -9.9821    4.6597   26.4501 C   0  0  0  0  0  0  0  0  0  0  0  0
   -9.8375    2.5015   24.5368 C   0  0  0  0  0  0  0  0  0  0  0  0
  -10.9111    3.5258   24.5095 C   0  0  0  0  0  0  0  0  0  0  0  0
  -11.0019    4.4901   25.4441 C   0  0  0  0  0  0  0  0  0  0  0  0
   -6.7361    5.6142   28.6634 N   0  0  0  0  0  0  0  0  0  0  0  0
  -11.9863    3.2561   23.5126 C   0  0  0  0  0  0  0  0  0  0  0  0
  -13.0496    2.4647   23.7831 C   0  0  0  0  0  0  0  0  0  0  0  0
  -13.2230    1.7589   24.6241 C   0  0  0  0  0  0  0  0  0  0  0  0
  -12.2801    1.5448   25.6895 C   0  0  0  0  0  0  0  0  0  0  0  0
  -12.7025    0.4889   26.8071 C   0  0  0  0  0  0  0  0  0  0  0  0
  -11.7528    0.3594   27.8242 C   0  0  0  0  0  0  0  0  0  0  0  0
  -10.5495    1.1294   27.8943 C   0  0  0  0  0  0  0  0  0  0  0  0
  -10.3783    2.1585   27.0873 C   0  0  0  0  0  0  0  0  0  0  0  0
  -11.5892    2.2627   26.1422 C   0  0  0  0  0  0  0  0  0  0  0  0
  -12.4900    2.9563   27.2360 N   0  0  0  0  0  0  0  0  0  0  0  0
  -10.2758    2.5848   28.3761 C   0  0  0  0  0  0  0  0  0  0  0  0
  -11.4073    2.8016   28.7393 C   0  0  0  0  0  0  0  0  0  0  0  0
  2 11  1  0
  9 12  1  0
 12 13  1  0
 13 14  2  3
 14 15  1  0
 20 21  1  0
 19 22  1  0
 21 23  1  0
 22 23  1  0
 15 16  2  0
 16 17  1  0
 17 18  2  0
 18 19  1  0
 19 20  2  0
 20 15  1  0
  1  2  2  0
  2  5  1  0
  5  6  2  0
  6  7  1  0
  3  1  1  0
  3  4  2  0
  4  8  1  0
  8  9  2  0
  9 10  1  0
 10  7  2  0
  7  3  1  0
M  END
$$$$
