No_4516-complexes_sdf/6BKW-FPZ/2024-09-17-14-21-01/
     RDKit          3D

 16 17  0  0  0  0  0  0  0  0999 V2000
   -7.2496    3.8871   27.4508 C   0  0  0  0  0  0  0  0  0  0  0  0
   -7.6161    2.7143   27.1523 C   0  0  0  0  0  0  0  0  0  0  0  0
   -8.6212    2.2239   26.4074 C   0  0  0  0  0  0  0  0  0  0  0  0
   -8.2540    4.9237   27.1711 C   0  0  0  0  0  0  0  0  0  0  0  0
   -9.3709    4.6018   26.4511 C   0  0  0  0  0  0  0  0  0  0  0  0
   -9.5922    3.3274   26.0949 C   0  0  0  0  0  0  0  0  0  0  0  0
   -7.9165    6.3279   27.5749 C   0  0  0  0  0  0  0  0  0  0  0  0
  -10.7701    2.9798   25.2771 C   0  0  0  0  0  0  0  0  0  0  0  0
  -11.8998    2.8738   25.7593 C   0  0  0  0  0  0  0  0  0  0  0  0
  -10.5621    2.8299   23.8440 C   0  0  0  0  0  0  0  0  0  0  0  0
  -11.5243    2.7219   22.9362 C   0  0  0  0  0  0  0  0  0  0  0  0
  -13.0837    2.7272   24.8936 C   0  0  0  0  0  0  0  0  0  0  0  0
  -12.8536    2.6444   23.5323 C   0  0  0  0  0  0  0  0  0  0  0  0
   -6.6334    1.7025   27.4764 F   0  0  0  0  0  0  0  0  0  0  0  0
   -8.8555    7.2320   27.3080 O   0  0  0  0  0  0  0  0  0  0  0  0
   -7.0547    6.6006   28.4280 O   0  0  0  0  0  0  0  0  0  0  0  0
  4  7  1  0
  6  8  1  0
  2 14  1  0
  7 15  1  0
  7 16  2  0
  1  2  2  0
  2  3  1  0
  3  6  2  0
  6  5  1  0
  5  4  2  0
  4  1  1  0
  8  9  2  0
  9 12  1  0
 12 13  2  0
 13 11  1  0
 11 10  2  0
 10  8  1  0
M  END
$$$$
