No_4097-complexes_sdf/6BKW-FPZ/2024-09-17-14-21-01/
     RDKit          3D

 14 14  0  0  0  0  0  0  0  0999 V2000
   -7.2496    3.8871   27.4508 C   0  0  0  0  0  0  0  0  0  0  0  0
   -8.5096    4.0291   27.2770 C   0  0  0  0  0  0  0  0  0  0  0  0
   -9.2677    5.1714   27.5773 C   0  0  0  0  0  0  0  0  0  0  0  0
   -6.5711    2.6400   27.2842 C   0  0  0  0  0  0  0  0  0  0  0  0
   -7.2939    1.5094   27.0532 C   0  0  0  0  0  0  0  0  0  0  0  0
   -6.6434    0.3282   26.9215 C   0  0  0  0  0  0  0  0  0  0  0  0
   -8.6811    1.6768   26.8702 C   0  0  0  0  0  0  0  0  0  0  0  0
   -9.2981    2.8820   27.0968 C   0  0  0  0  0  0  0  0  0  0  0  0
   -6.8307   -0.4940   25.8782 C   0  0  0  0  0  0  0  0  0  0  0  0
   -5.7225   -0.0798   28.0028 C   0  0  0  0  0  0  0  0  0  0  0  0
   -4.5198    0.5827   28.2493 C   0  0  0  0  0  0  0  0  0  0  0  0
   -3.6703    0.1601   29.3149 C   0  0  0  0  0  0  0  0  0  0  0  0
   -4.0748   -0.7049   30.3353 C   0  0  0  0  0  0  0  0  0  0  0  0
   -5.0385   -1.1898   30.2646 C   0  0  0  0  0  0  0  0  0  0  0  0
  1  2  1  0
  2  3  2  0
  1  4  1  0
  4  5  1  0
  5  6  1  0
  5  7  1  0
  2  8  1  0
  7  8  1  0
  6  9  1  0
  6 10  1  0
 10 11  2  3
 11 12  1  0
 12 13  2  3
 13 14  1  0
M  END
$$$$
