No_4646-complexes_sdf/6BKW-FPZ/2024-09-17-14-21-01/
     RDKit          3D

 26 29  0  0  0  0  0  0  0  0999 V2000
   -7.9040    3.9820   27.1177 C   0  0  0  0  0  0  0  0  0  0  0  0
   -9.0711    4.3164   27.0630 C   0  0  0  0  0  0  0  0  0  0  0  0
   -9.5294    5.4517   27.7215 C   0  0  0  0  0  0  0  0  0  0  0  0
   -7.4336    2.7132   26.5681 C   0  0  0  0  0  0  0  0  0  0  0  0
   -8.3353    1.8569   26.0442 C   0  0  0  0  0  0  0  0  0  0  0  0
   -9.6477    2.2853   25.9146 C   0  0  0  0  0  0  0  0  0  0  0  0
  -10.0346    3.4497   26.4483 C   0  0  0  0  0  0  0  0  0  0  0  0
   -7.8608    0.5626   25.5840 C   0  0  0  0  0  0  0  0  0  0  0  0
   -8.2927    0.2179   24.4935 O   0  0  0  0  0  0  0  0  0  0  0  0
   -7.1034   -0.1513   26.3488 O   0  0  0  0  0  0  0  0  0  0  0  0
   -6.8513    4.7515   27.9128 C   0  0  0  0  0  0  0  0  0  0  0  0
   -7.3127    5.9881   28.4750 C   0  0  0  0  0  0  0  0  0  0  0  0
   -8.6300    6.3861   28.3121 C   0  0  0  0  0  0  0  0  0  0  0  0
   -6.4504   -1.2192   26.0460 C   0  0  0  0  0  0  0  0  0  0  0  0
   -5.1331   -1.1985   26.3586 C   0  0  2  0  0  0  0  0  0  0  0  0
   -4.8671   -1.5523   27.5415 O   0  0  0  0  0  0  0  0  0  0  0  0
   -3.8710   -0.9894   28.1986 C   0  0  0  0  0  0  0  0  0  0  0  0
   -4.0017   -0.7622   29.6114 C   0  0  0  0  0  0  0  0  0  0  0  0
   -3.1801    0.0290   30.3938 C   0  0  0  0  0  0  0  0  0  0  0  0
   -5.2269   -1.2224   30.1914 C   0  0  0  0  0  0  0  0  0  0  0  0
   -3.3842    0.2365   31.7627 C   0  0  0  0  0  0  0  0  0  0  0  0
   -5.3971   -1.0295   31.6613 C   0  0  0  0  0  0  0  0  0  0  0  0
   -4.4436   -0.2853   32.4112 C   0  0  0  0  0  0  0  0  0  0  0  0
   -2.6726   -0.5480   27.5614 C   0  0  0  0  0  0  0  0  0  0  0  0
   -2.8012   -0.0023   26.2225 C   0  0  0  0  0  0  0  0  0  0  0  0
   -3.9894   -0.6249   25.5785 C   0  0  0  0  0  0  0  0  0  0  0  0
  5  8  1  0
  8  9  2  0
  8 10  1  0
 10 14  1  0
 15 14  1  1
 15 16  1  0
 16 17  1  0
 17 18  1  0
 17 24  1  0
 24 25  2  0
 15 26  1  0
 25 26  1  0
 18 19  2  0
 19 21  1  0
 21 23  2  0
 23 22  1  0
 22 20  2  0
 20 18  1  0
  2  7  1  0
  7  6  2  0
  6  5  1  0
  5  4  2  0
  4  1  1  0
  1  2  1  0
  2  3  2  0
  3 13  1  0
 13 12  2  0
 12 11  1  0
 11  1  2  0
M  END
$$$$
