No_4882-complexes_sdf/6BKW-FPZ/2024-09-17-14-21-01/
     RDKit          3D

 18 19  0  0  0  0  0  0  0  0999 V2000
   -7.9040    3.9820   27.1177 C   0  0  0  0  0  0  0  0  0  0  0  0
   -9.0711    4.3164   27.0630 C   0  0  0  0  0  0  0  0  0  0  0  0
   -9.8698    3.9665   25.9495 C   0  0  0  0  0  0  0  0  0  0  0  0
   -7.4046    2.7946   26.4568 C   0  0  0  0  0  0  0  0  0  0  0  0
   -8.3645    2.1023   25.7152 C   0  0  0  0  0  0  0  0  0  0  0  0
   -9.5483    2.7427   25.4386 C   0  0  0  0  0  0  0  0  0  0  0  0
   -6.7641    4.6913   28.2914 Cl  0  0  0  0  0  0  0  0  0  0  0  0
  -10.5418    2.3347   24.3768 C   0  0  0  0  0  0  0  0  0  0  0  0
  -11.1406    1.3632   24.3822 C   0  0  0  0  0  0  0  0  0  0  0  0
  -10.5250    3.1765   23.1380 C   0  0  0  0  0  0  0  0  0  0  0  0
  -11.2293    2.8476   22.0482 C   0  0  0  0  0  0  0  0  0  0  0  0
  -11.9732    0.8895   23.2567 C   0  0  0  0  0  0  0  0  0  0  0  0
  -11.9883    1.6956   22.1079 C   0  0  0  0  0  0  0  0  0  0  0  0
   -9.5039    5.7181   27.6855 C   0  0  0  0  0  0  0  0  0  0  0  0
  -12.8197    1.2923   20.9460 C   0  0  1  0  0  0  0  0  0  0  0  0
  -13.9547    1.6446   20.8570 C   0  0  0  0  0  0  0  0  0  0  0  0
  -12.1529    0.5241   19.9185 C   0  0  0  0  0  0  0  0  0  0  0  0
  -10.9238   -0.0460   20.0366 C   0  0  0  0  0  0  0  0  0  0  0  0
  1  7  1  0
  6  8  1  0
  2 14  1  0
 13 15  1  0
 15 16  1  6
 15 17  1  0
 17 18  1  0
  1  2  2  0
  2  3  1  0
  3  6  2  0
  6  5  1  0
  5  4  2  0
  4  1  1  0
  8  9  2  0
  9 12  1  0
 12 13  2  0
 13 11  1  0
 11 10  2  0
 10  8  1  0
M  END
$$$$
