No_4436-complexes_sdf/6BKW-FPZ/2024-09-17-14-21-01/
     RDKit          3D

 15 16  0  0  0  0  0  0  0  0999 V2000
   -7.9040    3.9820   27.1177 C   0  0  0  0  0  0  0  0  0  0  0  0
   -7.8663    4.8694   27.9238 C   0  0  0  0  0  0  0  0  0  0  0  0
   -9.0501    3.8017   26.2617 C   0  0  0  0  0  0  0  0  0  0  0  0
  -10.0189    4.7608   26.3707 C   0  0  0  0  0  0  0  0  0  0  0  0
   -8.6973    5.9722   27.8968 C   0  0  0  0  0  0  0  0  0  0  0  0
   -9.8216    5.8946   27.1241 C   0  0  0  0  0  0  0  0  0  0  0  0
   -9.1437    2.6293   25.4175 C   0  0  0  0  0  0  0  0  0  0  0  0
   -9.8155    2.7261   24.3455 O   0  0  0  0  0  0  0  0  0  0  0  0
   -8.4809    1.5252   25.7245 N   0  0  0  0  0  0  0  0  0  0  0  0
   -8.4842    0.3627   24.9245 C   0  0  0  0  0  0  0  0  0  0  0  0
   -7.4601   -0.4906   25.2380 C   0  0  0  0  0  0  0  0  0  0  0  0
   -6.7667   -1.0884   24.2858 C   0  0  0  0  0  0  0  0  0  0  0  0
   -7.2476   -1.0207   22.8833 C   0  0  0  0  0  0  0  0  0  0  0  0
   -8.2801   -0.0988   22.6415 C   0  0  0  0  0  0  0  0  0  0  0  0
   -8.7432    0.7021   23.6110 C   0  0  0  0  0  0  0  0  0  0  0  0
  3  7  1  0
  7  8  2  0
  7  9  1  0
  9 10  1  0
  1  2  2  0
  2  5  1  0
  5  6  2  0
  6  4  1  0
  4  3  2  0
  3  1  1  0
 10 11  2  0
 11 12  1  0
 12 13  2  0
 13 14  1  0
 14 15  2  0
 15 10  1  0
M  END
$$$$
