No_4324-complexes_sdf/6BKW-FPZ/2024-09-17-14-21-01/
     RDKit          3D

 22 24  0  0  0  0  0  0  0  0999 V2000
   -7.7129    4.2099   27.0854 C   0  0  0  0  0  0  0  0  0  0  0  0
   -8.9133    4.4736   27.0998 C   0  0  0  0  0  0  0  0  0  0  0  0
   -9.7937    3.7368   26.2091 C   0  0  0  0  0  0  0  0  0  0  0  0
   -6.8266    5.0441   28.0594 C   0  0  0  0  0  0  0  0  0  0  0  0
   -9.2322    2.6276   25.6126 C   0  0  0  0  0  0  0  0  0  0  0  0
  -10.0960    1.8717   24.7510 C   0  0  0  0  0  0  0  0  0  0  0  0
  -11.2836    2.4368   24.3506 C   0  0  0  0  0  0  0  0  0  0  0  0
  -11.7701    3.6086   24.8723 C   0  0  0  0  0  0  0  0  0  0  0  0
  -11.0280    4.3106   25.7851 C   0  0  0  0  0  0  0  0  0  0  0  0
   -9.4108    5.5839   27.8519 C   0  0  0  0  0  0  0  0  0  0  0  0
   -8.6597    6.4887   28.5595 C   0  0  0  0  0  0  0  0  0  0  0  0
   -7.3029    6.0555   28.6311 C   0  0  0  0  0  0  0  0  0  0  0  0
   -9.5985    0.6267   24.1494 C   0  0  0  0  0  0  0  0  0  0  0  0
   -9.8005    0.3397   22.9313 C   0  0  0  0  0  0  0  0  0  0  0  0
   -9.4018   -0.9295   22.3231 C   0  0  0  0  0  0  0  0  0  0  0  0
   -8.5914   -1.7668   23.0956 C   0  0  0  0  0  0  0  0  0  0  0  0
   -8.7169   -0.2659   24.9258 C   0  0  0  0  0  0  0  0  0  0  0  0
   -8.2765   -1.4218   24.4196 C   0  0  0  0  0  0  0  0  0  0  0  0
   -7.4727   -2.3637   25.2096 C   0  0  0  0  0  0  0  0  0  0  0  0
   -7.6172   -2.3271   26.3819 F   0  0  0  0  0  0  0  0  0  0  0  0
   -6.1248   -2.0083   24.9748 F   0  0  0  0  0  0  0  0  0  0  0  0
   -7.5911   -3.5980   24.7201 F   0  0  0  0  0  0  0  0  0  0  0  0
  2  3  1  0
  6 13  1  0
 18 19  1  0
 19 20  1  0
 19 21  1  0
 19 22  1  0
  3  5  2  0
  5  6  1  0
  6  7  2  0
  7  8  1  0
  8  9  2  0
  9  3  1  0
 13 14  2  0
 14 15  1  0
 15 16  2  0
 16 18  1  0
 18 17  2  0
 17 13  1  0
  1  2  2  0
  2 10  1  0
 10 11  2  0
 11 12  1  0
 12  4  2  0
  4  1  1  0
M  END
$$$$
