No_4365-complexes_sdf/6BKW-FPZ/2024-09-17-14-21-01/
     RDKit          3D

 18 19  0  0  0  0  0  0  0  0999 V2000
   -7.7129    4.2099   27.0854 C   0  0  0  0  0  0  0  0  0  0  0  0
   -7.7814    5.1722   27.8972 C   0  0  0  0  0  0  0  0  0  0  0  0
   -8.8255    3.2789   27.1191 C   0  0  0  0  0  0  0  0  0  0  0  0
   -9.9209    3.4734   27.9101 C   0  0  0  0  0  0  0  0  0  0  0  0
   -9.9736    4.7085   28.6831 C   0  0  0  0  0  0  0  0  0  0  0  0
   -8.8840    5.5441   28.6612 C   0  0  0  0  0  0  0  0  0  0  0  0
   -8.7059    2.0159   26.3410 C   0  0  0  0  0  0  0  0  0  0  0  0
   -9.2435    1.9982   25.0695 C   0  0  0  0  0  0  0  0  0  0  0  0
   -9.8430    3.1468   24.5548 C   0  0  0  0  0  0  0  0  0  0  0  0
  -10.3409    3.2258   23.2425 C   0  0  0  0  0  0  0  0  0  0  0  0
  -10.1541    2.1097   22.4180 C   0  0  0  0  0  0  0  0  0  0  0  0
   -9.5407    0.9465   22.9243 C   0  0  0  0  0  0  0  0  0  0  0  0
   -9.0605    0.9345   24.2084 C   0  0  0  0  0  0  0  0  0  0  0  0
   -8.0599    0.8941   26.9199 C   0  0  0  0  0  0  0  0  0  0  0  0
   -8.1656   -0.0064   27.4545 C   0  0  0  0  0  0  0  0  0  0  0  0
   -7.3008   -0.9972   28.0167 C   0  0  0  0  0  0  0  0  0  0  0  0
   -7.5631   -2.0607   28.8783 C   0  0  0  0  0  0  0  0  0  0  0  0
   -8.9674   -2.2872   29.1090 C   0  0  0  0  0  0  0  0  0  0  0  0
  3  7  1  0
  7  8  1  0
  7 14  1  0
 14 15  2  3
 15 16  1  0
 16 17  2  3
 17 18  1  0
  1  2  2  0
  2  6  1  0
  6  5  2  0
  5  4  1  0
  4  3  2  0
  3  1  1  0
  8  9  2  0
  9 10  1  0
 10 11  2  0
 11 12  1  0
 12 13  2  0
 13  8  1  0
M  END
$$$$
