No_4368-complexes_sdf/6BKW-FPZ/2024-09-17-14-21-01/
     RDKit          3D

 13 14  0  0  0  0  0  0  0  0999 V2000
   -7.9040    3.9820   27.1177 C   0  0  0  0  0  0  0  0  0  0  0  0
   -8.2057    2.8231   26.8733 C   0  0  0  0  0  0  0  0  0  0  0  0
   -7.4766    1.7477   27.4593 C   0  0  0  0  0  0  0  0  0  0  0  0
   -6.7221    4.3631   27.8544 C   0  0  0  0  0  0  0  0  0  0  0  0
   -6.1698    2.0708   27.9540 C   0  0  0  0  0  0  0  0  0  0  0  0
   -5.8496    3.3886   28.1848 C   0  0  0  0  0  0  0  0  0  0  0  0
   -8.9058    4.9905   26.7244 C   0  0  0  0  0  0  0  0  0  0  0  0
   -8.9758    6.2236   27.4606 C   0  0  0  0  0  0  0  0  0  0  0  0
   -8.6971    5.3781   25.2315 C   0  0  0  0  0  0  0  0  0  0  0  0
  -10.3556    4.3480   26.7817 C   0  0  0  0  0  0  0  0  0  0  0  0
  -11.0448    3.8808   25.7981 C   0  0  0  0  0  0  0  0  0  0  0  0
   -9.4799    4.8103   24.1827 C   0  0  0  0  0  0  0  0  0  0  0  0
  -10.7004    4.2393   24.5058 C   0  0  0  0  0  0  0  0  0  0  0  0
  1  7  1  0
  7  8  1  0
  7  9  1  0
  7 10  1  0
 11 13  1  0
 12 13  1  0
  9 12  1  0
 11 10  1  0
  1  2  2  0
  2  3  1  0
  3  5  2  0
  5  6  1  0
  6  4  2  0
  4  1  1  0
M  END
$$$$
