No_4222-complexes_sdf/6BKW-FPZ/2024-09-17-14-21-01/
     RDKit          3D

 37 40  0  0  0  0  0  0  0  0999 V2000
   -7.2496    3.8871   27.4508 C   0  0  0  0  0  0  0  0  0  0  0  0
   -7.9379    4.9063   27.8518 C   0  0  1  0  0  0  0  0  0  0  0  0
   -7.5112    6.1898   27.6280 C   0  0  0  0  0  0  0  0  0  0  0  0
   -9.3085    4.6933   28.2930 C   0  0  0  0  0  0  0  0  0  0  0  0
   -6.9421    2.7756   27.7941 C   0  0  0  0  0  0  0  0  0  0  0  0
   -6.4780    1.5534   27.2633 C   0  0  0  0  0  0  0  0  0  0  0  0
   -7.3777    0.6458   26.8948 C   0  0  0  0  0  0  0  0  0  0  0  0
   -7.9219   -0.0427   27.7436 C   0  0  0  0  0  0  0  0  0  0  0  0
   -8.6503   -0.8935   27.7796 C   0  0  0  0  0  0  0  0  0  0  0  0
   -9.3547   -1.5589   28.9112 C   0  0  0  0  0  0  0  0  0  0  0  0
   -9.8059   -1.0227   26.7004 C   0  0  0  0  0  0  0  0  0  0  0  0
  -10.5417   -1.9625   26.7581 C   0  0  0  0  0  0  0  0  0  0  0  0
  -10.2582   -2.4739   29.0974 C   0  0  0  0  0  0  0  0  0  0  0  0
  -10.9583   -2.6700   27.9172 C   0  0  0  0  0  0  0  0  0  0  0  0
   -7.0471   -0.0997   25.6663 C   0  0  0  0  0  0  0  0  0  0  0  0
   -8.4717    7.2717   27.1041 C   0  0  0  0  0  0  0  0  0  0  0  0
  -12.0259   -3.6950   27.8964 C   0  0  0  0  0  0  0  0  0  0  0  0
  -12.7517   -3.8724   27.0963 C   0  0  0  0  0  0  0  0  0  0  0  0
  -13.8013   -4.9206   27.1280 C   0  0  0  0  0  0  0  0  0  0  0  0
  -13.8445   -5.6824   28.2698 C   0  0  0  0  0  0  0  0  0  0  0  0
  -12.9830   -5.4673   29.2816 C   0  0  0  0  0  0  0  0  0  0  0  0
  -12.0193   -4.4587   29.2279 C   0  0  0  0  0  0  0  0  0  0  0  0
  -13.0949   -6.2834   30.5265 C   0  0  0  0  0  0  0  0  0  0  0  0
  -12.5710   -7.3014   30.5913 O   0  0  0  0  0  0  0  0  0  0  0  0
  -14.0212   -5.7770   31.3898 O   0  0  0  0  0  0  0  0  0  0  0  0
  -10.2672    4.2664   27.3855 C   0  0  0  0  0  0  0  0  0  0  0  0
  -11.5141    3.9107   27.9989 C   0  0  0  0  0  0  0  0  0  0  0  0
  -12.6775    3.7376   27.2367 C   0  0  0  0  0  0  0  0  0  0  0  0
  -12.5485    3.8247   25.8378 C   0  0  0  0  0  0  0  0  0  0  0  0
  -11.2825    4.0980   25.2561 C   0  0  0  0  0  0  0  0  0  0  0  0
  -10.1994    4.4135   26.0250 C   0  0  0  0  0  0  0  0  0  0  0  0
  -11.2065    4.1891   23.7667 C   0  0  0  0  0  0  0  0  0  0  0  0
   -9.9557    4.3518   23.2003 C   0  0  0  0  0  0  0  0  0  0  0  0
  -12.4084    4.1567   23.0406 C   0  0  0  0  0  0  0  0  0  0  0  0
  -12.3288    3.9412   21.7304 C   0  0  0  0  0  0  0  0  0  0  0  0
   -9.9275    4.2170   21.7746 C   0  0  0  0  0  0  0  0  0  0  0  0
  -11.0419    4.1221   21.0223 C   0  0  0  0  0  0  0  0  0  0  0  0
  1  2  1  0
  2  3  1  6
  2  4  1  0
  1  5  2  3
  5  6  1  0
  6  7  1  0
  7  8  2  3
  8  9  1  0
  7 15  1  0
  3 16  1  0
 14 17  1  0
 21 23  1  0
 23 24  2  0
 23 25  1  0
  4 26  1  0
 30 32  1  0
  9 10  2  0
 10 13  1  0
 13 14  2  0
 14 12  1  0
 12 11  2  0
 11  9  1  0
 17 18  2  0
 18 19  1  0
 19 20  2  0
 20 21  1  0
 21 22  2  0
 22 17  1  0
 32 33  2  0
 33 36  1  0
 36 37  2  0
 37 35  1  0
 35 34  2  0
 34 32  1  0
 26 27  2  0
 27 28  1  0
 28 29  2  0
 29 30  1  0
 30 31  2  0
 31 26  1  0
M  END
$$$$
