No_4065-complexes_sdf/6BKW-FPZ/2024-09-17-14-21-01/
     RDKit          3D

 14 15  0  0  0  0  0  0  0  0999 V2000
   -7.9040    3.9820   27.1177 C   0  0  0  0  0  0  0  0  0  0  0  0
   -7.8663    4.8694   27.9238 C   0  0  0  0  0  0  0  0  0  0  0  0
   -7.4547    2.7080   27.4594 C   0  0  0  0  0  0  0  0  0  0  0  0
   -7.9337    1.5946   26.8372 C   0  0  0  0  0  0  0  0  0  0  0  0
   -7.4947    0.3059   27.1189 C   0  0  0  0  0  0  0  0  0  0  0  0
   -8.6696    6.0289   27.7710 C   0  0  0  0  0  0  0  0  0  0  0  0
   -8.6919    1.8586   25.5811 C   0  0  0  0  0  0  0  0  0  0  0  0
   -9.2808    3.0561   25.3095 C   0  0  0  0  0  0  0  0  0  0  0  0
   -8.9336    4.1393   26.1489 C   0  0  0  0  0  0  0  0  0  0  0  0
   -9.4116    5.4168   26.0430 C   0  0  0  0  0  0  0  0  0  0  0  0
   -9.1951    6.5717   26.6628 C   0  0  0  0  0  0  0  0  0  0  0  0
   -6.2760    0.0550   27.7260 C   0  0  0  0  0  0  0  0  0  0  0  0
   -5.8470   -1.2146   28.1593 C   0  0  0  0  0  0  0  0  0  0  0  0
   -6.7996   -2.2130   28.0115 C   0  0  0  0  0  0  0  0  0  0  0  0
  5 12  1  0
 12 13  2  3
 13 14  1  0
  5  4  1  0
  1  2  2  0
  2  6  1  0
  6 11  2  0
 11 10  1  0
 10  9  2  0
  1  3  1  0
  3  4  2  0
  4  7  1  0
  7  8  2  0
  8  9  1  0
  9  1  1  0
M  END
$$$$
