No_48-complexes_sdf/6BKW-FPZ/2024-09-17-14-21-01/
     RDKit          3D

 28 32  0  0  0  0  0  0  0  0999 V2000
   -7.7129    4.2099   27.0854 C   0  0  0  0  0  0  0  0  0  0  0  0
   -7.7814    5.1722   27.8972 C   0  0  0  0  0  0  0  0  0  0  0  0
   -8.8776    3.8408   26.3416 C   0  0  0  0  0  0  0  0  0  0  0  0
   -8.9136    2.6330   25.5655 C   0  0  0  0  0  0  0  0  0  0  0  0
   -8.8361    6.1389   27.9032 C   0  0  0  0  0  0  0  0  0  0  0  0
   -9.8295    4.8219   26.2725 C   0  0  0  0  0  0  0  0  0  0  0  0
   -9.8494    5.9177   27.0428 C   0  0  0  0  0  0  0  0  0  0  0  0
   -8.3101    1.5509   26.1551 N   0  0  0  0  0  0  0  0  0  0  0  0
   -8.1075    0.3681   25.5655 C   0  0  0  0  0  0  0  0  0  0  0  0
   -7.2635   -0.5423   26.2015 C   0  0  0  0  0  0  0  0  0  0  0  0
   -6.5912   -0.1365   27.3970 C   0  0  2  0  0  0  0  0  0  0  0  0
   -6.6230    1.1884   27.8380 C   0  0  0  0  0  0  0  0  0  0  0  0
   -7.4521    2.0600   27.2126 C   0  0  1  0  0  0  0  0  0  0  0  0
   -7.3343    3.2526   27.5893 N   0  0  0  0  0  0  0  0  0  0  0  0
   -9.7317    2.4595   24.6520 O   0  0  0  0  0  0  0  0  0  0  0  0
   -5.7392   -1.1620   28.1099 C   0  0  1  0  0  0  0  0  0  0  0  0
   -4.4459   -0.8321   28.2752 C   0  0  0  0  0  0  0  0  0  0  0  0
   -3.7443   -0.0147   27.7181 C   0  0  0  0  0  0  0  0  0  0  0  0
   -2.8522   -0.1604   26.8751 C   0  0  0  0  0  0  0  0  0  0  0  0
   -2.4971   -1.4824   26.4654 C   0  0  0  0  0  0  0  0  0  0  0  0
   -2.6229   -2.4063   27.3920 C   0  0  0  0  0  0  0  0  0  0  0  0
   -3.6193   -2.3176   28.0202 C   0  0  0  0  0  0  0  0  0  0  0  0
   -6.3328   -1.2292   29.5800 C   0  0  0  0  0  0  0  0  0  0  0  0
   -6.1617   -2.5437   27.5238 C   0  0  0  0  0  0  0  0  0  0  0  0
   -6.8177   -3.2383   27.9855 C   0  0  0  0  0  0  0  0  0  0  0  0
   -7.1455   -4.5338   27.3184 C   0  0  0  0  0  0  0  0  0  0  0  0
   -6.5586   -4.6499   26.1090 C   0  0  0  0  0  0  0  0  0  0  0  0
   -5.7048   -3.0259   26.1773 C   0  0  0  0  0  0  0  0  0  0  0  0
  3  4  1  0
  4  8  1  0
  8  9  1  0
 11 10  1  6
  8 13  1  0
 13 12  1  6
  1 14  1  0
 13 14  1  0
  4 15  2  0
 11 16  1  0
 16 17  1  0
 16 23  1  1
 16 24  1  0
 24 25  2  0
 25 26  1  0
 26 27  2  0
 24 28  1  0
 27 28  1  0
  9 10  1  0
 11 12  1  0
 17 18  2  0
 18 19  1  0
 19 20  2  0
 20 21  1  0
 21 22  2  0
 22 17  1  0
  1  2  2  0
  2  5  1  0
  5  7  2  0
  7  6  1  0
  6  3  2  0
  3  1  1  0
M  END
$$$$
