No_4963-complexes_sdf/6BKW-FPZ/2024-09-17-14-21-01/
     RDKit          3D

 30 32  0  0  0  0  0  0  0  0999 V2000
   -7.9040    3.9820   27.1177 C   0  0  0  0  0  0  0  0  0  0  0  0
   -8.2057    2.8231   26.8733 C   0  0  0  0  0  0  0  0  0  0  0  0
   -8.7695    5.0740   26.7916 C   0  0  0  0  0  0  0  0  0  0  0  0
   -8.4337    6.4678   27.0913 C   0  0  0  0  0  0  0  0  0  0  0  0
   -9.3742    2.4311   26.2346 C   0  0  0  0  0  0  0  0  0  0  0  0
  -10.2395    3.4267   25.8887 C   0  0  0  0  0  0  0  0  0  0  0  0
   -9.9567    4.7548   26.1374 C   0  0  0  0  0  0  0  0  0  0  0  0
   -7.9449    7.5014   26.9590 N   0  0  0  0  0  0  0  0  0  0  0  0
   -7.2426    1.6814   27.2966 C   0  0  0  0  0  0  0  0  0  0  0  0
   -6.1692    2.0183   27.8993 O   0  0  0  0  0  0  0  0  0  0  0  0
   -7.5034    0.5173   27.0222 F   0  0  0  0  0  0  0  0  0  0  0  0
   -4.9693    1.3209   27.7446 C   0  0  0  0  0  0  0  0  0  0  0  0
   -4.4167    0.9674   29.0812 C   0  0  0  0  0  0  0  0  0  0  0  0
   -3.4713   -0.1191   29.0061 C   0  0  0  0  0  0  0  0  0  0  0  0
   -3.0882   -0.6840   30.2400 C   0  0  0  0  0  0  0  0  0  0  0  0
   -2.1734   -1.7387   30.2516 C   0  0  0  0  0  0  0  0  0  0  0  0
   -1.5430   -2.0600   29.0515 C   0  0  0  0  0  0  0  0  0  0  0  0
   -1.8297   -1.4495   27.9040 C   0  0  0  0  0  0  0  0  0  0  0  0
   -2.7789   -0.4178   27.8602 C   0  0  0  0  0  0  0  0  0  0  0  0
   -3.7268   -0.2883   31.5208 C   0  0  0  0  0  0  0  0  0  0  0  0
   -3.0171    0.3695   32.0986 F   0  0  0  0  0  0  0  0  0  0  0  0
   -4.0229   -1.5118   32.1661 F   0  0  0  0  0  0  0  0  0  0  0  0
   -4.8563    0.3531   31.3105 F   0  0  0  0  0  0  0  0  0  0  0  0
  -11.6571    3.0544   25.0016 Cl  0  0  0  0  0  0  0  0  0  0  0  0
   -0.4547   -3.0759   29.2233 C   0  0  0  0  0  0  0  0  0  0  0  0
    0.2504   -3.3762   28.3459 C   0  0  0  0  0  0  0  0  0  0  0  0
    1.3387   -4.3646   28.4254 C   0  0  0  0  0  0  0  0  0  0  0  0
    1.5550   -4.9662   29.6261 C   0  0  0  0  0  0  0  0  0  0  0  0
   -0.2252   -3.6293   30.5144 C   0  0  0  0  0  0  0  0  0  0  0  0
    0.7474   -4.5845   30.7277 C   0  0  0  0  0  0  0  0  0  0  0  0
  3  4  1  0
  4  8  3  0
  2  9  1  0
  9 10  1  0
  9 11  1  0
 10 12  1  0
 12 13  1  0
 15 20  1  0
 20 21  1  0
 20 22  1  0
 20 23  1  0
  6 24  1  0
 17 25  1  0
 13 14  1  0
 14 15  2  0
 15 16  1  0
 16 17  2  0
 17 18  1  0
 18 19  2  0
 19 14  1  0
 25 26  2  0
 26 27  1  0
 27 28  2  0
 28 30  1  0
 30 29  2  0
 29 25  1  0
  1  2  2  0
  2  5  1  0
  5  6  2  0
  6  7  1  0
  7  3  2  0
  3  1  1  0
M  END
$$$$
