No_4820-complexes_sdf/6BKW-FPZ/2024-09-17-14-21-01/
     RDKit          3D

 26 29  0  0  0  0  0  0  0  0999 V2000
   -7.7129    4.2099   27.0854 C   0  0  0  0  0  0  0  0  0  0  0  0
   -8.9133    4.4736   27.0998 C   0  0  0  0  0  0  0  0  0  0  0  0
   -9.8363    3.8127   27.2418 C   0  0  0  0  0  0  0  0  0  0  0  0
   -7.2995    2.8520   27.3808 C   0  0  0  0  0  0  0  0  0  0  0  0
   -8.3226    1.9328   27.4680 C   0  0  0  0  0  0  0  0  0  0  0  0
   -9.5955    2.3639   27.4416 C   0  0  0  0  0  0  0  0  0  0  0  0
   -9.1681    6.0379   26.9266 C   0  0  0  0  0  0  0  0  0  0  0  0
   -8.4863    6.8216   25.9752 C   0  0  0  0  0  0  0  0  0  0  0  0
   -8.0012    0.5064   27.6855 C   0  0  0  0  0  0  0  0  0  0  0  0
   -6.6766    0.0741   27.7067 C   0  0  0  0  0  0  0  0  0  0  0  0
   -5.6856    1.1179   27.6640 C   0  0  0  0  0  0  0  0  0  0  0  0
   -5.9642    2.4274   27.4385 N   0  0  0  0  0  0  0  0  0  0  0  0
   -4.4273    0.6781   27.8957 N   0  0  0  0  0  0  0  0  0  0  0  0
   -3.6821   -0.2187   27.7964 C   0  0  0  0  0  0  0  0  0  0  0  0
   -3.1818   -0.8210   27.0327 C   0  0  0  0  0  0  0  0  0  0  0  0
   -2.3503   -2.0219   27.0025 C   0  0  0  0  0  0  0  0  0  0  0  0
   -3.4014   -0.7900   29.2587 C   0  0  0  0  0  0  0  0  0  0  0  0
   -2.5889   -1.9565   29.4450 C   0  0  0  0  0  0  0  0  0  0  0  0
   -1.9928   -2.4720   28.2788 C   0  0  0  0  0  0  0  0  0  0  0  0
   -3.8690   -0.0664   30.5044 C   0  0  0  0  0  0  0  0  0  0  0  0
   -3.2767   -0.4067   31.7291 C   0  0  0  0  0  0  0  0  0  0  0  0
   -3.8014    0.2001   32.8921 C   0  0  0  0  0  0  0  0  0  0  0  0
   -3.2141   -0.3354   34.0999 C   0  0  0  0  0  0  0  0  0  0  0  0
   -2.0971   -1.1843   34.1137 C   0  0  0  0  0  0  0  0  0  0  0  0
   -1.6143   -1.6737   32.9149 C   0  0  0  0  0  0  0  0  0  0  0  0
   -2.1820   -1.2881   31.7331 C   0  0  0  0  0  0  0  0  0  0  0  0
  2  7  1  0
  7  8  1  0
 11 13  1  0
 13 14  1  0
 17 20  1  0
 20 21  1  0
  1  2  2  0
  2  3  1  0
  3  6  2  0
  6  5  1  0
  4  1  1  0
  4  5  2  0
  5  9  1  0
  9 10  2  0
 10 11  1  0
 11 12  2  0
 12  4  1  0
 14 15  2  0
 15 16  1  0
 16 19  2  0
 19 18  1  0
 18 17  2  0
 17 14  1  0
 21 22  2  0
 22 23  1  0
 23 24  2  0
 24 25  1  0
 25 26  2  0
 26 21  1  0
M  END
$$$$
