No_4907-complexes_sdf/6BKW-FPZ/2024-09-17-14-21-01/
     RDKit          3D

  9  8  0  0  0  0  0  0  0  0999 V2000
   -7.7129    4.2099   27.0854 C   0  0  0  0  0  0  0  0  0  0  0  0
   -8.9133    4.4736   27.0998 C   0  0  1  0  0  0  0  0  0  0  0  0
   -9.4643    5.5426   27.7628 C   0  0  0  0  0  0  0  0  0  0  0  0
   -9.8091    3.6358   26.2841 C   0  0  0  0  0  0  0  0  0  0  0  0
   -9.4101    2.5938   25.7918 C   0  0  0  0  0  0  0  0  0  0  0  0
   -6.8108    4.9290   28.1313 C   0  0  0  0  0  0  0  0  0  0  0  0
  -10.2055    1.8170   24.8817 C   0  0  0  0  0  0  0  0  0  0  0  0
  -11.2897    2.4425   24.3326 C   0  0  0  0  0  0  0  0  0  0  0  0
  -11.6949    3.7347   24.7629 C   0  0  0  0  0  0  0  0  0  0  0  0
  1  2  1  0
  2  3  1  6
  2  4  1  0
  4  5  2  3
  1  6  1  0
  5  7  1  0
  7  8  2  3
  8  9  1  0
M  END
$$$$
