No_4571-complexes_sdf/6BKW-FPZ/2024-09-17-14-21-01/
     RDKit          3D

 17 17  0  0  0  0  0  0  0  0999 V2000
   -7.9040    3.9820   27.1177 C   0  0  0  0  0  0  0  0  0  0  0  0
   -7.8663    4.8694   27.9238 C   0  0  0  0  0  0  0  0  0  0  0  0
   -9.0491    3.8523   26.2542 C   0  0  0  0  0  0  0  0  0  0  0  0
   -8.7661    5.9491   27.9690 C   0  0  0  0  0  0  0  0  0  0  0  0
   -9.9295    4.8502   26.2323 C   0  0  0  0  0  0  0  0  0  0  0  0
   -9.8077    5.9288   27.0933 C   0  0  0  0  0  0  0  0  0  0  0  0
   -6.8002    2.6256   27.2024 Cl  0  0  0  0  0  0  0  0  0  0  0  0
   -8.8886    2.7936   25.3960 F   0  0  0  0  0  0  0  0  0  0  0  0
  -11.1450    4.7620   25.0372 Cl  0  0  0  0  0  0  0  0  0  0  0  0
   -6.8038    5.0943   28.8323 O   0  0  0  0  0  0  0  0  0  0  0  0
   -5.6659    5.8393   28.3638 C   0  0  0  0  0  0  0  0  0  0  0  0
   -5.8927    6.9346   27.7203 O   0  0  0  0  0  0  0  0  0  0  0  0
   -4.6636    5.4748   29.0189 O   0  0  0  0  0  0  0  0  0  0  0  0
   -6.7267    7.4277   27.1044 C   0  0  0  0  0  0  0  0  0  0  0  0
   -7.4398    8.7337   27.3465 C   0  0  0  0  0  0  0  0  0  0  0  0
   -9.0031    8.9159   26.4719 Br  0  0  0  0  0  0  0  0  0  0  0  0
   -6.7028    9.6278   27.7439 O   0  0  0  0  0  0  0  0  0  0  0  0
  1  7  1  0
  3  8  1  0
  5  9  1  0
  2 10  1  0
 10 11  1  0
 11 12  1  0
 11 13  2  0
 12 14  1  0
 14 15  1  0
 15 16  1  0
 15 17  2  0
  1  2  2  0
  2  4  1  0
  4  6  2  0
  6  5  1  0
  5  3  2  0
  3  1  1  0
M  END
$$$$
