No_4044-complexes_sdf/6BKW-FPZ/2024-09-17-14-21-01/
     RDKit          3D

 40 44  0  0  0  0  0  0  0  0999 V2000
   -7.7129    4.2099   27.0854 C   0  0  0  0  0  0  0  0  0  0  0  0
   -8.2112    3.0637   26.9225 C   0  0  0  0  0  0  0  0  0  0  0  0
   -7.5138    1.9223   27.4249 C   0  0  0  0  0  0  0  0  0  0  0  0
   -8.5309    5.4147   26.8151 C   0  0  0  0  0  0  0  0  0  0  0  0
   -9.6817    5.2393   26.1100 C   0  0  0  0  0  0  0  0  0  0  0  0
  -10.1032    3.9957   25.8534 C   0  0  0  0  0  0  0  0  0  0  0  0
   -9.4034    2.8430   26.2573 C   0  0  0  0  0  0  0  0  0  0  0  0
   -8.0026    0.6485   27.2900 N   0  0  0  0  0  0  0  0  0  0  0  0
   -9.2021    0.3815   27.2465 C   0  0  0  0  0  0  0  0  0  0  0  0
  -10.0456    1.4413   26.4648 C   0  0  1  0  0  0  0  0  0  0  0  0
   -7.1262   -0.5526   27.1404 C   0  0  0  0  0  0  0  0  0  0  0  0
   -7.9407    6.7733   27.0343 C   0  0  0  0  0  0  0  0  0  0  0  0
   -8.5850    7.8553   26.7508 O   0  0  0  0  0  0  0  0  0  0  0  0
   -6.8382    6.8051   27.7766 O   0  0  0  0  0  0  0  0  0  0  0  0
   -5.8580   -0.3595   26.8495 C   0  0  0  0  0  0  0  0  0  0  0  0
   -4.9885    0.1410   27.8736 C   0  0  0  0  0  0  0  0  0  0  0  0
   -3.6849    0.5424   27.6551 C   0  0  0  0  0  0  0  0  0  0  0  0
   -2.8941    1.2120   28.4048 C   0  0  0  0  0  0  0  0  0  0  0  0
   -3.1634    0.1544   26.2978 C   0  0  0  0  0  0  0  0  0  0  0  0
   -4.0241   -0.5115   25.3988 C   0  0  0  0  0  0  0  0  0  0  0  0
   -5.3414   -0.4282   25.6676 C   0  0  0  0  0  0  0  0  0  0  0  0
   -7.4789   -1.5659   27.7712 O   0  0  0  0  0  0  0  0  0  0  0  0
  -11.4608    1.5997   26.8514 C   0  0  0  0  0  0  0  0  0  0  0  0
  -12.1067    0.5383   26.3054 C   0  0  0  0  0  0  0  0  0  0  0  0
  -13.4318    0.4469   26.6797 C   0  0  0  0  0  0  0  0  0  0  0  0
  -13.9452    0.9840   27.5001 C   0  0  0  0  0  0  0  0  0  0  0  0
  -13.2258    2.1164   28.1964 C   0  0  0  0  0  0  0  0  0  0  0  0
  -11.9131    2.3499   27.9157 C   0  0  0  0  0  0  0  0  0  0  0  0
  -13.8864    2.9011   29.3450 C   0  0  2  0  0  0  0  0  0  0  0  0
  -14.0586    4.2248   29.0023 C   0  0  0  0  0  0  0  0  0  0  0  0
  -13.2654    4.8236   28.0965 C   0  0  0  0  0  0  0  0  0  0  0  0
  -15.0913    4.9501   29.7494 C   0  0  0  0  0  0  0  0  0  0  0  0
  -15.5587    6.1925   29.2628 C   0  0  0  0  0  0  0  0  0  0  0  0
  -13.8082    6.2377   27.6560 C   0  0  0  0  0  0  0  0  0  0  0  0
  -14.8157    6.8608   28.3028 C   0  0  0  0  0  0  0  0  0  0  0  0
  -12.8645    2.8998   30.5745 C   0  0  0  0  0  0  0  0  0  0  0  0
  -15.2066    2.2236   29.8116 C   0  0  0  0  0  0  0  0  0  0  0  0
  -15.3209    1.9253   31.1164 C   0  0  0  0  0  0  0  0  0  0  0  0
  -16.1856    2.0660   28.9195 C   0  0  0  0  0  0  0  0  0  0  0  0
  -16.3979    1.2868   31.5513 C   0  0  0  0  0  0  0  0  0  0  0  0
  2  3  1  0
  3  8  1  0
  8  9  1  0
  7 10  1  0
  9 10  1  0
  8 11  1  0
  4 12  1  0
 12 13  2  0
 12 14  1  0
 11 15  1  0
 17 18  1  0
 11 22  2  0
 10 23  1  1
 27 29  1  0
 29 30  1  0
 29 36  1  1
 29 37  1  0
 37 38  2  3
 37 39  1  0
 38 40  1  0
 23 24  2  0
 24 25  1  0
 25 26  2  0
 26 27  1  0
 27 28  2  0
 28 23  1  0
 15 16  2  0
 16 17  1  0
 17 19  2  0
 19 20  1  0
 20 21  2  0
 21 15  1  0
  1  2  2  0
  2  7  1  0
  7  6  2  0
  6  5  1  0
  5  4  2  0
  4  1  1  0
 30 31  2  0
 31 34  1  0
 34 35  2  0
 35 33  1  0
 33 32  2  0
 32 30  1  0
M  END
$$$$
