No_4039-complexes_sdf/6BKW-FPZ/2024-09-17-14-21-01/
     RDKit          3D

 13 14  0  0  0  0  0  0  0  0999 V2000
   -7.9040    3.9820   27.1177 C   0  0  0  0  0  0  0  0  0  0  0  0
   -7.8663    4.8694   27.9238 C   0  0  0  0  0  0  0  0  0  0  0  0
   -9.0491    3.8523   26.2542 C   0  0  0  0  0  0  0  0  0  0  0  0
   -8.7661    5.9491   27.9690 C   0  0  0  0  0  0  0  0  0  0  0  0
   -9.9295    4.8502   26.2323 C   0  0  0  0  0  0  0  0  0  0  0  0
   -9.8077    5.9288   27.0933 C   0  0  0  0  0  0  0  0  0  0  0  0
   -8.9047    2.6822   25.3193 C   0  0  0  0  0  0  0  0  0  0  0  0
   -8.7201    1.4366   25.8842 C   0  0  0  0  0  0  0  0  0  0  0  0
   -8.6544    0.3257   25.0418 C   0  0  0  0  0  0  0  0  0  0  0  0
   -7.8818   -0.7153   25.4383 C   0  0  0  0  0  0  0  0  0  0  0  0
   -7.4697   -0.8954   26.7897 C   0  0  0  0  0  0  0  0  0  0  0  0
   -7.5888    0.2082   27.6572 C   0  0  0  0  0  0  0  0  0  0  0  0
   -8.0626    1.3689   27.2014 C   0  0  0  0  0  0  0  0  0  0  0  0
  3  7  1  0
  7  8  1  0
  1  2  2  0
  2  4  1  0
  4  6  2  0
  6  5  1  0
  5  3  2  0
  3  1  1  0
  8  9  2  0
  9 10  1  0
 10 11  2  0
 11 12  1  0
 12 13  2  0
 13  8  1  0
M  END
$$$$
