No_4558-complexes_sdf/6BKW-FPZ/2024-09-17-14-21-01/
     RDKit          3D

 20 22  0  0  0  0  0  0  0  0999 V2000
   -7.2496    3.8871   27.4508 C   0  0  0  0  0  0  0  0  0  0  0  0
   -7.9379    4.9063   27.8518 C   0  0  0  0  0  0  0  0  0  0  0  0
   -8.7729    5.5444   27.0168 C   0  0  0  0  0  0  0  0  0  0  0  0
   -7.7708    3.0049   26.4155 C   0  0  0  0  0  0  0  0  0  0  0  0
   -9.3916    4.8208   25.9624 C   0  0  0  0  0  0  0  0  0  0  0  0
   -8.8052    3.5944   25.6431 C   0  0  0  0  0  0  0  0  0  0  0  0
   -9.4316    2.8790   24.5454 C   0  0  0  0  0  0  0  0  0  0  0  0
  -10.3371    3.4886   23.7289 N   0  0  0  0  0  0  0  0  0  0  0  0
  -10.8420    2.8058   22.7152 C   0  0  0  0  0  0  0  0  0  0  0  0
  -10.3387    1.5241   22.4473 C   0  0  0  0  0  0  0  0  0  0  0  0
   -9.0881    1.5983   24.1257 C   0  0  0  0  0  0  0  0  0  0  0  0
  -10.8895    0.8348   21.2398 C   0  0  0  0  0  0  0  0  0  0  0  0
   -9.4027    0.9435   23.1604 C   0  0  0  0  0  0  0  0  0  0  0  0
  -11.9214   -0.0685   21.5204 C   0  0  0  0  0  0  0  0  0  0  0  0
  -12.4343   -0.7980   20.4824 C   0  0  0  0  0  0  0  0  0  0  0  0
  -11.9297   -0.5927   19.1326 C   0  0  0  0  0  0  0  0  0  0  0  0
  -10.9280    0.3253   18.9255 C   0  0  0  0  0  0  0  0  0  0  0  0
  -10.3423    1.1025   19.9734 C   0  0  0  0  0  0  0  0  0  0  0  0
  -11.7363    3.3954   21.9767 F   0  0  0  0  0  0  0  0  0  0  0  0
   -7.3814    5.6774   28.8477 F   0  0  0  0  0  0  0  0  0  0  0  0
  6  7  1  0
 10 12  1  0
  9 19  1  0
  2 20  1  0
 12 14  2  0
 14 15  1  0
 15 16  2  0
 16 17  1  0
 17 18  2  0
 18 12  1  0
  1  2  2  0
  2  3  1  0
  3  5  2  0
  5  6  1  0
  6  4  2  0
  4  1  1  0
  7  8  2  0
  8  9  1  0
  9 10  2  0
 10 13  1  0
 13 11  2  0
 11  7  1  0
M  END
$$$$
