No_4329-complexes_sdf/6BKW-FPZ/2024-09-17-14-21-01/
     RDKit          3D

 15 16  0  0  0  0  0  0  0  0999 V2000
   -7.7129    4.2099   27.0854 C   0  0  0  0  0  0  0  0  0  0  0  0
   -8.9133    4.4736   27.0998 C   0  0  0  0  0  0  0  0  0  0  0  0
   -9.7135    3.9633   26.0300 C   0  0  0  0  0  0  0  0  0  0  0  0
   -7.1708    2.9509   26.6517 C   0  0  0  0  0  0  0  0  0  0  0  0
   -8.1422    2.1350   26.0104 C   0  0  0  0  0  0  0  0  0  0  0  0
   -9.3363    2.7131   25.6563 C   0  0  0  0  0  0  0  0  0  0  0  0
  -10.2574    1.9443   24.7747 C   0  0  0  0  0  0  0  0  0  0  0  0
   -9.7847    1.1006   23.9423 C   0  0  0  0  0  0  0  0  0  0  0  0
  -10.5288    0.4929   22.8915 C   0  0  0  0  0  0  0  0  0  0  0  0
  -11.8946    0.8321   22.8235 C   0  0  0  0  0  0  0  0  0  0  0  0
  -11.6384    2.1855   24.7356 C   0  0  0  0  0  0  0  0  0  0  0  0
  -12.4286    1.6831   23.7281 C   0  0  0  0  0  0  0  0  0  0  0  0
   -6.8023    4.9157   28.1738 C   0  0  0  0  0  0  0  0  0  0  0  0
   -5.7738    4.5625   28.3891 O   0  0  0  0  0  0  0  0  0  0  0  0
   -7.2829    6.0610   28.5004 O   0  0  0  0  0  0  0  0  0  0  0  0
  6  7  1  0
  1 13  1  0
 13 14  2  0
 13 15  1  0
  7  8  2  0
  8  9  1  0
  9 10  2  0
 10 12  1  0
 12 11  2  0
 11  7  1  0
  1  2  2  0
  2  3  1  0
  3  6  2  0
  6  5  1  0
  5  4  2  0
  4  1  1  0
M  END
$$$$
