No_4701-complexes_sdf/6BKW-FPZ/2024-09-17-14-21-01/
     RDKit          3D

 32 36  0  0  0  0  0  0  0  0999 V2000
   -7.9040    3.9820   27.1177 C   0  0  0  0  0  0  0  0  0  0  0  0
   -7.8663    4.8694   27.9238 C   0  0  0  0  0  0  0  0  0  0  0  0
   -7.4698    2.6989   27.4277 C   0  0  0  0  0  0  0  0  0  0  0  0
   -7.9683    1.5964   26.8266 C   0  0  1  0  0  0  0  0  0  0  0  0
   -8.9447    1.7923   25.8533 C   0  0  0  0  0  0  0  0  0  0  0  0
   -9.4405    2.9988   25.5757 C   0  0  1  0  0  0  0  0  0  0  0  0
   -8.9424    4.1117   26.2388 C   0  0  0  0  0  0  0  0  0  0  0  0
   -8.2732    6.2141   27.6484 N   0  0  0  0  0  0  0  0  0  0  0  0
   -9.1540    6.5068   26.6734 C   0  0  0  0  0  0  0  0  0  0  0  0
   -9.5312    5.3927   25.9147 C   0  0  0  0  0  0  0  0  0  0  0  0
   -7.3926    0.2681   27.0981 C   0  0  0  0  0  0  0  0  0  0  0  0
   -6.3714    0.2663   27.7678 F   0  0  0  0  0  0  0  0  0  0  0  0
   -8.3186   -0.4601   27.7879 F   0  0  0  0  0  0  0  0  0  0  0  0
   -7.1868   -0.4395   25.9361 F   0  0  0  0  0  0  0  0  0  0  0  0
  -10.4147    3.0719   24.4652 C   0  0  0  0  0  0  0  0  0  0  0  0
  -10.1621    2.6083   23.2554 C   0  0  0  0  0  0  0  0  0  0  0  0
  -11.0162    2.7158   22.1798 C   0  0  0  0  0  0  0  0  0  0  0  0
  -12.0921    3.5611   22.2383 C   0  0  0  0  0  0  0  0  0  0  0  0
  -11.4943    4.0515   24.5031 C   0  0  0  0  0  0  0  0  0  0  0  0
  -12.3375    4.2229   23.4749 C   0  0  0  0  0  0  0  0  0  0  0  0
  -10.7117    1.9686   20.9314 C   0  0  0  0  0  0  0  0  0  0  0  0
  -11.3337    2.2235   19.8409 C   0  0  0  0  0  0  0  0  0  0  0  0
  -12.4395    3.1983   19.8331 C   0  0  0  0  0  0  0  0  0  0  0  0
  -12.8203    3.8608   21.0207 C   0  0  0  0  0  0  0  0  0  0  0  0
   -9.6630    1.1553   20.9509 O   0  0  0  0  0  0  0  0  0  0  0  0
   -9.9935   -0.1835   20.9989 C   0  0  0  0  0  0  0  0  0  0  0  0
   -9.8757   -0.8735   22.2967 C   0  0  0  0  0  0  0  0  0  0  0  0
   -8.7009   -0.8349   22.8548 C   0  0  0  0  0  0  0  0  0  0  0  0
  -11.0181   -1.4573   22.7555 C   0  0  0  0  0  0  0  0  0  0  0  0
  -10.9489   -2.0622   24.0760 C   0  0  0  0  0  0  0  0  0  0  0  0
   -9.6893   -2.1578   24.7257 C   0  0  0  0  0  0  0  0  0  0  0  0
   -8.5740   -1.5409   24.1078 C   0  0  0  0  0  0  0  0  0  0  0  0
  1  3  1  0
  3  4  1  0
  4  5  1  0
  5  6  1  0
  6  7  1  0
  4 11  1  6
 11 12  1  0
 11 13  1  0
 11 14  1  0
  6 15  1  6
 21 25  1  0
 25 26  1  0
 26 27  1  0
  1  2  2  0
  2  8  1  0
  8  9  2  0
  9 10  1  0
 10  7  2  0
  7  1  1  0
 27 28  2  0
 28 32  1  0
 32 31  2  0
 31 30  1  0
 30 29  2  0
 29 27  1  0
 18 24  2  0
 24 23  1  0
 23 22  2  0
 22 21  1  0
 21 17  2  0
 15 16  2  0
 16 17  1  0
 17 18  1  0
 18 20  1  0
 20 19  2  0
 19 15  1  0
M  END
$$$$
