No_486-complexes_sdf/6BKW-FPZ/2024-09-17-14-21-01/
     RDKit          3D

 32 36  0  0  0  0  0  0  0  0999 V2000
   -7.9040    3.9820   27.1177 C   0  0  0  0  0  0  0  0  0  0  0  0
   -8.2057    2.8231   26.8733 C   0  0  0  0  0  0  0  0  0  0  0  0
   -7.0130    4.3706   28.1140 C   0  0  0  0  0  0  0  0  0  0  0  0
   -9.3829    2.4374   26.1668 C   0  0  0  0  0  0  0  0  0  0  0  0
  -10.0975    3.4171   25.5988 C   0  0  0  0  0  0  0  0  0  0  0  0
   -9.7335    4.7745   25.7705 C   0  0  0  0  0  0  0  0  0  0  0  0
   -8.7317    5.1107   26.5933 C   0  0  0  0  0  0  0  0  0  0  0  0
   -8.3983    6.4679   26.8933 C   0  0  0  0  0  0  0  0  0  0  0  0
   -7.3346    6.7850   27.7126 C   0  0  0  0  0  0  0  0  0  0  0  0
   -6.7763    5.7820   28.3880 C   0  0  0  0  0  0  0  0  0  0  0  0
   -7.4283    1.6440   27.4607 C   0  0  0  0  0  0  0  0  0  0  0  0
   -7.7869    0.3681   27.2401 N   0  0  0  0  0  0  0  0  0  0  0  0
   -7.1624   -0.4888   26.5296 C   0  0  0  0  0  0  0  0  0  0  0  0
   -5.9628   -0.4044   26.3376 C   0  0  0  0  0  0  0  0  0  0  0  0
   -7.9960   -1.5326   25.9597 C   0  0  0  0  0  0  0  0  0  0  0  0
   -5.2407   -1.4344   25.5306 C   0  0  0  0  0  0  0  0  0  0  0  0
   -9.3792   -1.5618   26.1590 C   0  0  0  0  0  0  0  0  0  0  0  0
   -6.0476   -2.3507   24.9171 C   0  0  0  0  0  0  0  0  0  0  0  0
   -7.3598   -2.4196   25.1534 C   0  0  0  0  0  0  0  0  0  0  0  0
  -10.2308   -1.3193   25.1766 C   0  0  0  0  0  0  0  0  0  0  0  0
  -11.5445   -1.0412   25.3528 C   0  0  0  0  0  0  0  0  0  0  0  0
  -12.0787   -1.1270   26.6563 C   0  0  0  0  0  0  0  0  0  0  0  0
  -11.2504   -1.3354   27.7770 C   0  0  0  0  0  0  0  0  0  0  0  0
   -9.8945   -1.4571   27.5702 C   0  0  0  0  0  0  0  0  0  0  0  0
   -6.2762    1.8516   27.9515 O   0  0  0  0  0  0  0  0  0  0  0  0
  -11.2411    3.0926   24.6986 C   0  0  0  0  0  0  0  0  0  0  0  0
  -12.4632    3.1205   25.1685 C   0  0  0  0  0  0  0  0  0  0  0  0
  -10.9744    2.6978   23.3753 C   0  0  0  0  0  0  0  0  0  0  0  0
   -9.7123    2.6154   22.7802 C   0  0  0  0  0  0  0  0  0  0  0  0
  -12.0233    2.0634   22.6987 C   0  0  0  0  0  0  0  0  0  0  0  0
  -13.3324    2.1510   23.1074 C   0  0  0  0  0  0  0  0  0  0  0  0
  -13.5610    2.6832   24.4674 C   0  0  0  0  0  0  0  0  0  0  0  0
  2 11  1  0
 11 12  1  0
 12 13  1  0
 15 17  1  0
 11 25  2  0
  5 26  1  0
 28 29  1  0
 17 20  2  0
 20 21  1  0
 21 22  2  0
 22 23  1  0
 23 24  2  0
 24 17  1  0
 26 27  2  0
 27 32  1  0
 32 31  2  0
 31 30  1  0
 30 28  2  0
 28 26  1  0
  1  3  2  0
  3 10  1  0
 10  9  2  0
  9  8  1  0
  8  7  2  0
 13 14  2  0
 14 16  1  0
 16 18  2  0
 18 19  1  0
 19 15  2  0
 15 13  1  0
  1  2  1  0
  2  4  2  0
  4  5  1  0
  5  6  2  0
  6  7  1  0
  7  1  1  0
M  END
$$$$
