No_4868-complexes_sdf/6BKW-FPZ/2024-09-17-14-21-01/
     RDKit          3D

 15 16  0  0  0  0  0  0  0  0999 V2000
   -7.9040    3.9820   27.1177 C   0  0  0  0  0  0  0  0  0  0  0  0
   -8.2057    2.8231   26.8733 C   0  0  0  0  0  0  0  0  0  0  0  0
   -8.7695    5.0740   26.7916 C   0  0  0  0  0  0  0  0  0  0  0  0
   -9.9618    4.7598   26.1630 C   0  0  0  0  0  0  0  0  0  0  0  0
   -9.4200    2.4524   26.2849 C   0  0  0  0  0  0  0  0  0  0  0  0
  -10.2590    3.4815   25.9250 C   0  0  0  0  0  0  0  0  0  0  0  0
   -8.6094    6.4941   27.0911 C   0  0  0  0  0  0  0  0  0  0  0  0
   -8.6799    7.4583   26.3400 N   0  0  0  0  0  0  0  0  0  0  0  0
   -7.2634    1.6828   27.2920 C   0  0  0  0  0  0  0  0  0  0  0  0
   -6.0165    2.0041   27.8648 C   0  0  0  0  0  0  0  0  0  0  0  0
   -5.1171    0.9319   28.2089 C   0  0  0  0  0  0  0  0  0  0  0  0
   -5.4853   -0.3643   28.0897 C   0  0  0  0  0  0  0  0  0  0  0  0
   -7.3693    0.2829   27.2287 C   0  0  0  0  0  0  0  0  0  0  0  0
   -6.6661   -0.6442   27.6148 C   0  0  0  0  0  0  0  0  0  0  0  0
   -7.5391    6.6556   28.0445 O   0  0  0  0  0  0  0  0  0  0  0  0
  3  7  1  0
  7  8  1  0
  2  9  1  0
  7 15  2  0
  1  2  2  0
  2  5  1  0
  5  6  2  0
  6  4  1  0
  4  3  2  0
  3  1  1  0
  9 10  2  0
 10 11  1  0
 11 12  2  0
 12 14  1  0
 14 13  2  0
 13  9  1  0
M  END
$$$$
