No_4381-complexes_sdf/6BKW-FPZ/2024-09-17-14-21-01/
     RDKit          3D

 30 34  0  0  0  0  0  0  0  0999 V2000
   -7.7129    4.2099   27.0854 C   0  0  0  0  0  0  0  0  0  0  0  0
   -8.9133    4.4736   27.0998 C   0  0  0  0  0  0  0  0  0  0  0  0
   -9.4616    5.6470   27.6290 C   0  0  0  0  0  0  0  0  0  0  0  0
   -6.8722    5.1130   27.9248 C   0  0  0  0  0  0  0  0  0  0  0  0
   -7.3801    6.2535   28.4126 C   0  0  0  0  0  0  0  0  0  0  0  0
   -8.6734    6.5530   28.2150 C   0  0  0  0  0  0  0  0  0  0  0  0
   -9.8157    3.4887   26.3527 C   0  0  0  0  0  0  0  0  0  0  0  0
   -9.9163    3.5905   24.9383 C   0  0  0  0  0  0  0  0  0  0  0  0
  -10.5903    2.7150   24.1444 C   0  0  0  0  0  0  0  0  0  0  0  0
  -11.1844    1.6171   24.7355 C   0  0  0  0  0  0  0  0  0  0  0  0
  -10.5448    2.4483   26.8941 C   0  0  0  0  0  0  0  0  0  0  0  0
  -11.1966    1.4818   26.1635 C   0  0  0  0  0  0  0  0  0  0  0  0
  -10.5798    2.9021   22.7020 C   0  0  1  0  0  0  0  0  0  0  0  0
  -10.8672    4.0967   22.1430 C   0  0  0  0  0  0  0  0  0  0  0  0
  -10.1319    1.8625   21.8286 C   0  0  0  0  0  0  0  0  0  0  0  0
   -9.4647    0.7360   22.3205 C   0  0  0  0  0  0  0  0  0  0  0  0
   -9.1725   -0.3618   21.5499 C   0  0  0  0  0  0  0  0  0  0  0  0
   -9.8698   -0.4756   20.3444 C   0  0  0  0  0  0  0  0  0  0  0  0
  -10.7778    0.5074   19.9327 C   0  0  0  0  0  0  0  0  0  0  0  0
  -10.8936    1.7105   20.6635 C   0  0  0  0  0  0  0  0  0  0  0  0
  -11.1007    4.3544   21.0283 F   0  0  0  0  0  0  0  0  0  0  0  0
  -11.6104    4.8869   23.0975 F   0  0  0  0  0  0  0  0  0  0  0  0
   -8.3466   -1.4653   22.0105 C   0  0  0  0  0  0  0  0  0  0  0  0
   -7.5264   -1.1990   23.0855 C   0  0  0  0  0  0  0  0  0  0  0  0
   -6.7786   -1.7536   23.7777 C   0  0  0  0  0  0  0  0  0  0  0  0
   -5.9358   -1.2578   24.8932 C   0  0  0  0  0  0  0  0  0  0  0  0
   -6.4971   -0.1266   25.5167 C   0  0  0  0  0  0  0  0  0  0  0  0
   -7.6489    0.5198   24.9597 C   0  0  0  0  0  0  0  0  0  0  0  0
   -8.0934    0.0929   23.8465 C   0  0  0  0  0  0  0  0  0  0  0  0
   -8.9867    0.8613   23.2270 N   0  0  0  0  0  0  0  0  0  0  0  0
  2  7  1  0
  9 13  1  0
 13 14  1  1
 13 15  1  0
 14 21  1  0
 14 22  1  0
 15 16  2  0
 17 18  2  0
 18 19  1  0
 19 20  2  0
 20 15  1  0
 24 25  1  0
 25 26  2  0
 26 27  1  0
 27 28  2  0
 28 29  1  0
  1  2  2  0
  2  3  1  0
  3  6  2  0
  6  5  1  0
  5  4  2  0
  4  1  1  0
 16 17  1  0
 17 23  1  0
 23 24  2  0
 24 29  1  0
 29 30  2  0
 30 16  1  0
  7  8  2  0
  8  9  1  0
  9 10  2  0
 10 12  1  0
 12 11  2  0
 11  7  1  0
M  END
$$$$
