No_4363-complexes_sdf/6BKW-FPZ/2024-09-17-14-21-01/
     RDKit          3D

 15 15  0  0  0  0  0  0  0  0999 V2000
   -7.2496    3.8871   27.4508 C   0  0  0  0  0  0  0  0  0  0  0  0
   -8.5096    4.0291   27.2770 C   0  0  0  0  0  0  0  0  0  0  0  0
   -9.2677    5.1714   27.5773 C   0  0  0  0  0  0  0  0  0  0  0  0
   -6.5711    2.6400   27.2842 C   0  0  0  0  0  0  0  0  0  0  0  0
   -7.2751    1.5612   27.3443 C   0  0  0  0  0  0  0  0  0  0  0  0
   -8.6451    1.6030   27.1566 C   0  0  0  0  0  0  0  0  0  0  0  0
   -9.2835    2.8243   27.2772 C   0  0  0  0  0  0  0  0  0  0  0  0
   -9.2124    6.1142   26.6678 C   0  0  0  0  0  0  0  0  0  0  0  0
   -6.6074    0.2304   27.2449 C   0  0  0  0  0  0  0  0  0  0  0  0
   -5.3724    0.1605   27.8782 C   0  0  0  0  0  0  0  0  0  0  0  0
   -4.7732   -0.5690   28.3151 C   0  0  0  0  0  0  0  0  0  0  0  0
   -3.8437   -0.6031   29.1685 C   0  0  0  0  0  0  0  0  0  0  0  0
   -3.2196    0.7110   29.5564 C   0  0  0  0  0  0  0  0  0  0  0  0
   -4.8289    1.5730   28.4114 C   0  0  0  0  0  0  0  0  0  0  0  0
   -3.6251    1.4440   28.9148 N   0  0  0  0  0  0  0  0  0  0  0  0
  1  2  1  0
  2  3  2  3
  1  4  1  0
  4  5  1  0
  5  6  1  0
  2  7  1  0
  6  7  1  0
  3  8  1  0
  5  9  1  0
  9 10  1  0
 10 11  2  3
 11 12  1  0
 12 13  2  0
 10 14  1  0
 14 15  2  0
M  END
$$$$
