No_4230-complexes_sdf/6BKW-FPZ/2024-09-17-14-21-01/
     RDKit          3D

 18 19  0  0  0  0  0  0  0  0999 V2000
   -7.7129    4.2099   27.0854 C   0  0  0  0  0  0  0  0  0  0  0  0
   -8.9133    4.4736   27.0998 C   0  0  0  0  0  0  0  0  0  0  0  0
   -9.7135    3.9633   26.0300 C   0  0  0  0  0  0  0  0  0  0  0  0
   -7.1708    2.9509   26.6517 C   0  0  0  0  0  0  0  0  0  0  0  0
   -8.1338    2.1226   26.0346 C   0  0  0  0  0  0  0  0  0  0  0  0
   -9.3389    2.6863   25.6841 C   0  0  0  0  0  0  0  0  0  0  0  0
  -10.2366    1.9249   24.7890 C   0  0  0  0  0  0  0  0  0  0  0  0
   -9.7102    1.2978   23.7763 C   0  0  0  0  0  0  0  0  0  0  0  0
  -11.6258    2.0245   24.9003 C   0  0  0  0  0  0  0  0  0  0  0  0
   -6.8600    4.8307   28.0812 O   0  0  0  0  0  0  0  0  0  0  0  0
  -10.4106    0.8476   22.6324 C   0  0  0  0  0  0  0  0  0  0  0  0
  -12.4260    1.5128   23.8393 C   0  0  0  0  0  0  0  0  0  0  0  0
  -11.7980    0.8587   22.7721 C   0  0  0  0  0  0  0  0  0  0  0  0
   -9.3759    5.8711   27.5790 C   0  0  0  0  0  0  0  0  0  0  0  0
  -12.6134    0.3045   21.6808 C   0  0  0  0  0  0  0  0  0  0  0  0
  -12.8897   -0.6514   21.4648 C   0  0  0  0  0  0  0  0  0  0  0  0
  -13.3022   -1.4418   20.9530 C   0  0  0  0  0  0  0  0  0  0  0  0
  -13.3109   -2.8512   21.3736 C   0  0  0  0  0  0  0  0  0  0  0  0
  6  7  1  0
  1 10  1  0
  2 14  1  0
 13 15  1  0
 15 16  2  3
 16 17  1  0
 17 18  2  0
  7  8  2  0
  8 11  1  0
 11 13  2  0
 13 12  1  0
 12  9  2  0
  9  7  1  0
  1  2  2  0
  2  3  1  0
  3  6  2  0
  6  5  1  0
  5  4  2  0
  4  1  1  0
M  END
$$$$
