No_4105-complexes_sdf/6BKW-FPZ/2024-09-17-14-21-01/
     RDKit          3D

 12 13  0  0  0  0  0  0  0  0999 V2000
   -7.7129    4.2099   27.0854 C   0  0  0  0  0  0  0  0  0  0  0  0
   -8.9133    4.4736   27.0998 C   0  0  0  0  0  0  0  0  0  0  0  0
   -9.4643    5.5426   27.7628 C   0  0  0  0  0  0  0  0  0  0  0  0
   -7.1220    4.1625   28.1614 C   0  0  0  0  0  0  0  0  0  0  0  0
   -7.2976    5.3836   28.9985 C   0  0  0  0  0  0  0  0  0  0  0  0
   -8.5684    5.9639   28.8530 C   0  0  0  0  0  0  0  0  0  0  0  0
   -9.8129    4.0616   25.8522 C   0  0  0  0  0  0  0  0  0  0  0  0
  -10.1670    4.8594   24.9488 N   0  0  0  0  0  0  0  0  0  0  0  0
  -10.7711    4.4448   23.8155 C   0  0  0  0  0  0  0  0  0  0  0  0
  -10.1376    2.7368   25.7642 C   0  0  0  0  0  0  0  0  0  0  0  0
  -10.7729    2.2381   24.6642 C   0  0  0  0  0  0  0  0  0  0  0  0
  -11.1271    3.1820   23.6668 C   0  0  0  0  0  0  0  0  0  0  0  0
  2  7  1  0
  1  2  2  0
  2  3  1  0
  3  6  2  0
  6  5  1  0
  5  4  2  0
  4  1  1  0
  7  8  2  0
  8  9  1  0
  9 12  2  0
 12 11  1  0
 11 10  2  0
 10  7  1  0
M  END
$$$$
