No_4543-complexes_sdf/6BKW-FPZ/2024-09-17-14-21-01/
     RDKit          3D

 11 11  0  0  0  0  0  0  0  0999 V2000
   -7.9040    3.9820   27.1177 C   0  0  0  0  0  0  0  0  0  0  0  0
   -8.2057    2.8231   26.8733 C   0  0  0  0  0  0  0  0  0  0  0  0
   -7.0130    4.3706   28.1140 C   0  0  0  0  0  0  0  0  0  0  0  0
   -7.4093    1.7370   27.3857 C   0  0  0  0  0  0  0  0  0  0  0  0
   -7.6967    0.3945   27.1348 C   0  0  1  0  0  0  0  0  0  0  0  0
   -5.9465    3.4404   28.3275 C   0  0  0  0  0  0  0  0  0  0  0  0
   -6.2311    2.0815   28.0719 C   0  0  0  0  0  0  0  0  0  0  0  0
   -6.7693   -0.8715   27.2967 Cl  0  0  0  0  0  0  0  0  0  0  0  0
   -9.1347    0.0999   26.7499 C   0  0  0  0  0  0  0  0  0  0  0  0
   -9.5681   -1.0155   26.8504 C   0  0  0  0  0  0  0  0  0  0  0  0
   -8.8765   -2.0642   27.6064 C   0  0  0  0  0  0  0  0  0  0  0  0
  4  5  1  0
  5  8  1  1
  5  9  1  0
  9 10  2  3
 10 11  1  0
  1  2  2  0
  2  4  1  0
  4  7  2  0
  7  6  1  0
  6  3  2  0
  3  1  1  0
M  END
$$$$
