No_4903-complexes_sdf/6BKW-FPZ/2024-09-17-14-21-01/
     RDKit          3D

 40 44  0  0  0  0  0  0  0  0999 V2000
   -7.7129    4.2099   27.0854 C   0  0  0  0  0  0  0  0  0  0  0  0
   -8.9133    4.4736   27.0998 C   0  0  0  0  0  0  0  0  0  0  0  0
   -9.7937    3.7368   26.2091 C   0  0  0  0  0  0  0  0  0  0  0  0
   -6.8266    5.0441   28.0594 C   0  0  0  0  0  0  0  0  0  0  0  0
   -9.2322    2.6276   25.6126 C   0  0  0  0  0  0  0  0  0  0  0  0
   -7.9794    2.1924   25.9863 C   0  0  0  0  0  0  0  0  0  0  0  0
   -7.2411    2.9387   26.9009 C   0  0  0  0  0  0  0  0  0  0  0  0
  -10.0894    1.7793   24.7540 C   0  0  2  0  0  0  0  0  0  0  0  0
  -10.0283    2.1971   23.3715 C   0  0  0  0  0  0  0  0  0  0  0  0
  -10.3926    1.2831   22.3578 C   0  0  0  0  0  0  0  0  0  0  0  0
  -10.3106    1.6859   21.0032 C   0  0  0  0  0  0  0  0  0  0  0  0
   -9.9785    3.0396   20.7056 C   0  0  0  0  0  0  0  0  0  0  0  0
   -9.8574    3.9761   21.7327 C   0  0  0  0  0  0  0  0  0  0  0  0
   -9.9130    3.5973   23.0297 C   0  0  0  0  0  0  0  0  0  0  0  0
  -11.4162    1.5840   25.2612 C   0  0  0  0  0  0  0  0  0  0  0  0
  -11.7180    0.2748   25.5534 C   0  0  0  0  0  0  0  0  0  0  0  0
  -12.9904   -0.0212   26.1558 C   0  0  0  0  0  0  0  0  0  0  0  0
  -13.8585    1.0597   26.4079 C   0  0  0  0  0  0  0  0  0  0  0  0
  -13.5368    2.3296   26.1024 C   0  0  0  0  0  0  0  0  0  0  0  0
  -12.3059    2.6381   25.5805 C   0  0  0  0  0  0  0  0  0  0  0  0
   -9.3701    0.3342   24.7089 C   0  0  0  0  0  0  0  0  0  0  0  0
  -10.3754   -0.5655   25.2528 C   0  0  0  0  0  0  0  0  0  0  0  0
  -10.4090   -1.9264   25.4724 C   0  0  0  0  0  0  0  0  0  0  0  0
  -10.4585   -2.6934   24.5812 N   0  0  0  0  0  0  0  0  0  0  0  0
  -10.8569   -3.9038   24.5312 C   0  0  0  0  0  0  0  0  0  0  0  0
  -10.2443   -2.2898   26.7196 O   0  0  0  0  0  0  0  0  0  0  0  0
  -10.8764   -4.5772   23.4937 C   0  0  0  0  0  0  0  0  0  0  0  0
  -11.4082   -5.8824   23.3528 C   0  0  0  0  0  0  0  0  0  0  0  0
  -11.9019   -6.4888   24.5331 C   0  0  0  0  0  0  0  0  0  0  0  0
  -11.8871   -5.7798   25.7066 C   0  0  0  0  0  0  0  0  0  0  0  0
  -11.4323   -4.4906   25.7637 C   0  0  0  0  0  0  0  0  0  0  0  0
   -9.4589    5.8571   27.4613 C   0  0  0  0  0  0  0  0  0  0  0  0
  -12.4143   -7.8517   24.4482 C   0  0  0  0  0  0  0  0  0  0  0  0
  -12.6023   -8.4849   23.6347 N   0  0  0  0  0  0  0  0  0  0  0  0
  -12.8204   -8.5927   26.2192 Br  0  0  0  0  0  0  0  0  0  0  0  0
  -13.1906   -9.6729   23.4599 C   0  0  0  0  0  0  0  0  0  0  0  0
  -13.4978  -10.2547   22.6355 C   0  0  0  0  0  0  0  0  0  0  0  0
  -14.1637  -11.5857   22.5724 C   0  0  0  0  0  0  0  0  0  0  0  0
  -14.4131  -12.1735   23.7874 C   0  0  0  0  0  0  0  0  0  0  0  0
  -14.0340  -11.4942   24.8987 C   0  0  0  0  0  0  0  0  0  0  0  0
  1  4  1  0
  8  5  1  1
  8  9  1  0
  8 15  1  0
  8 21  1  0
 16 22  1  0
 21 22  2  0
 22 23  1  0
 23 24  1  0
 24 25  1  0
 23 26  2  0
  2 32  1  0
 29 33  1  0
 33 34  1  0
 33 35  1  0
 34 36  1  0
 36 37  2  3
 37 38  1  0
 38 39  2  3
 39 40  1  0
 15 16  1  0
 16 17  2  0
 17 18  1  0
 18 19  2  0
 19 20  1  0
 20 15  2  0
 25 27  2  0
 27 28  1  0
 28 29  2  0
 29 30  1  0
 30 31  2  0
 31 25  1  0
  9 10  2  0
 10 11  1  0
 11 12  2  0
 12 13  1  0
 13 14  2  0
 14  9  1  0
  1  2  2  0
  2  3  1  0
  3  5  2  0
  5  6  1  0
  6  7  2  0
  7  1  1  0
M  END
$$$$
