No_4952-complexes_sdf/6BKW-FPZ/2024-09-17-14-21-01/
     RDKit          3D

 16 17  0  0  0  0  0  0  0  0999 V2000
   -7.7129    4.2099   27.0854 C   0  0  0  0  0  0  0  0  0  0  0  0
   -8.2112    3.0637   26.9225 C   0  0  0  0  0  0  0  0  0  0  0  0
   -9.4446    2.8304   26.1868 C   0  0  0  0  0  0  0  0  0  0  0  0
   -6.6388    4.5347   28.1123 C   0  0  0  0  0  0  0  0  0  0  0  0
   -9.9448    3.9173   25.5585 C   0  0  0  0  0  0  0  0  0  0  0  0
   -9.3660    5.1901   25.7094 C   0  0  0  0  0  0  0  0  0  0  0  0
   -8.3659    5.4005   26.5436 C   0  0  0  0  0  0  0  0  0  0  0  0
  -11.1201    3.7822   24.6455 C   0  0  0  0  0  0  0  0  0  0  0  0
  -11.0081    4.0530   23.3053 C   0  0  0  0  0  0  0  0  0  0  0  0
  -12.0797    3.9188   22.4046 C   0  0  0  0  0  0  0  0  0  0  0  0
  -13.3197    3.5430   22.9129 C   0  0  0  0  0  0  0  0  0  0  0  0
  -12.4530    3.5645   25.1260 C   0  0  0  0  0  0  0  0  0  0  0  0
  -13.4945    3.4835   24.3040 C   0  0  0  0  0  0  0  0  0  0  0  0
   -6.6995    5.6770   28.7266 N   0  0  0  0  0  0  0  0  0  0  0  0
   -5.5933    3.8691   27.8840 O   0  0  0  0  0  0  0  0  0  0  0  0
   -9.9808    1.2535   25.9087 Cl  0  0  0  0  0  0  0  0  0  0  0  0
  1  4  1  0
  5  8  1  0
  4 14  1  0
  4 15  2  0
  3 16  1  0
  8  9  2  0
  9 10  1  0
 10 11  2  0
 11 13  1  0
 13 12  2  0
 12  8  1  0
  1  2  2  0
  2  3  1  0
  3  5  2  0
  5  6  1  0
  6  7  2  0
  7  1  1  0
M  END
$$$$
