No_4006-complexes_sdf/6BKW-FPZ/2024-09-17-14-21-01/
     RDKit          3D

 24 27  0  0  0  0  0  0  0  0999 V2000
   -7.7129    4.2099   27.0854 C   0  0  0  0  0  0  0  0  0  0  0  0
   -7.7814    5.1722   27.8972 C   0  0  0  0  0  0  0  0  0  0  0  0
   -8.8998    3.8713   26.3707 C   0  0  0  0  0  0  0  0  0  0  0  0
   -9.9938    4.6774   26.5446 C   0  0  0  0  0  0  0  0  0  0  0  0
   -8.7789    6.1536   27.9256 C   0  0  0  0  0  0  0  0  0  0  0  0
   -9.9428    5.8398   27.2296 C   0  0  0  0  0  0  0  0  0  0  0  0
   -8.9208    2.6404   25.5721 C   0  0  0  0  0  0  0  0  0  0  0  0
   -9.7377    1.6978   26.0657 C   0  0  0  0  0  0  0  0  0  0  0  0
  -10.6913    1.6811   26.7543 C   0  0  0  0  0  0  0  0  0  0  0  0
  -11.4322    2.5682   27.1250 C   0  0  0  0  0  0  0  0  0  0  0  0
  -11.3475    3.8958   26.7709 C   0  0  0  0  0  0  0  0  0  0  0  0
   -9.1267    0.2978   25.5755 C   0  0  2  0  0  0  0  0  0  0  0  0
   -8.9084   -0.0502   24.5655 N   0  0  0  0  0  0  0  0  0  0  0  0
   -8.0334   -0.7974   24.0591 C   0  0  0  0  0  0  0  0  0  0  0  0
   -7.6212   -0.6954   22.7500 C   0  0  0  0  0  0  0  0  0  0  0  0
   -9.7314    0.5380   23.4662 C   0  0  0  0  0  0  0  0  0  0  0  0
   -9.3594    0.5169   22.1249 C   0  0  0  0  0  0  0  0  0  0  0  0
   -8.3449   -0.1974   21.7413 C   0  0  0  0  0  0  0  0  0  0  0  0
   -9.9356   -0.7749   26.4244 C   0  0  0  0  0  0  0  0  0  0  0  0
  -11.0053    0.1484   27.0477 C   0  0  0  0  0  0  0  0  0  0  0  0
  -10.5848   -1.7449   25.6281 C   0  0  0  0  0  0  0  0  0  0  0  0
  -10.1007   -3.0038   25.8857 C   0  0  0  0  0  0  0  0  0  0  0  0
   -9.2377   -3.2415   26.9977 C   0  0  0  0  0  0  0  0  0  0  0  0
   -8.7829   -2.2217   27.7997 C   0  0  0  0  0  0  0  0  0  0  0  0
  3  7  1  0
  7  8  1  0
  8  9  1  0
  9 10  2  0
  4 11  1  0
 10 11  1  0
  8 12  1  0
 12 13  1  6
 13 14  1  0
 13 16  1  0
 15 18  1  0
 17 18  1  0
 12 19  1  0
  9 20  1  0
 19 20  2  0
 19 21  1  0
 21 22  2  3
 22 23  1  0
 23 24  2  0
 14 15  1  0
 17 16  1  0
  1  2  2  0
  2  5  1  0
  5  6  2  0
  6  4  1  0
  4  3  2  0
  3  1  1  0
M  END
$$$$
