No_4478-complexes_sdf/6BKW-FPZ/2024-09-17-14-21-01/
     RDKit          3D

 16 17  0  0  0  0  0  0  0  0999 V2000
   -7.9040    3.9820   27.1177 C   0  0  0  0  0  0  0  0  0  0  0  0
   -7.8663    4.8694   27.9238 C   0  0  0  0  0  0  0  0  0  0  0  0
   -9.0806    3.1428   27.1220 C   0  0  2  0  0  0  0  0  0  0  0  0
   -8.9544    1.8782   26.5467 C   0  0  0  0  0  0  0  0  0  0  0  0
   -8.9992    5.6252   28.3272 C   0  0  0  0  0  0  0  0  0  0  0  0
  -10.2387    4.9629   28.1481 C   0  0  0  0  0  0  0  0  0  0  0  0
  -10.2265    3.7422   27.5150 C   0  0  2  0  0  0  0  0  0  0  0  0
   -8.3578    0.8206   27.2036 C   0  0  0  0  0  0  0  0  0  0  0  0
   -7.6145    1.0293   28.3056 C   0  0  0  0  0  0  0  0  0  0  0  0
   -8.5964   -0.5490   26.7281 C   0  0  0  0  0  0  0  0  0  0  0  0
   -9.5631    1.6683   25.2967 C   0  0  0  0  0  0  0  0  0  0  0  0
   -9.5486    0.5722   24.5817 C   0  0  0  0  0  0  0  0  0  0  0  0
   -9.1112   -0.6071   25.3716 C   0  0  0  0  0  0  0  0  0  0  0  0
  -11.5009    3.0025   27.4120 C   0  0  0  0  0  0  0  0  0  0  0  0
  -11.9975    2.2661   27.8913 C   0  0  0  0  0  0  0  0  0  0  0  0
  -13.2821    1.6060   27.7119 C   0  0  0  0  0  0  0  0  0  0  0  0
  1  2  1  0
  1  3  1  0
  2  5  1  0
  5  6  1  0
  3  7  1  0
  7  6  1  1
  7 14  1  0
 14 15  2  3
 15 16  1  0
  3  4  1  6
  9  8  1  0
  4  8  2  0
  8 10  1  0
 10 13  2  0
 13 12  1  0
 12 11  2  0
 11  4  1  0
M  END
$$$$
