No_4592-complexes_sdf/6BKW-FPZ/2024-09-17-14-21-01/
     RDKit          3D

 30 34  0  0  0  0  0  0  0  0999 V2000
   -7.9040    3.9820   27.1177 C   0  0  0  0  0  0  0  0  0  0  0  0
   -8.2057    2.8231   26.8733 C   0  0  0  0  0  0  0  0  0  0  0  0
   -8.7695    5.0740   26.7916 C   0  0  0  0  0  0  0  0  0  0  0  0
   -9.9618    4.7598   26.1630 C   0  0  0  0  0  0  0  0  0  0  0  0
   -9.4200    2.4524   26.2849 C   0  0  0  0  0  0  0  0  0  0  0  0
  -10.2590    3.4815   25.9250 C   0  0  0  0  0  0  0  0  0  0  0  0
   -8.6094    6.4941   27.0911 C   0  0  0  0  0  0  0  0  0  0  0  0
   -7.8959    7.4951   26.8579 N   0  0  0  0  0  0  0  0  0  0  0  0
   -7.2472    1.6887   27.2679 C   0  0  0  0  0  0  0  0  0  0  0  0
   -6.0123    2.0250   27.8586 C   0  0  0  0  0  0  0  0  0  0  0  0
   -5.1019    0.9557   28.1997 C   0  0  0  0  0  0  0  0  0  0  0  0
   -5.4653   -0.3419   28.0585 C   0  0  0  0  0  0  0  0  0  0  0  0
   -7.5096    0.3316   27.2014 C   0  0  0  0  0  0  0  0  0  0  0  0
   -6.7264   -0.6256   27.6170 C   0  0  0  0  0  0  0  0  0  0  0  0
   -4.5930   -1.3250   28.5494 N   0  0  0  0  0  0  0  0  0  0  0  0
   -3.4745   -1.4125   28.2186 C   0  0  0  0  0  0  0  0  0  0  0  0
   -5.1415   -2.2672   29.4878 C   0  0  0  0  0  0  0  0  0  0  0  0
   -4.5257   -2.4563   30.6120 C   0  0  0  0  0  0  0  0  0  0  0  0
   -5.0775   -2.9564   31.7384 C   0  0  0  0  0  0  0  0  0  0  0  0
   -6.4138   -3.4367   31.6285 C   0  0  0  0  0  0  0  0  0  0  0  0
   -7.1160   -3.1868   30.4534 C   0  0  0  0  0  0  0  0  0  0  0  0
   -6.5380   -2.4513   29.4748 C   0  0  0  0  0  0  0  0  0  0  0  0
   -2.5477   -0.4020   28.4587 C   0  0  0  0  0  0  0  0  0  0  0  0
   -2.9794   -2.5394   27.5201 C   0  0  0  0  0  0  0  0  0  0  0  0
   -1.1460   -0.5059   28.0503 C   0  0  0  0  0  0  0  0  0  0  0  0
   -1.6347   -2.6400   27.1020 C   0  0  0  0  0  0  0  0  0  0  0  0
   -0.7377   -1.5886   27.4102 C   0  0  0  0  0  0  0  0  0  0  0  0
   -7.3635   -1.7824   28.4428 C   0  0  0  0  0  0  0  0  0  0  0  0
   -8.6560   -2.2083   28.1906 C   0  0  0  0  0  0  0  0  0  0  0  0
   -9.6782   -1.6434   28.8526 C   0  0  0  0  0  0  0  0  0  0  0  0
  3  7  1  0
  7  8  3  0
  2  9  1  0
 12 15  1  0
 15 16  1  0
 15 17  1  0
 14 28  1  0
 22 28  1  0
 28 29  1  0
 29 30  2  0
  1  2  2  0
  2  5  1  0
  5  6  2  0
  6  4  1  0
  4  3  2  0
  3  1  1  0
  9 10  2  0
 10 11  1  0
 11 12  2  0
 12 14  1  0
 14 13  2  0
 13  9  1  0
 17 18  2  0
 18 19  1  0
 19 20  2  0
 20 21  1  0
 21 22  2  0
 22 17  1  0
 16 23  2  0
 23 25  1  0
 25 27  2  0
 27 26  1  0
 26 24  2  0
 24 16  1  0
M  END
$$$$
