No_4726-complexes_sdf/6BKW-FPZ/2024-09-17-14-21-01/
     RDKit          3D

 24 28  0  0  0  0  0  0  0  0999 V2000
   -7.2496    3.8871   27.4508 C   0  0  0  0  0  0  0  0  0  0  0  0
   -8.5096    4.0291   27.2770 C   0  0  2  0  0  0  0  0  0  0  0  0
   -9.2677    5.1714   27.5773 C   0  0  0  0  0  0  0  0  0  0  0  0
   -9.3517    2.7730   27.3663 C   0  0  2  0  0  0  0  0  0  0  0  0
   -8.7152    1.6342   27.3100 C   0  0  0  0  0  0  0  0  0  0  0  0
   -6.4334    5.0606   27.8281 C   0  0  0  0  0  0  0  0  0  0  0  0
   -7.2800    1.5101   27.2304 C   0  0  0  0  0  0  0  0  0  0  0  0
   -6.5658    2.6359   27.4811 C   0  0  2  0  0  0  0  0  0  0  0  0
   -8.5815    6.4418   27.3500 C   0  0  0  0  0  0  0  0  0  0  0  0
   -7.1192    6.3306   27.6477 C   0  0  0  0  0  0  0  0  0  0  0  0
   -6.6316    0.2391   27.1343 C   0  0  0  0  0  0  0  0  0  0  0  0
   -5.4616   -0.0453   27.8424 C   0  0  0  0  0  0  0  0  0  0  0  0
   -4.9880    0.9682   28.8034 C   0  0  0  0  0  0  0  0  0  0  0  0
   -5.2748    2.3806   28.3125 C   0  0  0  0  0  0  0  0  0  0  0  0
  -10.8295    2.8228   27.4036 C   0  0  0  0  0  0  0  0  0  0  0  0
  -11.5496    3.7051   27.3851 C   0  0  0  0  0  0  0  0  0  0  0  0
  -10.6120    5.0931   27.4663 C   0  0  0  0  0  0  0  0  0  0  0  0
  -11.4796    1.4355   27.4496 C   0  0  0  0  0  0  0  0  0  0  0  0
  -12.7343    1.3615   27.1935 C   0  0  0  0  0  0  0  0  0  0  0  0
  -13.4009    0.0587   27.2618 C   0  0  0  0  0  0  0  0  0  0  0  0
  -14.7236   -0.0253   27.0547 C   0  0  0  0  0  0  0  0  0  0  0  0
  -15.4511    1.1344   26.7842 C   0  0  0  0  0  0  0  0  0  0  0  0
  -14.9017    2.3367   26.7358 C   0  0  0  0  0  0  0  0  0  0  0  0
  -13.5058    2.4716   26.9632 C   0  0  0  0  0  0  0  0  0  0  0  0
  2  1  1  1
  2  3  1  0
  2  4  1  0
  4  5  1  6
  1  6  2  0
  5  7  2  0
  1  8  1  0
  7  8  1  0
  3  9  2  0
  6 10  1  0
  9 10  1  0
  7 11  1  0
 11 12  2  0
 12 13  1  0
  8 14  1  1
 13 14  1  0
  4 15  1  0
 15 16  2  0
  3 17  1  0
 16 17  1  0
 15 18  1  0
 18 19  2  3
 19 20  1  0
 20 21  2  0
 21 22  1  0
 22 23  2  0
 19 24  1  0
 23 24  1  0
M  END
$$$$
