No_4757-complexes_sdf/6BKW-FPZ/2024-09-17-14-21-01/
     RDKit          3D

 19 21  0  0  0  0  0  0  0  0999 V2000
   -7.9040    3.9820   27.1177 C   0  0  0  0  0  0  0  0  0  0  0  0
   -7.8663    4.8694   27.9238 C   0  0  0  0  0  0  0  0  0  0  0  0
   -9.0491    3.8523   26.2542 C   0  0  0  0  0  0  0  0  0  0  0  0
   -8.7661    5.9491   27.9690 C   0  0  0  0  0  0  0  0  0  0  0  0
   -9.1715    2.7136   25.4037 C   0  0  0  0  0  0  0  0  0  0  0  0
   -9.8832    5.8611   27.1405 C   0  0  0  0  0  0  0  0  0  0  0  0
  -10.0016    4.7998   26.3324 C   0  0  0  0  0  0  0  0  0  0  0  0
  -10.0621    2.7513   24.3194 C   0  0  0  0  0  0  0  0  0  0  0  0
  -10.9414    3.8960   24.2704 C   0  0  0  0  0  0  0  0  0  0  0  0
  -10.9513    4.7869   25.2207 C   0  0  0  0  0  0  0  0  0  0  0  0
  -11.9809    3.9847   23.2822 C   0  0  0  0  0  0  0  0  0  0  0  0
  -12.2981    2.8473   22.6481 C   0  0  0  0  0  0  0  0  0  0  0  0
  -13.2197    2.8325   21.6740 C   0  0  0  0  0  0  0  0  0  0  0  0
  -13.8556    4.0517   21.2801 C   0  0  0  0  0  0  0  0  0  0  0  0
  -13.5237    5.2200   21.9485 C   0  0  0  0  0  0  0  0  0  0  0  0
  -12.5692    5.2370   22.9133 C   0  0  0  0  0  0  0  0  0  0  0  0
   -6.7130    2.7006   27.2084 Cl  0  0  0  0  0  0  0  0  0  0  0  0
  -13.8816    1.4486   20.6549 Br  0  0  0  0  0  0  0  0  0  0  0  0
  -10.0584    1.4287   23.2911 Cl  0  0  0  0  0  0  0  0  0  0  0  0
  9 11  1  0
  1 17  1  0
 13 18  1  0
  8 19  1  0
  3  5  2  0
  5  8  1  0
  8  9  2  0
  9 10  1  0
 10  7  2  0
 11 12  2  0
 12 13  1  0
 13 14  2  0
 14 15  1  0
 15 16  2  0
 16 11  1  0
  1  2  2  0
  2  4  1  0
  4  6  2  0
  6  7  1  0
  7  3  1  0
  3  1  1  0
M  END
$$$$
