No_4660-complexes_sdf/6BKW-FPZ/2024-09-17-14-21-01/
     RDKit          3D

 18 19  0  0  0  0  0  0  0  0999 V2000
   -7.7129    4.2099   27.0854 C   0  0  0  0  0  0  0  0  0  0  0  0
   -8.9133    4.4736   27.0998 C   0  0  0  0  0  0  0  0  0  0  0  0
   -9.4643    5.5426   27.7628 C   0  0  0  0  0  0  0  0  0  0  0  0
   -9.8091    3.6358   26.2841 C   0  0  0  0  0  0  0  0  0  0  0  0
  -10.3717    2.5594   26.9241 C   0  0  0  0  0  0  0  0  0  0  0  0
  -10.3040    2.3353   28.2164 C   0  0  0  0  0  0  0  0  0  0  0  0
   -6.8256    4.9273   28.0591 C   0  0  0  0  0  0  0  0  0  0  0  0
   -8.6286    6.4498   28.4781 C   0  0  0  0  0  0  0  0  0  0  0  0
   -7.2379    6.0094   28.1747 C   0  0  0  0  0  0  0  0  0  0  0  0
  -11.0141    1.4848   26.1228 C   0  0  0  0  0  0  0  0  0  0  0  0
  -11.1288    1.7157   24.8708 C   0  0  0  0  0  0  0  0  0  0  0  0
  -11.5844    0.8497   23.9883 C   0  0  0  0  0  0  0  0  0  0  0  0
   -9.9111    3.8277   24.9186 C   0  0  0  0  0  0  0  0  0  0  0  0
  -10.4963    2.8702   24.2012 C   0  0  0  0  0  0  0  0  0  0  0  0
  -11.6354    0.5162   22.9267 C   0  0  0  0  0  0  0  0  0  0  0  0
  -12.2905   -0.5379   22.1656 C   0  0  0  0  0  0  0  0  0  0  0  0
  -12.9827   -1.3565   22.9466 C   0  0  0  0  0  0  0  0  0  0  0  0
  -13.0721   -1.1789   24.2552 C   0  0  0  0  0  0  0  0  0  0  0  0
  2  4  1  0
 12 15  1  0
 15 16  1  0
 16 17  2  3
 17 18  1  0
  6  5  1  0
 12 11  1  0
  1  2  2  0
  2  3  1  0
  3  8  2  0
  8  9  1  0
  9  7  2  0
  7  1  1  0
  4  5  2  0
  5 10  1  0
 10 11  2  0
 11 14  1  0
 14 13  2  0
 13  4  1  0
M  END
$$$$
