No_4771-complexes_sdf/6BKW-FPZ/2024-09-17-14-21-01/
     RDKit          3D

 13 14  0  0  0  0  0  0  0  0999 V2000
   -7.2496    3.8871   27.4508 C   0  0  0  0  0  0  0  0  0  0  0  0
   -8.5096    4.0291   27.2770 C   0  0  0  0  0  0  0  0  0  0  0  0
   -9.2677    5.1714   27.5773 C   0  0  2  0  0  0  0  0  0  0  0  0
   -9.2765    2.8248   26.8371 C   0  0  0  0  0  0  0  0  0  0  0  0
  -10.4623    3.0171   26.3236 C   0  0  0  0  0  0  0  0  0  0  0  0
  -10.8972    2.6250   25.3350 C   0  0  0  0  0  0  0  0  0  0  0  0
  -10.0294    1.7957   24.4945 C   0  0  0  0  0  0  0  0  0  0  0  0
   -6.5412    2.6535   27.4188 C   0  0  0  0  0  0  0  0  0  0  0  0
   -8.9195    1.2702   25.1566 C   0  0  0  0  0  0  0  0  0  0  0  0
   -8.3945    2.0204   26.2559 C   0  0  0  0  0  0  0  0  0  0  0  0
   -7.0086    1.8157   26.5683 C   0  0  0  0  0  0  0  0  0  0  0  0
   -8.5954    6.3150   27.9739 N   0  0  0  0  0  0  0  0  0  0  0  0
  -10.5182    5.2580   27.7587 F   0  0  0  0  0  0  0  0  0  0  0  0
  2  3  1  0
  3 12  1  1
  3 13  1  0
  4  5  2  0
  5  6  1  0
  6  7  2  0
  7  9  1  0
  9 10  2  0
  1  2  2  0
  2  4  1  0
  4 10  1  0
 10 11  1  0
 11  8  2  0
  8  1  1  0
M  END
$$$$
