No_4909-complexes_sdf/6BKW-FPZ/2024-09-17-14-21-01/
     RDKit          3D

 12 12  0  0  0  0  0  0  0  0999 V2000
   -7.7129    4.2099   27.0854 C   0  0  0  0  0  0  0  0  0  0  0  0
   -7.7814    5.1722   27.8972 C   0  0  0  0  0  0  0  0  0  0  0  0
   -7.3155    2.9699   27.6145 C   0  0  0  0  0  0  0  0  0  0  0  0
   -7.6814    1.8188   26.9581 C   0  0  0  0  0  0  0  0  0  0  0  0
   -7.2010    0.5770   27.3247 C   0  0  0  0  0  0  0  0  0  0  0  0
   -7.9191   -0.5882   27.1192 C   0  0  0  0  0  0  0  0  0  0  0  0
   -9.0850   -0.4407   26.3239 C   0  0  0  0  0  0  0  0  0  0  0  0
   -9.5006    0.7417   25.8080 C   0  0  0  0  0  0  0  0  0  0  0  0
   -8.8203    1.9166   26.2206 C   0  0  0  0  0  0  0  0  0  0  0  0
   -8.5617    6.3615   27.5797 C   0  0  0  0  0  0  0  0  0  0  0  0
   -9.1244    6.4390   26.2378 C   0  0  0  0  0  0  0  0  0  0  0  0
   -8.5433    4.3095   26.0913 F   0  0  0  0  0  0  0  0  0  0  0  0
  1  2  1  0
  1  3  2  3
  3  4  1  0
  2 10  2  3
 10 11  1  0
  1 12  1  0
  4  5  2  0
  5  6  1  0
  6  7  2  0
  7  8  1  0
  8  9  2  0
  9  4  1  0
M  END
$$$$
