No_449-complexes_sdf/6BKW-FPZ/2024-09-17-14-21-01/
     RDKit          3D

 30 34  0  0  0  0  0  0  0  0999 V2000
   -7.2496    3.8871   27.4508 C   0  0  0  0  0  0  0  0  0  0  0  0
   -8.5096    4.0291   27.2770 C   0  0  0  0  0  0  0  0  0  0  0  0
   -9.2677    5.1714   27.5773 C   0  0  0  0  0  0  0  0  0  0  0  0
   -6.5711    2.6400   27.2842 C   0  0  0  0  0  0  0  0  0  0  0  0
   -7.3283    1.5214   27.0582 C   0  0  0  0  0  0  0  0  0  0  0  0
   -8.6504    1.6822   26.7652 C   0  0  0  0  0  0  0  0  0  0  0  0
   -9.3200    2.8587   26.9882 C   0  0  0  0  0  0  0  0  0  0  0  0
  -10.5889    5.2362   27.6812 N   0  0  0  0  0  0  0  0  0  0  0  0
   -8.5062    6.4778   27.5912 C   0  0  0  0  0  0  0  0  0  0  0  0
   -6.6150    0.2839   26.8306 C   0  0  0  0  0  0  0  0  0  0  0  0
   -6.6614   -0.3793   25.9324 O   0  0  0  0  0  0  0  0  0  0  0  0
   -5.6988   -0.1335   27.9859 N   0  0  0  0  0  0  0  0  0  0  0  0
   -5.3969    0.6286   29.0984 C   0  0  0  0  0  0  0  0  0  0  0  0
   -4.5310   -0.2031   30.0016 C   0  0  0  0  0  0  0  0  0  0  0  0
   -4.3179   -1.4178   29.4126 C   0  0  0  0  0  0  0  0  0  0  0  0
   -5.0969   -1.3558   28.1186 C   0  0  0  0  0  0  0  0  0  0  0  0
   -7.1680    6.5108   27.3292 C   0  0  0  0  0  0  0  0  0  0  0  0
   -6.5111    5.1806   27.4880 C   0  0  0  0  0  0  0  0  0  0  0  0
   -3.9550    0.2147   31.2273 C   0  0  0  0  0  0  0  0  0  0  0  0
   -2.9867   -0.6301   31.8028 C   0  0  0  0  0  0  0  0  0  0  0  0
   -2.6353   -1.8483   31.1048 C   0  0  0  0  0  0  0  0  0  0  0  0
   -3.3568   -2.1704   29.9631 C   0  0  0  0  0  0  0  0  0  0  0  0
   -2.3651   -0.2530   32.9372 O   0  0  0  0  0  0  0  0  0  0  0  0
   -2.5166   -0.8993   34.1664 C   0  0  0  0  0  0  0  0  0  0  0  0
   -3.6453   -0.9879   34.6491 C   0  0  0  0  0  0  0  0  0  0  0  0
   -3.8043   -1.2506   36.0172 C   0  0  0  0  0  0  0  0  0  0  0  0
   -2.6461   -1.3738   36.8244 C   0  0  0  0  0  0  0  0  0  0  0  0
   -1.4040   -1.1723   36.2673 C   0  0  0  0  0  0  0  0  0  0  0  0
   -1.2732   -0.7618   34.9436 C   0  0  0  0  0  0  0  0  0  0  0  0
   -0.0858   -0.5818   34.4088 O   0  0  0  0  0  0  0  0  0  0  0  0
  3  8  1  0
  5 10  1  0
 10 11  2  0
 10 12  1  0
 12 13  1  0
 12 16  1  0
 15 16  1  0
 20 23  1  0
 23 24  1  0
 29 30  1  0
 13 14  1  0
 14 15  2  0
 15 22  1  0
 22 21  2  0
 21 20  1  0
 20 19  2  0
 19 14  1  0
 24 25  2  0
 25 26  1  0
 26 27  2  0
 27 28  1  0
 28 29  2  0
 29 24  1  0
  2  3  2  0
  3  9  1  0
  9 17  2  0
 17 18  1  0
 18  1  2  0
  1  2  1  0
  2  7  1  0
  7  6  2  0
  6  5  1  0
  5  4  2  0
  4  1  1  0
M  END
$$$$
