No_4991-complexes_sdf/6BKW-FPZ/2024-09-17-14-21-01/
     RDKit          3D

 21 22  0  0  0  0  0  0  0  0999 V2000
   -7.7129    4.2099   27.0854 C   0  0  0  0  0  0  0  0  0  0  0  0
   -7.7814    5.1722   27.8972 C   0  0  0  0  0  0  0  0  0  0  0  0
   -7.3155    2.9699   27.6145 C   0  0  0  0  0  0  0  0  0  0  0  0
   -6.9774    2.0071   26.9623 C   0  0  0  0  0  0  0  0  0  0  0  0
   -6.2970    0.8917   27.5555 C   0  0  0  0  0  0  0  0  0  0  0  0
   -6.4084   -0.4281   27.3038 C   0  0  0  0  0  0  0  0  0  0  0  0
   -7.1705   -0.6991   26.1426 C   0  0  0  0  0  0  0  0  0  0  0  0
   -7.8366    0.2516   25.4621 C   0  0  0  0  0  0  0  0  0  0  0  0
   -7.8963    1.4790   26.0205 C   0  0  0  0  0  0  0  0  0  0  0  0
   -8.5057    6.2792   28.1700 C   0  0  0  0  0  0  0  0  0  0  0  0
   -9.1829    6.7293   26.9084 C   0  0  0  0  0  0  0  0  0  0  0  0
   -9.2120    5.7324   25.8582 C   0  0  0  0  0  0  0  0  0  0  0  0
   -8.6110    4.4497   25.9746 C   0  0  0  0  0  0  0  0  0  0  0  0
   -8.8394   -0.1466   24.1459 Cl  0  0  0  0  0  0  0  0  0  0  0  0
   -5.5707   -1.4239   27.9553 C   0  0  0  0  0  0  0  0  0  0  0  0
   -4.2745   -1.4558   27.9319 C   0  0  0  0  0  0  0  0  0  0  0  0
   -3.5303   -0.4259   27.7626 C   0  0  0  0  0  0  0  0  0  0  0  0
   -3.4646    0.5623   28.5131 C   0  0  0  0  0  0  0  0  0  0  0  0
   -2.6777   -0.3078   26.5374 C   0  0  0  0  0  0  0  0  0  0  0  0
   -3.7822    0.5099   29.7940 O   0  0  0  0  0  0  0  0  0  0  0  0
   -2.1504    0.7576   26.0989 O   0  0  0  0  0  0  0  0  0  0  0  0
  3  4  1  0
  8 14  1  0
  6 15  1  0
 15 16  1  0
 16 17  1  0
 17 18  1  0
 17 19  1  0
 18 20  2  0
 19 21  2  0
  3  1  1  0
  1  2  2  0
  2 10  1  0
 10 11  2  0
 11 12  1  0
 12 13  2  0
 13  1  1  0
  4  5  2  0
  5  6  1  0
  6  7  2  0
  7  8  1  0
  8  9  2  0
  9  4  1  0
M  END
$$$$
