No_4228-complexes_sdf/6BKW-FPZ/2024-09-17-14-21-01/
     RDKit          3D

 36 42  0  0  0  0  0  0  0  0999 V2000
   -7.7129    4.2099   27.0854 C   0  0  0  0  0  0  0  0  0  0  0  0
   -7.7814    5.1722   27.8972 C   0  0  0  0  0  0  0  0  0  0  0  0
   -8.8998    3.8713   26.3707 C   0  0  0  0  0  0  0  0  0  0  0  0
   -8.9563    2.6796   25.5490 C   0  0  0  0  0  0  0  0  0  0  0  0
   -8.8131    6.1334   27.9344 C   0  0  0  0  0  0  0  0  0  0  0  0
   -9.9804    5.8121   27.1929 C   0  0  0  0  0  0  0  0  0  0  0  0
   -9.9861    4.6836   26.4532 C   0  0  0  0  0  0  0  0  0  0  0  0
   -9.7347    1.7154   26.0600 C   0  0  2  0  0  0  0  0  0  0  0  0
   -9.5396    0.7709   26.3463 C   0  0  0  0  0  0  0  0  0  0  0  0
   -8.0797    0.2301   26.3469 C   0  0  0  0  0  0  0  0  0  0  0  0
   -7.8524   -0.9937   26.5482 C   0  0  0  0  0  0  0  0  0  0  0  0
   -8.8379   -1.8607   27.0993 C   0  0  0  0  0  0  0  0  0  0  0  0
  -10.1276   -1.4617   27.2414 C   0  0  0  0  0  0  0  0  0  0  0  0
  -10.4583   -0.1739   26.8916 C   0  0  0  0  0  0  0  0  0  0  0  0
  -11.1064    1.6510   25.1691 C   0  0  0  0  0  0  0  0  0  0  0  0
  -11.4353    2.4837   24.5045 C   0  0  0  0  0  0  0  0  0  0  0  0
  -12.3780    2.6351   23.7393 C   0  0  0  0  0  0  0  0  0  0  0  0
  -13.3529    1.5979   23.8838 C   0  0  0  0  0  0  0  0  0  0  0  0
  -13.0577    0.5635   24.7149 C   0  0  0  0  0  0  0  0  0  0  0  0
  -11.9551    0.6073   25.4183 C   0  0  0  0  0  0  0  0  0  0  0  0
  -11.5964   -0.3818   26.3038 N   0  0  0  0  0  0  0  0  0  0  0  0
  -12.6166   -1.2958   26.6318 C   0  0  0  0  0  0  0  0  0  0  0  0
  -13.0760   -1.0084   27.9459 C   0  0  0  0  0  0  0  0  0  0  0  0
  -14.0253   -0.8803   28.3724 C   0  0  0  0  0  0  0  0  0  0  0  0
  -14.4223   -0.5668   29.7896 C   0  0  0  0  0  0  0  0  0  0  0  0
  -13.3949   -0.5710   30.6448 C   0  0  0  0  0  0  0  0  0  0  0  0
  -12.0114   -0.9337   29.1415 C   0  0  0  0  0  0  0  0  0  0  0  0
  -12.2889   -0.7532   30.3589 N   0  0  0  0  0  0  0  0  0  0  0  0
  -10.5951   -1.1344   28.6012 N   0  0  0  0  0  0  0  0  0  0  0  0
  -15.3127   -0.8530   27.4601 C   0  0  0  0  0  0  0  0  0  0  0  0
  -15.9101    0.2794   27.1926 C   0  0  0  0  0  0  0  0  0  0  0  0
  -16.8612    0.3545   26.1588 C   0  0  0  0  0  0  0  0  0  0  0  0
  -17.2028   -0.8254   25.5325 C   0  0  0  0  0  0  0  0  0  0  0  0
  -15.6380   -1.9827   26.7246 C   0  0  0  0  0  0  0  0  0  0  0  0
  -16.6033   -1.9659   25.7971 C   0  0  0  0  0  0  0  0  0  0  0  0
   -6.6783    5.6014   28.6537 O   0  0  0  0  0  0  0  0  0  0  0  0
  3  4  1  0
  8  4  1  6
  8 15  1  0
 14 21  1  0
 20 21  1  0
 21 22  1  0
 22 23  1  0
 13 29  1  0
 27 29  1  0
 24 30  1  0
  2 36  1  0
  9  8  1  0
 15 16  2  0
 16 17  1  0
 17 18  2  0
 18 19  1  0
 19 20  2  0
 20 15  1  0
 30 31  2  0
 31 32  1  0
 32 33  2  0
 33 35  1  0
 35 34  2  0
 34 30  1  0
  1  2  2  0
  2  5  1  0
  5  6  2  0
  6  7  1  0
  7  3  2  0
  3  1  1  0
  9 10  2  0
 10 11  1  0
 11 12  2  0
 12 13  1  0
 13 14  2  0
 14  9  1  0
 23 24  2  0
 24 25  1  0
 25 26  2  0
 26 28  1  0
 28 27  2  0
 27 23  1  0
M  END
$$$$
