No_4114-complexes_sdf/6BKW-FPZ/2024-09-17-14-21-01/
     RDKit          3D

 27 30  0  0  0  0  0  0  0  0999 V2000
   -7.7129    4.2099   27.0854 C   0  0  0  0  0  0  0  0  0  0  0  0
   -7.7814    5.1722   27.8972 C   0  0  0  0  0  0  0  0  0  0  0  0
   -8.8776    3.8408   26.3416 C   0  0  0  0  0  0  0  0  0  0  0  0
   -9.9844    4.6492   26.4743 C   0  0  0  0  0  0  0  0  0  0  0  0
   -8.8033    6.1375   27.8728 C   0  0  0  0  0  0  0  0  0  0  0  0
   -9.9554    5.8280   27.1736 C   0  0  0  0  0  0  0  0  0  0  0  0
   -8.6804    2.5787   25.5887 C   0  0  0  0  0  0  0  0  0  0  0  0
   -9.5533    1.6141   26.0596 C   0  0  0  0  0  0  0  0  0  0  0  0
   -9.2162    0.3799   25.7102 C   0  0  0  0  0  0  0  0  0  0  0  0
   -9.9315   -0.7093   26.2735 C   0  0  0  0  0  0  0  0  0  0  0  0
  -10.9892   -0.4434   27.2007 C   0  0  0  0  0  0  0  0  0  0  0  0
  -11.2452    0.8417   27.6060 C   0  0  0  0  0  0  0  0  0  0  0  0
  -10.4933    1.8946   27.1361 C   0  0  0  0  0  0  0  0  0  0  0  0
   -8.2141    0.0231   24.7501 C   0  0  0  0  0  0  0  0  0  0  0  0
   -6.9969   -0.2771   25.0407 N   0  0  0  0  0  0  0  0  0  0  0  0
   -8.5232    0.2003   23.4945 O   0  0  0  0  0  0  0  0  0  0  0  0
   -6.4980   -0.5698   26.3822 C   0  0  0  0  0  0  0  0  0  0  0  0
   -5.2135   -0.6377   26.5628 C   0  0  0  0  0  0  0  0  0  0  0  0
   -4.3920   -1.2390   25.6313 C   0  0  0  0  0  0  0  0  0  0  0  0
   -4.9542   -1.1562   24.2619 C   0  0  0  0  0  0  0  0  0  0  0  0
   -6.2245   -0.7947   24.0349 C   0  0  0  0  0  0  0  0  0  0  0  0
  -12.3145    1.1261   28.6603 C   0  0  0  0  0  0  0  0  0  0  0  0
  -13.4018    1.9344   28.1898 C   0  0  0  0  0  0  0  0  0  0  0  0
  -14.1322    2.4177   29.0894 C   0  0  0  0  0  0  0  0  0  0  0  0
  -14.0432    2.1341   30.5251 C   0  0  0  0  0  0  0  0  0  0  0  0
  -13.0511    1.2714   30.8521 C   0  0  0  0  0  0  0  0  0  0  0  0
  -12.1252    0.8244   29.9837 C   0  0  0  0  0  0  0  0  0  0  0  0
  3  7  1  0
  7  8  1  0
  9 14  1  0
 14 15  1  0
 14 16  2  0
 15 17  1  0
 18 19  1  0
 15 21  1  0
 20 21  1  0
 12 22  1  0
 17 18  1  0
 19 20  1  0
 22 23  2  0
 23 24  1  0
 24 25  2  0
 25 26  1  0
 26 27  2  0
 27 22  1  0
  8  9  1  0
  9 10  2  0
 10 11  1  0
 11 12  2  0
 12 13  1  0
 13  8  2  0
  1  2  2  0
  2  5  1  0
  5  6  2  0
  6  4  1  0
  4  3  2  0
  3  1  1  0
M  END
$$$$
