No_4581-complexes_sdf/6BKW-FPZ/2024-09-17-14-21-01/
     RDKit          3D

 16 18  0  0  0  0  0  0  0  0999 V2000
   -7.2496    3.8871   27.4508 C   0  0  0  0  0  0  0  0  0  0  0  0
   -8.5096    4.0291   27.2770 C   0  0  0  0  0  0  0  0  0  0  0  0
   -9.2677    5.1714   27.5773 C   0  0  0  0  0  0  0  0  0  0  0  0
   -9.2765    2.8248   26.8371 C   0  0  0  0  0  0  0  0  0  0  0  0
  -10.4623    3.0171   26.3236 C   0  0  0  0  0  0  0  0  0  0  0  0
  -11.3015    3.9610   26.8543 C   0  0  0  0  0  0  0  0  0  0  0  0
  -10.7070    5.2935   27.2178 C   0  0  0  0  0  0  0  0  0  0  0  0
   -6.6772    2.6291   27.3839 N   0  0  0  0  0  0  0  0  0  0  0  0
   -7.3046    1.5222   27.0897 C   0  0  0  0  0  0  0  0  0  0  0  0
   -8.6114    1.6456   26.7109 C   0  0  0  0  0  0  0  0  0  0  0  0
   -6.5575    0.4140   27.0118 N   0  0  0  0  0  0  0  0  0  0  0  0
   -5.3695    0.2567   27.7838 C   0  0  0  0  0  0  0  0  0  0  0  0
   -4.8829   -0.5594   28.3322 C   0  0  0  0  0  0  0  0  0  0  0  0
   -5.5390   -1.8289   28.5022 C   0  0  0  0  0  0  0  0  0  0  0  0
   -6.6633   -1.9361   27.6910 C   0  0  0  0  0  0  0  0  0  0  0  0
   -7.2366   -0.8676   27.0259 C   0  0  0  0  0  0  0  0  0  0  0  0
  2  3  1  0
  4  5  1  0
  5  6  1  0
  3  7  1  0
  6  7  1  0
  9 11  1  0
 11 12  1  0
 13 14  1  0
 11 16  1  0
 15 16  1  0
 12 13  1  0
 14 15  1  0
  1  2  2  0
  2  4  1  0
  4 10  2  0
 10  9  1  0
  9  8  2  0
  8  1  1  0
M  END
$$$$
