No_4788-complexes_sdf/6BKW-FPZ/2024-09-17-14-21-01/
     RDKit          3D

 13 14  0  0  0  0  0  0  0  0999 V2000
   -7.2496    3.8871   27.4508 C   0  0  0  0  0  0  0  0  0  0  0  0
   -8.5096    4.0291   27.2770 C   0  0  0  0  0  0  0  0  0  0  0  0
   -9.3451    2.8786   26.9046 C   0  0  0  0  0  0  0  0  0  0  0  0
  -10.6709    3.0505   26.6789 C   0  0  0  0  0  0  0  0  0  0  0  0
   -6.5705    4.9572   27.9298 N   0  0  0  0  0  0  0  0  0  0  0  0
  -11.4098    2.0860   26.1915 C   0  0  0  0  0  0  0  0  0  0  0  0
   -9.0746    5.3138   27.3597 C   0  0  0  0  0  0  0  0  0  0  0  0
   -8.2951    6.4164   27.6396 C   0  0  0  0  0  0  0  0  0  0  0  0
   -7.0446    6.1790   28.0195 C   0  0  0  0  0  0  0  0  0  0  0  0
   -8.7573    1.6396   26.7159 C   0  0  0  0  0  0  0  0  0  0  0  0
   -9.4905    0.5907   26.2547 C   0  0  0  0  0  0  0  0  0  0  0  0
  -10.8385    0.7918   26.0411 C   0  0  0  0  0  0  0  0  0  0  0  0
   -6.6208    2.6974   27.5059 N   0  0  0  0  0  0  0  0  0  0  0  0
  2  3  1  0
  1 13  1  0
  1  2  2  0
  2  7  1  0
  7  8  2  0
  8  9  1  0
  9  5  2  0
  5  1  1  0
  3  4  2  0
  4  6  1  0
  6 12  2  0
 12 11  1  0
 11 10  2  0
 10  3  1  0
M  END
$$$$
