No_4016-complexes_sdf/6BKW-FPZ/2024-09-17-14-21-01/
     RDKit          3D

 12 12  0  0  0  0  0  0  0  0999 V2000
   -7.2496    3.8871   27.4508 C   0  0  0  0  0  0  0  0  0  0  0  0
   -7.6161    2.7143   27.1523 C   0  0  0  0  0  0  0  0  0  0  0  0
   -6.9719    1.5838   27.5324 C   0  0  0  0  0  0  0  0  0  0  0  0
   -5.6316    1.7305   27.9933 C   0  0  0  0  0  0  0  0  0  0  0  0
   -4.9339    0.6009   28.3654 N   0  0  0  0  0  0  0  0  0  0  0  0
   -8.0227    5.0822   27.1346 C   0  0  0  0  0  0  0  0  0  0  0  0
   -7.6687    6.4026   27.6664 C   0  0  0  0  0  0  0  0  0  0  0  0
   -5.5022   -0.5287   28.3916 C   0  0  0  0  0  0  0  0  0  0  0  0
   -7.2628    0.2142   27.5836 C   0  0  0  0  0  0  0  0  0  0  0  0
   -6.6884   -0.7552   27.9902 C   0  0  0  0  0  0  0  0  0  0  0  0
   -9.2478    4.7592   26.4967 C   0  0  0  0  0  0  0  0  0  0  0  0
  -10.1516    5.8328   26.1916 C   0  0  0  0  0  0  0  0  0  0  0  0
  1  2  2  3
  2  3  1  0
  1  6  1  0
  6  7  2  0
  6 11  1  0
 11 12  1  0
  3  4  2  0
  4  5  1  0
  5  8  2  0
  8 10  1  0
 10  9  2  0
  9  3  1  0
M  END
$$$$
