No_4931-complexes_sdf/6BKW-FPZ/2024-09-17-14-21-01/
     RDKit          3D

 32 36  0  0  0  0  0  0  0  0999 V2000
   -7.7129    4.2099   27.0854 C   0  0  0  0  0  0  0  0  0  0  0  0
   -8.2112    3.0637   26.9225 C   0  0  0  0  0  0  0  0  0  0  0  0
   -7.5138    1.9223   27.4249 C   0  0  0  0  0  0  0  0  0  0  0  0
   -8.5309    5.4147   26.8151 C   0  0  0  0  0  0  0  0  0  0  0  0
   -9.6817    5.2393   26.1100 C   0  0  0  0  0  0  0  0  0  0  0  0
  -10.1032    3.9957   25.8534 C   0  0  0  0  0  0  0  0  0  0  0  0
   -9.4034    2.8430   26.2573 C   0  0  0  0  0  0  0  0  0  0  0  0
   -7.9625    0.5664   27.2655 C   0  0  0  0  0  0  0  0  0  0  0  0
   -9.2469    0.4457   26.7795 C   0  0  0  0  0  0  0  0  0  0  0  0
   -9.9537    1.5362   26.1814 C   0  0  0  0  0  0  0  0  0  0  0  0
   -7.7813    6.6869   27.0344 C   0  0  0  0  0  0  0  0  0  0  0  0
   -8.4282    7.6883   26.6462 F   0  0  0  0  0  0  0  0  0  0  0  0
   -6.5736    6.7658   26.6978 F   0  0  0  0  0  0  0  0  0  0  0  0
   -7.2286   -0.5018   27.8635 C   0  0  1  0  0  0  0  0  0  0  0  0
   -6.7294   -1.2742   27.3021 N   0  0  0  0  0  0  0  0  0  0  0  0
   -5.9828   -2.2704   27.7925 C   0  0  0  0  0  0  0  0  0  0  0  0
   -5.7934   -2.1883   29.0717 C   0  0  0  0  0  0  0  0  0  0  0  0
   -6.2592   -1.2188   29.9470 C   0  0  2  0  0  0  0  0  0  0  0  0
   -6.9344   -0.3411   29.2927 C   0  0  0  0  0  0  0  0  0  0  0  0
   -7.8136    6.7471   28.4780 F   0  0  0  0  0  0  0  0  0  0  0  0
   -6.9843   -1.4000   25.7829 C   0  0  0  0  0  0  0  0  0  0  0  0
   -7.7913   -1.9973   25.1439 C   0  0  0  0  0  0  0  0  0  0  0  0
   -5.9703   -0.5325   25.0433 C   0  0  0  0  0  0  0  0  0  0  0  0
   -6.0319   -0.6092   23.6940 N   0  0  0  0  0  0  0  0  0  0  0  0
   -7.9477   -2.0147   23.7864 C   0  0  0  0  0  0  0  0  0  0  0  0
   -6.9768   -1.2350   23.0399 C   0  0  0  0  0  0  0  0  0  0  0  0
   -5.9407   -1.1320   31.3689 C   0  0  0  0  0  0  0  0  0  0  0  0
   -6.2242   -2.1010   32.3016 C   0  0  0  0  0  0  0  0  0  0  0  0
   -5.8594   -1.8808   33.6691 C   0  0  0  0  0  0  0  0  0  0  0  0
   -4.9124   -0.8611   33.9532 C   0  0  0  0  0  0  0  0  0  0  0  0
   -4.8939   -0.1632   31.7896 C   0  0  0  0  0  0  0  0  0  0  0  0
   -4.4226   -0.1081   33.0627 C   0  0  0  0  0  0  0  0  0  0  0  0
  4 11  1  0
 11 12  1  0
 11 13  1  0
 14  8  1  6
 14 15  1  0
 15 16  1  0
 17 18  1  0
 14 19  1  0
 18 19  1  0
 11 20  1  0
 15 21  1  0
 18 27  1  6
 17 16  1  0
  1  2  2  0
  7  6  2  0
  6  5  1  0
  5  4  2  0
  4  1  1  0
 21 22  2  0
 22 25  1  0
 25 26  2  0
 26 24  1  0
 24 23  2  0
 23 21  1  0
  2  3  1  0
  3  8  2  0
  8  9  1  0
  9 10  2  0
 10  7  1  0
  7  2  1  0
 27 28  2  0
 28 29  1  0
 29 30  2  0
 30 32  1  0
 32 31  2  0
 31 27  1  0
M  END
$$$$
