No_4774-complexes_sdf/6BKW-FPZ/2024-09-17-14-21-01/
     RDKit          3D

 21 23  0  0  0  0  0  0  0  0999 V2000
   -7.9040    3.9820   27.1177 C   0  0  0  0  0  0  0  0  0  0  0  0
   -7.8663    4.8694   27.9238 C   0  0  0  0  0  0  0  0  0  0  0  0
   -9.0491    3.8523   26.2542 C   0  0  0  0  0  0  0  0  0  0  0  0
   -8.7661    5.9491   27.9690 C   0  0  0  0  0  0  0  0  0  0  0  0
   -9.1715    2.7136   25.4037 C   0  0  0  0  0  0  0  0  0  0  0  0
   -9.8832    5.8611   27.1405 C   0  0  0  0  0  0  0  0  0  0  0  0
  -10.0016    4.7998   26.3324 C   0  0  0  0  0  0  0  0  0  0  0  0
  -10.0621    2.7513   24.3194 C   0  0  0  0  0  0  0  0  0  0  0  0
  -10.9414    3.8960   24.2704 C   0  0  0  0  0  0  0  0  0  0  0  0
  -10.9513    4.7869   25.2207 C   0  0  0  0  0  0  0  0  0  0  0  0
  -11.9527    3.8312   23.1921 C   0  0  0  0  0  0  0  0  0  0  0  0
  -11.5480    3.9648   22.0171 C   0  0  0  0  0  0  0  0  0  0  0  0
  -12.4334    3.9230   20.8599 C   0  0  0  0  0  0  0  0  0  0  0  0
  -13.8013    3.9417   21.0788 C   0  0  0  0  0  0  0  0  0  0  0  0
  -13.3060    3.9316   23.4822 C   0  0  0  0  0  0  0  0  0  0  0  0
  -14.2378    3.9823   22.4333 C   0  0  0  0  0  0  0  0  0  0  0  0
   -6.7155    2.7018   27.2029 Cl  0  0  0  0  0  0  0  0  0  0  0  0
  -16.0733    4.0216   22.7529 Br  0  0  0  0  0  0  0  0  0  0  0  0
  -10.0744    1.7790   23.5267 F   0  0  0  0  0  0  0  0  0  0  0  0
  -14.0625    4.0565   25.0620 Cl  0  0  0  0  0  0  0  0  0  0  0  0
  -11.9272    3.9534   19.6381 F   0  0  0  0  0  0  0  0  0  0  0  0
  9 11  1  0
  1 17  1  0
 16 18  1  0
  8 19  1  0
 15 20  1  0
 13 21  1  0
  3  5  2  0
  5  8  1  0
  8  9  2  0
  9 10  1  0
 10  7  2  0
  1  2  2  0
  2  4  1  0
  4  6  2  0
  6  7  1  0
  7  3  1  0
  3  1  1  0
 11 12  2  0
 12 13  1  0
 13 14  2  0
 14 16  1  0
 16 15  2  0
 15 11  1  0
M  END
$$$$
