No_4168-complexes_sdf/6BKW-FPZ/2024-09-17-14-21-01/
     RDKit          3D

 18 20  0  0  0  0  0  0  0  0999 V2000
   -7.7129    4.2099   27.0854 C   0  0  0  0  0  0  0  0  0  0  0  0
   -7.7814    5.1722   27.8972 C   0  0  0  0  0  0  0  0  0  0  0  0
   -8.8255    3.2789   27.1191 C   0  0  0  0  0  0  0  0  0  0  0  0
   -9.9209    3.4734   27.9101 C   0  0  0  0  0  0  0  0  0  0  0  0
  -10.0316    4.7089   28.6463 C   0  0  0  0  0  0  0  0  0  0  0  0
   -8.9258    5.5669   28.6427 C   0  0  0  0  0  0  0  0  0  0  0  0
   -8.6994    1.9948   26.3493 C   0  0  0  0  0  0  0  0  0  0  0  0
   -7.8915    0.9517   26.7327 C   0  0  0  0  0  0  0  0  0  0  0  0
   -7.7874   -0.2031   26.0852 C   0  0  0  0  0  0  0  0  0  0  0  0
   -9.4480    1.8419   25.2026 C   0  0  0  0  0  0  0  0  0  0  0  0
   -9.3433    0.7355   24.3954 C   0  0  0  0  0  0  0  0  0  0  0  0
   -8.4940   -0.2889   24.8620 C   0  0  0  0  0  0  0  0  0  0  0  0
  -11.0662    2.5843   27.9541 C   0  0  0  0  0  0  0  0  0  0  0  0
  -12.1904    2.9388   28.6747 C   0  0  0  0  0  0  0  0  0  0  0  0
  -13.2906    2.0426   28.8471 C   0  0  0  0  0  0  0  0  0  0  0  0
  -13.1558    0.8019   28.2172 C   0  0  0  0  0  0  0  0  0  0  0  0
  -12.0290    0.4396   27.4765 C   0  0  0  0  0  0  0  0  0  0  0  0
  -10.9765    1.2983   27.4565 C   0  0  0  0  0  0  0  0  0  0  0  0
  3  7  1  0
  4 13  1  0
 13 14  2  0
 14 15  1  0
 15 16  2  0
 16 17  1  0
 17 18  2  0
 18 13  1  0
  1  2  2  0
  2  6  1  0
  6  5  2  0
  5  4  1  0
  4  3  2  0
  3  1  1  0
  7  8  2  0
  8  9  1  0
  9 12  2  0
 12 11  1  0
 11 10  2  0
 10  7  1  0
M  END
$$$$
