No_4253-complexes_sdf/6BKW-FPZ/2024-09-17-14-21-01/
     RDKit          3D

 16 18  0  0  0  0  0  0  0  0999 V2000
   -7.2496    3.8871   27.4508 C   0  0  0  0  0  0  0  0  0  0  0  0
   -8.5096    4.0291   27.2770 C   0  0  0  0  0  0  0  0  0  0  0  0
   -9.2677    5.1714   27.5773 C   0  0  0  0  0  0  0  0  0  0  0  0
   -9.2765    2.8248   26.8371 C   0  0  0  0  0  0  0  0  0  0  0  0
  -10.4623    3.0171   26.3237 C   0  0  2  0  0  0  0  0  0  0  0  0
  -10.8972    2.6250   25.3350 C   0  0  0  0  0  0  0  0  0  0  0  0
  -12.0401    3.0799   24.6370 C   0  0  0  0  0  0  0  0  0  0  0  0
  -10.5991    5.3296   27.2028 C   0  0  0  0  0  0  0  0  0  0  0  0
  -11.1905    4.3293   26.5205 C   0  0  1  0  0  0  0  0  0  0  0  0
   -6.5387    2.7054   27.4693 N   0  0  0  0  0  0  0  0  0  0  0  0
  -12.5212    4.5120   25.5989 P   0  0  0  0  0  0  0  0  0  0  0  0
   -7.1552    1.5668   27.1434 C   0  0  0  0  0  0  0  0  0  0  0  0
   -8.5523    1.6815   26.7059 C   0  0  0  0  0  0  0  0  0  0  0  0
   -6.6291    0.3769   27.2042 N   0  0  0  0  0  0  0  0  0  0  0  0
   -7.1758   -0.7737   26.7913 C   0  0  0  0  0  0  0  0  0  0  0  0
   -6.7540   -1.8967   26.9343 C   0  0  0  0  0  0  0  0  0  0  0  0
  2  3  1  0
  4  5  1  0
  5  6  1  6
  6  7  2  0
  3  8  1  0
  5  9  1  0
  9  8  1  6
  7 11  1  0
  9 11  1  0
 14 15  1  0
 15 16  2  0
 14 12  1  0
  1  2  2  0
  2  4  1  0
  4 13  2  0
 13 12  1  0
 12 10  2  0
 10  1  1  0
M  END
$$$$
