No_4829-complexes_sdf/6BKW-FPZ/2024-09-17-14-21-01/
     RDKit          3D

 36 42  0  0  0  0  0  0  0  0999 V2000
   -7.9040    3.9820   27.1177 C   0  0  2  0  0  0  0  0  0  0  0  0
   -9.0711    4.3164   27.0630 C   0  0  0  0  0  0  0  0  0  0  0  0
   -9.5294    5.4517   27.7215 C   0  0  0  0  0  0  0  0  0  0  0  0
   -7.4336    2.7132   26.5681 C   0  0  0  0  0  0  0  0  0  0  0  0
   -8.3353    1.8569   26.0442 C   0  0  0  0  0  0  0  0  0  0  0  0
   -9.6477    2.2853   25.9146 C   0  0  0  0  0  0  0  0  0  0  0  0
  -10.0346    3.4497   26.4483 C   0  0  0  0  0  0  0  0  0  0  0  0
   -7.8750    0.5509   25.5918 C   0  0  2  0  0  0  0  0  0  0  0  0
   -7.0002   -0.0835   26.2676 N   0  0  0  0  0  0  0  0  0  0  0  0
   -6.1265   -0.9083   25.8188 C   0  0  0  0  0  0  0  0  0  0  0  0
   -6.0250   -1.2967   24.7393 C   0  0  0  0  0  0  0  0  0  0  0  0
   -8.2806    0.0895   24.3764 C   0  0  1  0  0  0  0  0  0  0  0  0
   -7.1915   -0.7440   23.7874 C   0  0  0  0  0  0  0  0  0  0  0  0
   -6.8890    4.6166   27.8118 F   0  0  0  0  0  0  0  0  0  0  0  0
   -6.9695    0.1700   27.8136 C   0  0  0  0  0  0  0  0  0  0  0  0
   -5.8120   -0.4196   28.2887 C   0  0  0  0  0  0  0  0  0  0  0  0
   -5.2693   -1.1251   27.0906 C   0  0  0  0  0  0  0  0  0  0  0  0
   -4.0331   -1.9075   27.0711 C   0  0  0  0  0  0  0  0  0  0  0  0
   -3.0815   -1.4684   26.4879 O   0  0  0  0  0  0  0  0  0  0  0  0
   -4.0621   -3.0478   27.5983 O   0  0  0  0  0  0  0  0  0  0  0  0
  -10.5767    1.4548   25.1338 C   0  0  0  0  0  0  0  0  0  0  0  0
  -11.7410    1.7622   25.1834 C   0  0  0  0  0  0  0  0  0  0  0  0
  -12.7135    1.1256   24.3188 C   0  0  0  0  0  0  0  0  0  0  0  0
  -12.2282    0.0683   23.5935 C   0  0  0  0  0  0  0  0  0  0  0  0
  -10.8971   -0.2744   23.5263 C   0  0  0  0  0  0  0  0  0  0  0  0
  -10.4153   -1.3243   22.7672 C   0  0  0  0  0  0  0  0  0  0  0  0
  -10.0389    0.4653   24.3876 C   0  0  0  0  0  0  0  0  0  0  0  0
  -10.0753   -2.4346   23.1159 C   0  0  0  0  0  0  0  0  0  0  0  0
  -10.1974   -0.9581   21.3568 C   0  0  0  0  0  0  0  0  0  0  0  0
   -9.5846   -3.4895   22.3213 C   0  0  0  0  0  0  0  0  0  0  0  0
   -9.7266   -1.9451   20.4669 C   0  0  0  0  0  0  0  0  0  0  0  0
   -9.3986   -3.1794   20.9476 C   0  0  0  0  0  0  0  0  0  0  0  0
  -14.1421    1.3934   24.3461 C   0  0  0  0  0  0  0  0  0  0  0  0
  -14.7353    2.0226   25.3037 C   0  0  0  0  0  0  0  0  0  0  0  0
  -13.8883    2.8091   26.1348 C   0  0  0  0  0  0  0  0  0  0  0  0
  -12.4590    2.6396   26.1964 C   0  0  0  0  0  0  0  0  0  0  0  0
  1  2  1  0
  2  3  2  0
  1  4  1  0
  4  5  1  0
  5  6  1  0
  2  7  1  0
  6  7  1  0
  8  5  1  6
  8  9  1  0
  9 10  1  0
  8 12  1  0
 11 13  1  0
  1 14  1  1
  9 15  1  0
 15 16  2  0
 10 17  1  0
 16 17  1  0
 17 18  1  0
 18 19  2  0
 18 20  1  0
  6 21  1  0
 25 26  1  0
 12 27  1  0
 12 13  1  1
 11 10  1  0
 26 28  2  0
 28 30  1  0
 30 32  2  0
 32 31  1  0
 31 29  2  0
 29 26  1  0
 23 33  1  0
 33 34  2  0
 34 35  1  0
 35 36  2  0
 36 22  1  0
 21 22  2  0
 22 23  1  0
 23 24  2  0
 24 25  1  0
 25 27  2  0
 27 21  1  0
M  END
$$$$
