No_4638-complexes_sdf/6BKW-FPZ/2024-09-17-14-21-01/
     RDKit          3D

 26 27  0  0  0  0  0  0  0  0999 V2000
   -7.9040    3.9820   27.1177 C   0  0  0  0  0  0  0  0  0  0  0  0
   -8.2057    2.8231   26.8733 C   0  0  0  0  0  0  0  0  0  0  0  0
   -7.4766    1.7477   27.4593 C   0  0  0  0  0  0  0  0  0  0  0  0
   -8.7468    5.1251   26.6967 C   0  0  0  0  0  0  0  0  0  0  0  0
   -9.7234    4.8589   25.8202 C   0  0  0  0  0  0  0  0  0  0  0  0
   -9.9711    3.5858   25.4266 C   0  0  0  0  0  0  0  0  0  0  0  0
   -9.2266    2.4957   25.9600 C   0  0  0  0  0  0  0  0  0  0  0  0
   -6.6635    0.9000   26.7532 C   0  0  0  0  0  0  0  0  0  0  0  0
   -6.4349   -0.0623   27.2728 C   0  0  0  0  0  0  0  0  0  0  0  0
   -6.1497   -0.9507   28.0085 C   0  0  0  0  0  0  0  0  0  0  0  0
   -8.4416    6.5231   27.0974 C   0  0  0  0  0  0  0  0  0  0  0  0
   -5.8848   -1.5954   29.1762 C   0  0  1  0  0  0  0  0  0  0  0  0
   -8.4673    6.7076   28.2981 F   0  0  0  0  0  0  0  0  0  0  0  0
   -9.3995    7.4103   26.5616 F   0  0  0  0  0  0  0  0  0  0  0  0
   -7.2189    6.9510   26.6936 F   0  0  0  0  0  0  0  0  0  0  0  0
   -5.0401   -1.1372   30.0970 C   0  0  0  0  0  0  0  0  0  0  0  0
   -4.2053   -0.0175   29.9091 C   0  0  0  0  0  0  0  0  0  0  0  0
   -6.2736   -1.0728   25.9797 Cl  0  0  0  0  0  0  0  0  0  0  0  0
   -3.4740    0.3841   30.9763 N   0  0  0  0  0  0  0  0  0  0  0  0
   -4.9246   -1.7767   31.3776 C   0  0  0  0  0  0  0  0  0  0  0  0
   -4.1337   -1.3362   32.4404 C   0  0  0  0  0  0  0  0  0  0  0  0
   -3.3229   -0.2084   32.1644 C   0  0  0  0  0  0  0  0  0  0  0  0
   -6.7599   -2.6563   29.3480 C   0  0  0  0  0  0  0  0  0  0  0  0
   -2.4642    0.2845   33.0260 O   0  0  0  0  0  0  0  0  0  0  0  0
   -6.2171   -3.8933   29.3595 C   0  0  0  0  0  0  0  0  0  0  0  0
   -7.0451   -5.0344   29.5624 C   0  0  0  0  0  0  0  0  0  0  0  0
  2  3  1  0
  3  8  1  0
  8  9  2  3
  9 10  1  0
  4 11  1  0
 12 10  1  1
 11 13  1  0
 11 14  1  0
 11 15  1  0
 12 16  1  0
 16 17  1  0
  9 18  1  0
 16 20  1  0
 20 21  1  0
 19 22  1  0
 21 22  1  0
 12 23  1  0
 22 24  2  0
 23 25  2  3
 25 26  1  0
 19 17  1  0
  1  2  2  0
  2  7  1  0
  7  6  2  0
  6  5  1  0
  5  4  2  0
  4  1  1  0
M  END
$$$$
