No_493-complexes_sdf/6BKW-FPZ/2024-09-17-14-21-01/
     RDKit          3D

 33 36  0  0  0  0  0  0  0  0999 V2000
   -7.7129    4.2099   27.0854 C   0  0  0  0  0  0  0  0  0  0  0  0
   -7.7814    5.1722   27.8972 C   0  0  0  0  0  0  0  0  0  0  0  0
   -8.8776    3.8408   26.3416 C   0  0  0  0  0  0  0  0  0  0  0  0
   -8.9136    2.6330   25.5655 C   0  0  1  0  0  0  0  0  0  0  0  0
   -8.8361    6.1389   27.9032 C   0  0  0  0  0  0  0  0  0  0  0  0
   -9.9718    4.7048   26.3433 C   0  0  0  0  0  0  0  0  0  0  0  0
   -9.9205    5.8499   27.1013 C   0  0  0  0  0  0  0  0  0  0  0  0
   -9.7172    1.7020   26.0925 C   0  0  0  0  0  0  0  0  0  0  0  0
   -9.4433    0.4549   25.8087 C   0  0  0  0  0  0  0  0  0  0  0  0
  -10.1768   -0.6313   26.4225 C   0  0  0  0  0  0  0  0  0  0  0  0
  -11.2095   -0.2618   27.3379 C   0  0  0  0  0  0  0  0  0  0  0  0
  -11.4173    1.0419   27.6839 C   0  0  0  0  0  0  0  0  0  0  0  0
  -10.6490    2.0583   27.1555 C   0  0  0  0  0  0  0  0  0  0  0  0
   -8.4550    0.0090   24.8391 C   0  0  0  0  0  0  0  0  0  0  0  0
   -8.3626   -1.0866   24.0404 C   0  0  0  0  0  0  0  0  0  0  0  0
   -7.4007   -1.2284   23.1038 C   0  0  0  0  0  0  0  0  0  0  0  0
   -7.2333   -2.3416   22.2714 C   0  0  0  0  0  0  0  0  0  0  0  0
   -6.2727   -2.4292   21.2985 C   0  0  0  0  0  0  0  0  0  0  0  0
   -6.2095   -3.4556   20.3755 C   0  0  0  0  0  0  0  0  0  0  0  0
   -7.2327   -4.4040   20.3887 C   0  0  0  0  0  0  0  0  0  0  0  0
   -7.1295   -5.3761   19.4472 C   0  0  0  0  0  0  0  0  0  0  0  0
   -8.2024   -3.3594   22.1530 C   0  0  0  0  0  0  0  0  0  0  0  0
   -8.1273   -4.3479   21.2756 C   0  0  0  0  0  0  0  0  0  0  0  0
   -6.4583   -0.0963   23.1515 C   0  0  0  0  0  0  0  0  0  0  0  0
   -7.0370   -5.5671   18.1465 Cl  0  0  0  0  0  0  0  0  0  0  0  0
   -6.4181    0.8855   23.9662 N   0  0  0  0  0  0  0  0  0  0  0  0
   -7.3250    1.0057   24.7720 C   0  0  0  0  0  0  0  0  0  0  0  0
   -9.2920    3.0339   24.2791 O   0  0  0  0  0  0  0  0  0  0  0  0
  -12.4371    1.3664   28.7832 C   0  0  0  0  0  0  0  0  0  0  0  0
  -12.4355    3.0786   29.3904 Br  0  0  0  0  0  0  0  0  0  0  0  0
  -13.3025    0.4480   29.3082 C   0  0  0  0  0  0  0  0  0  0  0  0
  -14.2060    0.8186   30.0672 C   0  0  0  0  0  0  0  0  0  0  0  0
  -14.6900    2.0027   30.1881 C   0  0  0  0  0  0  0  0  0  0  0  0
  3  4  1  0
  4  8  1  0
  9 14  1  0
 16 17  1  0
 20 21  1  0
 21 25  1  0
  4 28  1  6
 12 29  1  0
 29 30  1  0
 29 31  1  0
 31 32  1  0
 32 33  1  0
 14 15  2  0
 15 16  1  0
 16 24  2  0
 24 26  1  0
 26 27  2  0
 27 14  1  0
  8  9  1  0
  9 10  2  0
 10 11  1  0
 11 12  2  0
 12 13  1  0
 13  8  2  0
  1  2  2  0
  2  5  1  0
  5  7  2  0
  7  6  1  0
  6  3  2  0
  3  1  1  0
 17 18  2  0
 18 19  1  0
 19 20  2  0
 20 23  1  0
 23 22  2  0
 22 17  1  0
M  END
$$$$
