No_4013-complexes_sdf/6BKW-FPZ/2024-09-17-14-21-01/
     RDKit          3D

 12 12  0  0  0  0  0  0  0  0999 V2000
   -7.9040    3.9820   27.1177 C   0  0  0  0  0  0  0  0  0  0  0  0
   -9.0711    4.3164   27.0630 C   0  0  0  0  0  0  0  0  0  0  0  0
  -10.0395    3.8218   27.1938 C   0  0  0  0  0  0  0  0  0  0  0  0
   -7.6424    2.5858   27.3610 C   0  0  0  0  0  0  0  0  0  0  0  0
   -8.7741    1.7889   27.4566 C   0  0  0  0  0  0  0  0  0  0  0  0
  -10.0155    2.3581   27.4300 C   0  0  0  0  0  0  0  0  0  0  0  0
  -11.2141    1.4842   27.6314 C   0  0  0  0  0  0  0  0  0  0  0  0
  -11.9763    1.0748   26.6406 C   0  0  0  0  0  0  0  0  0  0  0  0
  -11.9276    1.1743   25.5580 C   0  0  0  0  0  0  0  0  0  0  0  0
  -10.8068    2.0055   24.9843 C   0  0  0  0  0  0  0  0  0  0  0  0
  -10.5434    2.2628   23.8197 C   0  0  0  0  0  0  0  0  0  0  0  0
   -9.4496    3.2007   23.4102 C   0  0  0  0  0  0  0  0  0  0  0  0
  6  7  1  0
  7  8  1  0
  8  9  2  3
  9 10  1  0
 10 11  2  3
 11 12  1  0
  1  2  2  0
  2  3  1  0
  3  6  2  0
  6  5  1  0
  5  4  2  0
  4  1  1  0
M  END
$$$$
