No_4260-complexes_sdf/6BKW-FPZ/2024-09-17-14-21-01/
     RDKit          3D

 40 43  0  0  0  0  0  0  0  0999 V2000
   -7.9040    3.9820   27.1177 C   0  0  0  0  0  0  0  0  0  0  0  0
   -8.2057    2.8231   26.8733 C   0  0  0  0  0  0  0  0  0  0  0  0
   -7.4766    1.7477   27.4593 C   0  0  0  0  0  0  0  0  0  0  0  0
   -8.7468    5.1251   26.6967 C   0  0  0  0  0  0  0  0  0  0  0  0
   -9.7234    4.8589   25.8202 C   0  0  0  0  0  0  0  0  0  0  0  0
   -9.9711    3.5858   25.4266 C   0  0  0  0  0  0  0  0  0  0  0  0
   -9.2266    2.4957   25.9600 C   0  0  0  0  0  0  0  0  0  0  0  0
   -6.8425    0.8531   26.9581 N   0  0  0  0  0  0  0  0  0  0  0  0
   -6.2856   -0.0091   27.3996 C   0  0  0  0  0  0  0  0  0  0  0  0
   -5.3183    0.3940   28.3032 C   0  0  0  0  0  0  0  0  0  0  0  0
   -4.7212   -0.6153   29.1877 C   0  0  0  0  0  0  0  0  0  0  0  0
   -4.8941   -1.8835   28.8943 C   0  0  0  0  0  0  0  0  0  0  0  0
   -6.4094   -1.3910   27.3601 C   0  0  0  0  0  0  0  0  0  0  0  0
   -5.8177   -2.3220   28.0503 C   0  0  0  0  0  0  0  0  0  0  0  0
   -8.4389    6.5237   27.1039 C   0  0  0  0  0  0  0  0  0  0  0  0
   -8.8037    7.5719   26.4714 N   0  0  0  0  0  0  0  0  0  0  0  0
   -7.8610    6.5286   28.2512 O   0  0  0  0  0  0  0  0  0  0  0  0
   -3.6401   -0.0826   30.1750 C   0  0  0  0  0  0  0  0  0  0  0  0
   -3.6683   -0.6193   31.2537 F   0  0  0  0  0  0  0  0  0  0  0  0
   -2.4180   -0.2955   29.5253 F   0  0  0  0  0  0  0  0  0  0  0  0
   -3.7281    1.2766   30.3900 F   0  0  0  0  0  0  0  0  0  0  0  0
  -11.0032    3.3267   24.4172 C   0  0  0  0  0  0  0  0  0  0  0  0
  -11.1927    3.8904   23.5171 C   0  0  0  0  0  0  0  0  0  0  0  0
  -12.1415    3.6961   22.4248 C   0  0  0  0  0  0  0  0  0  0  0  0
  -12.9706    2.6507   22.6325 C   0  0  0  0  0  0  0  0  0  0  0  0
  -11.8123    2.1926   24.4978 C   0  0  0  0  0  0  0  0  0  0  0  0
  -12.7750    1.8904   23.6706 C   0  0  0  0  0  0  0  0  0  0  0  0
   -7.0986    0.6332   25.4497 C   0  0  0  0  0  0  0  0  0  0  0  0
  -13.9873    2.4057   21.5598 C   0  0  0  0  0  0  0  0  0  0  0  0
  -14.0919    3.1019   20.5017 C   0  0  0  0  0  0  0  0  0  0  0  0
  -15.0184    2.9692   19.5690 C   0  0  0  0  0  0  0  0  0  0  0  0
  -14.8631    1.3304   21.6917 C   0  0  0  0  0  0  0  0  0  0  0  0
  -15.8405    1.1197   20.7544 C   0  0  0  0  0  0  0  0  0  0  0  0
  -15.8814    1.9331   19.6512 C   0  0  0  0  0  0  0  0  0  0  0  0
  -16.8482    1.7275   18.7190 O   0  0  0  0  0  0  0  0  0  0  0  0
  -18.0499    1.5309   18.9934 C   0  0  0  0  0  0  0  0  0  0  0  0
  -19.0550    1.5383   18.0090 C   0  0  0  0  0  0  0  0  0  0  0  0
  -20.3914    1.2476   18.3017 C   0  0  0  0  0  0  0  0  0  0  0  0
  -21.3828    1.2529   17.3195 C   0  0  0  0  0  0  0  0  0  0  0  0
  -20.9568    1.5615   15.9947 C   0  0  0  0  0  0  0  0  0  0  0  0
  2  3  1  0
  3  8  1  0
  8  9  1  0
  4 15  1  0
 15 16  1  0
 15 17  2  0
 11 18  1  0
 18 19  1  0
 18 20  1  0
 18 21  1  0
  6 22  1  0
  8 28  1  0
 25 29  1  0
 34 35  1  0
 35 36  1  0
 36 37  2  3
 37 38  1  0
 38 39  2  3
 39 40  1  0
 22 23  2  0
 23 24  1  0
 24 25  2  0
 25 27  1  0
 27 26  2  0
 26 22  1  0
 29 30  2  0
 30 31  1  0
 31 34  2  0
 34 33  1  0
 33 32  2  0
 32 29  1  0
  1  2  2  0
  2  7  1  0
  7  6  2  0
  6  5  1  0
  5  4  2  0
  4  1  1  0
  9 10  2  0
 10 11  1  0
 11 12  2  0
 12 14  1  0
 14 13  2  0
 13  9  1  0
M  END
$$$$
