No_4145-complexes_sdf/6BKW-FPZ/2024-09-17-14-21-01/
     RDKit          3D

 22 24  0  0  0  0  0  0  0  0999 V2000
   -7.9040    3.9820   27.1177 C   0  0  0  0  0  0  0  0  0  0  0  0
   -7.8663    4.8694   27.9238 C   0  0  0  0  0  0  0  0  0  0  0  0
   -7.4547    2.7080   27.4594 C   0  0  0  0  0  0  0  0  0  0  0  0
   -7.9337    1.5946   26.8372 C   0  0  0  0  0  0  0  0  0  0  0  0
   -7.4947    0.3059   27.1189 C   0  0  0  0  0  0  0  0  0  0  0  0
   -6.3125    0.1774   27.7925 C   0  0  0  0  0  0  0  0  0  0  0  0
   -5.5852    1.3263   28.2170 C   0  0  0  0  0  0  0  0  0  0  0  0
   -6.0949    2.5650   27.9722 C   0  0  0  0  0  0  0  0  0  0  0  0
   -8.4372    6.2570   27.7271 C   0  0  0  0  0  0  0  0  0  0  0  0
   -8.7626    4.2068   25.9844 C   0  0  0  0  0  0  0  0  0  0  0  0
   -9.4078    5.4159   25.7330 C   0  0  0  0  0  0  0  0  0  0  0  0
   -9.1777    6.4612   26.6177 C   0  0  0  0  0  0  0  0  0  0  0  0
   -4.4456    1.0874   28.8994 F   0  0  0  0  0  0  0  0  0  0  0  0
   -9.0463    3.1901   25.1141 O   0  0  0  0  0  0  0  0  0  0  0  0
  -10.2292    3.2194   24.4740 C   0  0  0  0  0  0  0  0  0  0  0  0
  -10.8173    2.0298   24.3184 C   0  0  0  0  0  0  0  0  0  0  0  0
  -10.4672    0.9560   24.5360 C   0  0  0  0  0  0  0  0  0  0  0  0
  -10.7017   -0.1579   24.3295 C   0  0  0  0  0  0  0  0  0  0  0  0
  -11.8995   -0.4653   23.6542 C   0  0  0  0  0  0  0  0  0  0  0  0
  -12.6124    0.6996   23.2567 C   0  0  0  0  0  0  0  0  0  0  0  0
  -12.0743    1.9643   23.5113 C   0  0  0  0  0  0  0  0  0  0  0  0
  -10.6336    4.3031   23.9473 O   0  0  0  0  0  0  0  0  0  0  0  0
  7 13  1  0
 10 14  1  0
 14 15  1  0
 15 16  1  0
 15 22  2  0
  3  1  1  0
  3  4  2  0
  4  5  1  0
  5  6  2  0
  6  7  1  0
  7  8  2  0
  8  3  1  0
  1  2  2  0
  2  9  1  0
  9 12  2  0
 12 11  1  0
 11 10  2  0
 10  1  1  0
 16 17  2  0
 17 18  1  0
 18 19  2  0
 19 20  1  0
 20 21  2  0
 21 16  1  0
M  END
$$$$
