No_4177-complexes_sdf/6BKW-FPZ/2024-09-17-14-21-01/
     RDKit          3D

 35 40  0  0  0  0  0  0  0  0999 V2000
   -7.9040    3.9820   27.1177 C   0  0  0  0  0  0  0  0  0  0  0  0
   -9.0711    4.3164   27.0630 C   0  0  0  0  0  0  0  0  0  0  0  0
  -10.0395    3.8218   27.1938 C   0  0  0  0  0  0  0  0  0  0  0  0
   -7.6424    2.5858   27.3610 C   0  0  0  0  0  0  0  0  0  0  0  0
   -8.7646    1.7754   27.4263 C   0  0  0  0  0  0  0  0  0  0  0  0
   -9.9966    2.3406   27.3957 C   0  0  0  0  0  0  0  0  0  0  0  0
   -6.3885    2.0891   27.3684 N   0  0  0  0  0  0  0  0  0  0  0  0
   -6.0810    0.7993   27.3425 C   0  0  0  0  0  0  0  0  0  0  0  0
   -6.9723   -0.0717   27.4093 C   0  0  0  0  0  0  0  0  0  0  0  0
   -8.4268    0.3525   27.5351 C   0  0  0  0  0  0  0  0  0  0  0  0
   -4.7519    0.3959   27.7468 C   0  0  2  0  0  0  0  0  0  0  0  0
   -3.9960   -0.1841   26.8580 C   0  0  0  0  0  0  0  0  0  0  0  0
   -3.5877   -1.4480   27.1920 C   0  0  0  0  0  0  0  0  0  0  0  0
   -9.1673    5.9921   26.8640 C   0  0  0  0  0  0  0  0  0  0  0  0
   -8.5184    6.6342   25.7712 C   0  0  0  0  0  0  0  0  0  0  0  0
   -3.8767   -1.8644   28.0831 C   0  0  0  0  0  0  0  0  0  0  0  0
   -4.8697   -0.6408   28.9923 C   0  0  1  0  0  0  0  0  0  0  0  0
   -3.9069    1.6444   28.3950 C   0  0  0  0  0  0  0  0  0  0  0  0
  -11.2448    1.5409   27.6709 C   0  0  0  0  0  0  0  0  0  0  0  0
  -11.9680    1.8856   28.7009 C   0  0  0  0  0  0  0  0  0  0  0  0
  -13.0936    1.1251   29.1375 C   0  0  0  0  0  0  0  0  0  0  0  0
  -13.2498   -0.0837   28.4759 C   0  0  0  0  0  0  0  0  0  0  0  0
  -11.5125    0.2674   27.1684 C   0  0  0  0  0  0  0  0  0  0  0  0
  -12.5154   -0.5110   27.5151 C   0  0  0  0  0  0  0  0  0  0  0  0
   -9.6269    6.7556   27.9207 C   0  0  0  0  0  0  0  0  0  0  0  0
   -4.1897   -0.2553   30.2520 C   0  0  0  0  0  0  0  0  0  0  0  0
   -6.2280   -1.2398   29.2393 C   0  0  0  0  0  0  0  0  0  0  0  0
   -7.0056   -1.3768   27.6052 O   0  0  0  0  0  0  0  0  0  0  0  0
   -3.4372   -1.1952   31.0053 C   0  0  0  0  0  0  0  0  0  0  0  0
   -4.0495   -1.5930   32.2022 C   0  0  0  0  0  0  0  0  0  0  0  0
   -3.4565   -2.5320   32.8920 C   0  0  0  0  0  0  0  0  0  0  0  0
   -2.1274   -2.9558   32.6653 C   0  0  0  0  0  0  0  0  0  0  0  0
   -1.4707   -2.4643   31.5485 C   0  0  0  0  0  0  0  0  0  0  0  0
   -2.1152   -1.5427   30.7113 C   0  0  0  0  0  0  0  0  0  0  0  0
   -4.3506    0.9288   30.6748 O   0  0  0  0  0  0  0  0  0  0  0  0
  8 11  1  0
 11 12  1  0
 12 13  1  0
  2 14  1  0
 14 15  1  0
 13 16  2  0
 11 17  1  0
 16 17  1  0
 11 18  1  1
  6 19  1  0
 14 25  1  0
 17 26  1  1
 17 27  1  0
  9 28  1  0
 27 28  1  0
 26 29  1  0
 26 35  2  0
 29 30  2  0
 30 31  1  0
 31 32  2  0
 32 33  1  0
 33 34  2  0
 34 29  1  0
  5 10  2  0
 10  9  1  0
  9  8  2  0
  8  7  1  0
  7  4  2  0
  1  2  2  0
  2  3  1  0
  3  6  2  0
  6  5  1  0
  5  4  1  0
  4  1  1  0
 19 20  2  0
 20 21  1  0
 21 22  2  0
 22 24  1  0
 24 23  2  0
 23 19  1  0
M  END
$$$$
