No_447-complexes_sdf/6BKW-FPZ/2024-09-17-14-21-01/
     RDKit          3D

 19 20  0  0  0  0  0  0  0  0999 V2000
   -7.9040    3.9820   27.1177 C   0  0  0  0  0  0  0  0  0  0  0  0
   -8.2057    2.8231   26.8733 C   0  0  0  0  0  0  0  0  0  0  0  0
   -9.2962    2.4021   26.1155 C   0  0  0  0  0  0  0  0  0  0  0  0
   -8.7358    5.0662   26.5917 C   0  0  0  0  0  0  0  0  0  0  0  0
   -9.7618    4.7023   25.7546 C   0  0  0  0  0  0  0  0  0  0  0  0
  -10.0066    3.4105   25.4922 C   0  0  0  0  0  0  0  0  0  0  0  0
   -8.3936    6.4769   26.8843 C   0  0  0  0  0  0  0  0  0  0  0  0
   -8.6672    7.3248   26.1418 F   0  0  0  0  0  0  0  0  0  0  0  0
   -7.0254    6.5035   27.1659 F   0  0  0  0  0  0  0  0  0  0  0  0
   -9.0366    6.6263   28.1853 F   0  0  0  0  0  0  0  0  0  0  0  0
   -7.3512    1.6649   27.4944 C   0  0  0  0  0  0  0  0  0  0  0  0
   -7.9160    0.6151   27.7775 F   0  0  0  0  0  0  0  0  0  0  0  0
   -6.0895    1.7625   27.5662 F   0  0  0  0  0  0  0  0  0  0  0  0
  -11.1270    3.1360   24.5888 C   0  0  0  0  0  0  0  0  0  0  0  0
  -12.3545    2.7877   25.0296 C   0  0  0  0  0  0  0  0  0  0  0  0
  -10.8948    3.1779   23.1778 C   0  0  0  0  0  0  0  0  0  0  0  0
  -11.8629    2.9653   22.2351 C   0  0  0  0  0  0  0  0  0  0  0  0
  -13.4121    2.5883   24.1111 C   0  0  0  0  0  0  0  0  0  0  0  0
  -13.1413    2.6880   22.7320 C   0  0  0  0  0  0  0  0  0  0  0  0
  4  7  1  0
  7  8  1  0
  7  9  1  0
  7 10  1  0
  2 11  1  0
 11 12  1  0
 11 13  1  0
  6 14  1  0
 14 15  2  0
 15 18  1  0
 18 19  2  0
 19 17  1  0
 17 16  2  0
 16 14  1  0
  1  2  2  0
  2  3  1  0
  3  6  2  0
  6  5  1  0
  5  4  2  0
  4  1  1  0
M  END
$$$$
