No_4119-complexes_sdf/6BKW-FPZ/2024-09-17-14-21-01/
     RDKit          3D

 16 18  0  0  0  0  0  0  0  0999 V2000
   -7.7129    4.2099   27.0854 C   0  0  0  0  0  0  0  0  0  0  0  0
   -7.7814    5.1722   27.8972 C   0  0  0  0  0  0  0  0  0  0  0  0
   -7.2983    2.9533   27.5684 C   0  0  0  0  0  0  0  0  0  0  0  0
   -7.6908    1.8111   26.9553 C   0  0  1  0  0  0  0  0  0  0  0  0
   -8.6533    1.9165   25.9430 C   0  0  0  0  0  0  0  0  0  0  0  0
   -9.2376    3.0581   25.6387 C   0  0  0  0  0  0  0  0  0  0  0  0
   -8.8901    4.1760   26.2867 C   0  0  0  0  0  0  0  0  0  0  0  0
   -8.3432    6.4292   27.5920 N   0  0  0  0  0  0  0  0  0  0  0  0
   -9.4193    5.4820   25.9990 C   0  0  0  0  0  0  0  0  0  0  0  0
   -9.0920    6.5642   26.7047 N   0  0  0  0  0  0  0  0  0  0  0  0
   -7.0406    0.5427   27.2215 C   0  0  0  0  0  0  0  0  0  0  0  0
   -7.7041   -0.6418   27.2541 C   0  0  0  0  0  0  0  0  0  0  0  0
   -7.1374   -1.7384   27.7381 C   0  0  0  0  0  0  0  0  0  0  0  0
   -5.6947    0.5243   27.6058 C   0  0  0  0  0  0  0  0  0  0  0  0
   -5.0601   -0.5642   28.1091 C   0  0  0  0  0  0  0  0  0  0  0  0
   -5.8185   -1.7406   28.2122 C   0  0  0  0  0  0  0  0  0  0  0  0
  1  3  1  0
  3  4  1  0
  4  5  1  0
  5  6  1  0
  6  7  1  0
  4 11  1  6
  1  2  2  0
  2  8  1  0
  8 10  2  0
 10  9  1  0
  9  7  2  0
  7  1  1  0
 11 12  2  0
 12 13  1  0
 13 16  2  0
 16 15  1  0
 15 14  2  0
 14 11  1  0
M  END
$$$$
