No_4028-complexes_sdf/6BKW-FPZ/2024-09-17-14-21-01/
     RDKit          3D

 26 28  0  0  0  0  0  0  0  0999 V2000
   -7.2496    3.8871   27.4508 C   0  0  0  0  0  0  0  0  0  0  0  0
   -8.5096    4.0291   27.2770 C   0  0  0  0  0  0  0  0  0  0  0  0
   -9.2677    5.1714   27.5773 C   0  0  0  0  0  0  0  0  0  0  0  0
   -9.2765    2.8248   26.8371 C   0  0  0  0  0  0  0  0  0  0  0  0
   -8.6731    1.7312   26.5464 C   0  0  0  0  0  0  0  0  0  0  0  0
   -6.5350    2.6522   27.3724 C   0  0  0  0  0  0  0  0  0  0  0  0
   -7.2308    1.5739   26.9609 C   0  0  0  0  0  0  0  0  0  0  0  0
   -8.5556    6.4045   27.5942 C   0  0  0  0  0  0  0  0  0  0  0  0
  -10.5873    5.2445   26.8096 C   0  0  0  0  0  0  0  0  0  0  0  0
   -6.5544    0.3101   26.7142 C   0  0  0  0  0  0  0  0  0  0  0  0
   -5.5639   -0.0095   27.6381 C   0  0  0  0  0  0  0  0  0  0  0  0
   -5.1983    0.6321   28.6105 C   0  0  0  0  0  0  0  0  0  0  0  0
   -4.0929   -0.0115   29.3889 C   0  0  0  0  0  0  0  0  0  0  0  0
   -3.6758    0.5198   30.6759 C   0  0  0  0  0  0  0  0  0  0  0  0
   -3.5781   -1.1345   28.8240 C   0  0  0  0  0  0  0  0  0  0  0  0
   -3.9782   -1.7558   27.7343 C   0  0  0  0  0  0  0  0  0  0  0  0
   -4.9610   -1.1865   27.0409 C   0  0  0  0  0  0  0  0  0  0  0  0
   -7.0267   -0.3711   25.7712 O   0  0  0  0  0  0  0  0  0  0  0  0
   -3.7385   -0.1012   31.8330 N   0  0  0  0  0  0  0  0  0  0  0  0
   -4.7638   -0.8403   32.2449 C   0  0  0  0  0  0  0  0  0  0  0  0
   -5.6662   -1.3957   31.7267 C   0  0  0  0  0  0  0  0  0  0  0  0
   -6.4064   -2.2783   32.3806 C   0  0  0  0  0  0  0  0  0  0  0  0
   -4.6689   -1.2073   33.7071 C   0  0  0  0  0  0  0  0  0  0  0  0
   -5.5419   -1.8519   34.4109 C   0  0  0  0  0  0  0  0  0  0  0  0
   -6.5222   -2.4489   33.6901 C   0  0  0  0  0  0  0  0  0  0  0  0
   -2.3993   -0.0850   32.6430 C   0  0  0  0  0  0  0  0  0  0  0  0
  2  3  1  0
  3  8  1  0
  3  9  1  0
  7 10  1  0
 10 11  1  0
 13 14  1  0
 10 18  2  0
 14 19  1  0
 19 20  1  0
 19 26  1  0
  1  2  2  0
  2  4  1  0
  4  5  2  0
  5  7  1  0
  7  6  2  0
  6  1  1  0
 20 21  2  0
 21 22  1  0
 22 25  2  0
 25 24  1  0
 24 23  2  0
 23 20  1  0
 11 12  2  0
 12 13  1  0
 13 15  2  0
 15 16  1  0
 16 17  2  0
 17 11  1  0
M  END
$$$$
