No_4078-complexes_sdf/6BKW-FPZ/2024-09-17-14-21-01/
     RDKit          3D

 13 13  0  0  0  0  0  0  0  0999 V2000
   -7.9040    3.9820   27.1177 C   0  0  0  0  0  0  0  0  0  0  0  0
   -7.8663    4.8694   27.9238 C   0  0  0  0  0  0  0  0  0  0  0  0
   -9.0806    3.1428   27.1220 C   0  0  0  0  0  0  0  0  0  0  0  0
  -10.0909    3.4892   26.5180 C   0  0  0  0  0  0  0  0  0  0  0  0
   -9.0818    5.8025   27.6063 C   0  0  0  0  0  0  0  0  0  0  0  0
  -10.3119    5.0061   27.2645 C   0  0  0  0  0  0  0  0  0  0  0  0
   -8.9334    1.6545   27.3558 C   0  0  0  0  0  0  0  0  0  0  0  0
   -8.8913    0.7386   26.4033 C   0  0  0  0  0  0  0  0  0  0  0  0
   -8.3839   -0.3603   26.5097 C   0  0  0  0  0  0  0  0  0  0  0  0
   -8.5829   -1.3890   25.6834 C   0  0  0  0  0  0  0  0  0  0  0  0
   -9.2410   -1.1211   24.4415 C   0  0  0  0  0  0  0  0  0  0  0  0
   -9.7473    0.1621   24.2061 C   0  0  0  0  0  0  0  0  0  0  0  0
   -9.5337    1.1387   25.1742 C   0  0  0  0  0  0  0  0  0  0  0  0
  3  7  1  0
  7  8  1  0
  8  9  1  0
  9 10  2  3
 10 11  1  0
 11 12  2  3
 12 13  1  0
  1  2  2  0
  2  5  1  0
  5  6  2  0
  6  4  1  0
  4  3  2  0
  3  1  1  0
M  END
$$$$
