No_4780-complexes_sdf/6BKW-FPZ/2024-09-17-14-21-01/
     RDKit          3D

 17 18  0  0  0  0  0  0  0  0999 V2000
   -7.7129    4.2099   27.0854 C   0  0  0  0  0  0  0  0  0  0  0  0
   -8.2112    3.0637   26.9225 C   0  0  0  0  0  0  0  0  0  0  0  0
   -7.0021    4.5281   28.2396 C   0  0  0  0  0  0  0  0  0  0  0  0
   -7.5497    1.9016   27.4549 C   0  0  0  0  0  0  0  0  0  0  0  0
   -8.0831    0.6050   27.2852 C   0  0  0  0  0  0  0  0  0  0  0  0
   -9.3847    0.5379   26.8015 C   0  0  0  0  0  0  0  0  0  0  0  0
  -10.0898    1.6195   26.3689 C   0  0  0  0  0  0  0  0  0  0  0  0
   -9.4935    2.8855   26.3990 C   0  0  0  0  0  0  0  0  0  0  0  0
   -8.4282    5.3501   26.4864 C   0  0  0  0  0  0  0  0  0  0  0  0
   -8.1324    6.7275   26.9078 C   0  0  0  0  0  0  0  0  0  0  0  0
   -8.8387    7.7673   26.3090 C   0  0  0  0  0  0  0  0  0  0  0  0
   -6.8616    5.8745   28.8006 C   0  0  0  0  0  0  0  0  0  0  0  0
   -7.3964    6.8553   28.1087 C   0  0  0  0  0  0  0  0  0  0  0  0
  -11.6441    1.3727   25.6606 Cl  0  0  0  0  0  0  0  0  0  0  0  0
   -7.3622   -0.5286   27.8362 C   0  0  0  0  0  0  0  0  0  0  0  0
   -7.9673   -1.7037   28.2189 C   0  0  0  0  0  0  0  0  0  0  0  0
   -7.2497   -2.7435   28.7755 C   0  0  0  0  0  0  0  0  0  0  0  0
  1  2  1  0
 10 11  1  0
  7 14  1  0
  5 15  1  0
 15 16  2  3
 16 17  1  0
  1  3  2  0
  3 12  1  0
 12 13  2  0
 13 10  1  0
 10  9  2  0
  9  1  1  0
  2  4  2  0
  4  5  1  0
  5  6  2  0
  6  7  1  0
  7  8  2  0
  8  2  1  0
M  END
$$$$
