No_4693-complexes_sdf/6BKW-FPZ/2024-09-17-14-21-01/
     RDKit          3D

 23 24  0  0  0  0  0  0  0  0999 V2000
   -7.7129    4.2099   27.0854 C   0  0  0  0  0  0  0  0  0  0  0  0
   -7.7814    5.1722   27.8972 C   0  0  0  0  0  0  0  0  0  0  0  0
   -8.8776    3.8408   26.3416 C   0  0  0  0  0  0  0  0  0  0  0  0
   -9.9844    4.6492   26.4743 C   0  0  0  0  0  0  0  0  0  0  0  0
   -8.8033    6.1375   27.8728 C   0  0  0  0  0  0  0  0  0  0  0  0
   -9.9554    5.8280   27.1736 C   0  0  0  0  0  0  0  0  0  0  0  0
   -8.6804    2.5787   25.5887 C   0  0  0  0  0  0  0  0  0  0  0  0
   -9.4311    2.4381   24.5674 N   0  0  0  0  0  0  0  0  0  0  0  0
   -9.4565    1.3037   23.8021 C   0  0  0  0  0  0  0  0  0  0  0  0
   -7.9893    1.7016   25.9891 O   0  0  0  0  0  0  0  0  0  0  0  0
  -10.6637    0.5667   23.8091 C   0  0  0  0  0  0  0  0  0  0  0  0
  -11.7795    0.9259   23.9200 C   0  0  0  0  0  0  0  0  0  0  0  0
  -12.8246    0.1413   23.8387 C   0  0  0  0  0  0  0  0  0  0  0  0
  -12.6708   -1.2152   23.5340 C   0  0  0  0  0  0  0  0  0  0  0  0
  -11.4450   -1.7007   23.2976 C   0  0  0  0  0  0  0  0  0  0  0  0
  -10.3023   -0.8683   23.3878 C   0  0  0  0  0  0  0  0  0  0  0  0
   -6.7005    5.6134   28.6136 F   0  0  0  0  0  0  0  0  0  0  0  0
  -13.8609   -2.4399   23.4449 Cl  0  0  0  0  0  0  0  0  0  0  0  0
   -8.3669    1.0724   23.2261 O   0  0  0  0  0  0  0  0  0  0  0  0
  -14.2552    0.5864   24.1222 C   0  0  0  0  0  0  0  0  0  0  0  0
  -14.9270    0.1451   24.9543 F   0  0  0  0  0  0  0  0  0  0  0  0
  -14.1079    1.9929   24.4118 F   0  0  0  0  0  0  0  0  0  0  0  0
  -14.8443    0.7148   22.8601 F   0  0  0  0  0  0  0  0  0  0  0  0
  3  7  1  0
  7  8  1  0
  8  9  1  0
  7 10  2  0
  9 11  1  0
  2 17  1  0
 14 18  1  0
  9 19  2  0
 13 20  1  0
 20 21  1  0
 20 22  1  0
 20 23  1  0
 11 12  2  0
 12 13  1  0
 13 14  2  0
 14 15  1  0
 15 16  2  0
 16 11  1  0
  1  2  2  0
  2  5  1  0
  5  6  2  0
  6  4  1  0
  4  3  2  0
  3  1  1  0
M  END
$$$$
