No_4351-complexes_sdf/6BKW-FPZ/2024-09-17-14-21-01/
     RDKit          3D

 26 28  0  0  0  0  0  0  0  0999 V2000
   -7.7129    4.2099   27.0854 C   0  0  0  0  0  0  0  0  0  0  0  0
   -8.9133    4.4736   27.0998 C   0  0  0  0  0  0  0  0  0  0  0  0
   -9.7937    3.7367   26.2091 C   0  0  0  0  0  0  0  0  0  0  0  0
   -6.8266    5.0441   28.0594 C   0  0  0  0  0  0  0  0  0  0  0  0
  -11.0884    4.1572   25.9278 C   0  0  0  0  0  0  0  0  0  0  0  0
  -11.8573    3.5481   24.9807 C   0  0  0  0  0  0  0  0  0  0  0  0
  -11.2980    2.5062   24.2454 C   0  0  0  0  0  0  0  0  0  0  0  0
  -10.0337    2.1019   24.4722 C   0  0  0  0  0  0  0  0  0  0  0  0
   -9.2188    2.7542   25.3939 C   0  0  0  0  0  0  0  0  0  0  0  0
   -9.4196    5.5458   27.8748 C   0  0  0  0  0  0  0  0  0  0  0  0
   -9.4369    0.9861   23.6903 C   0  0  0  0  0  0  0  0  0  0  0  0
   -9.2883    1.2716   22.4671 F   0  0  0  0  0  0  0  0  0  0  0  0
  -10.1950   -0.1537   23.8225 F   0  0  0  0  0  0  0  0  0  0  0  0
   -8.1727    0.6332   24.1418 F   0  0  0  0  0  0  0  0  0  0  0  0
   -8.6231    6.5437   27.9212 C   0  0  0  0  0  0  0  0  0  0  0  0
   -7.2779    6.3893   27.5849 C   0  0  0  0  0  0  0  0  0  0  0  0
  -13.2230    4.0099   24.7587 C   0  0  0  0  0  0  0  0  0  0  0  0
  -13.6459    4.3830   23.7750 O   0  0  0  0  0  0  0  0  0  0  0  0
  -14.0415    3.9861   25.8904 N   0  0  0  0  0  0  0  0  0  0  0  0
  -15.3822    4.4820   25.8581 C   0  0  0  0  0  0  0  0  0  0  0  0
  -15.6317    5.3476   26.7038 C   0  0  0  0  0  0  0  0  0  0  0  0
  -14.9433    5.4714   28.0577 C   0  0  0  0  0  0  0  0  0  0  0  0
  -15.2519    6.3317   29.0861 C   0  0  0  0  0  0  0  0  0  0  0  0
  -16.1658    7.3989   28.7938 C   0  0  0  0  0  0  0  0  0  0  0  0
  -16.7740    7.4742   27.5375 C   0  0  0  0  0  0  0  0  0  0  0  0
  -16.5015    6.5426   26.5717 C   0  0  0  0  0  0  0  0  0  0  0  0
  2  3  1  0
  8 11  1  0
 11 12  1  0
 11 13  1  0
 11 14  1  0
  6 17  1  0
 17 18  2  0
 17 19  1  0
 19 20  1  0
 20 21  1  0
  3  5  2  0
  5  6  1  0
  6  7  2  0
  7  8  1  0
  8  9  2  0
  9  3  1  0
  1  2  2  0
  2 10  1  0
 10 15  2  0
 15 16  1  0
 16  4  2  0
  4  1  1  0
 21 22  2  0
 22 23  1  0
 23 24  2  0
 24 25  1  0
 25 26  2  0
 26 21  1  0
M  END
$$$$
