No_4615-complexes_sdf/6BKW-FPZ/2024-09-17-14-21-01/
     RDKit          3D

 18 18  0  0  0  0  0  0  0  0999 V2000
   -7.2496    3.8871   27.4508 C   0  0  0  0  0  0  0  0  0  0  0  0
   -7.6161    2.7143   27.1523 C   0  0  0  0  0  0  0  0  0  0  0  0
   -8.6212    2.2239   26.4074 C   0  0  0  0  0  0  0  0  0  0  0  0
   -8.2540    4.9237   27.1711 C   0  0  0  0  0  0  0  0  0  0  0  0
   -9.3709    4.6018   26.4511 C   0  0  0  0  0  0  0  0  0  0  0  0
   -9.5922    3.3274   26.0949 C   0  0  0  0  0  0  0  0  0  0  0  0
   -8.1367    6.3317   27.6017 C   0  0  0  0  0  0  0  0  0  0  0  0
   -8.9866    7.2462   27.1853 N   0  0  0  0  0  0  0  0  0  0  0  0
   -8.8702    0.9193   26.0208 C   0  0  0  0  0  0  0  0  0  0  0  0
   -9.0236   -0.0266   26.8429 C   0  0  0  0  0  0  0  0  0  0  0  0
   -9.0196    0.2859   28.3421 C   0  0  0  0  0  0  0  0  0  0  0  0
   -9.2054   -1.4460   26.4930 C   0  0  0  0  0  0  0  0  0  0  0  0
   -8.8207    0.6198   24.5824 C   0  0  0  0  0  0  0  0  0  0  0  0
   -9.7649    1.0317   23.7423 C   0  0  0  0  0  0  0  0  0  0  0  0
   -9.6184    0.8065   22.3687 C   0  0  0  0  0  0  0  0  0  0  0  0
  -10.4766    1.3601   21.4172 C   0  0  0  0  0  0  0  0  0  0  0  0
  -11.5481    2.1045   21.8965 C   0  0  0  0  0  0  0  0  0  0  0  0
  -11.7119    2.3634   23.1865 C   0  0  0  0  0  0  0  0  0  0  0  0
  4  7  1  0
  7  8  2  0
  3  9  1  0
  9 10  2  3
 10 11  1  0
 10 12  1  0
  9 13  1  0
 13 14  2  3
 14 15  1  0
 15 16  2  3
 16 17  1  0
 17 18  2  0
  1  2  2  0
  2  3  1  0
  3  6  2  0
  6  5  1  0
  5  4  2  0
  4  1  1  0
M  END
$$$$
