No_4004-complexes_sdf/6BKW-FPZ/2024-09-17-14-21-01/
     RDKit          3D

 16 17  0  0  0  0  0  0  0  0999 V2000
   -7.2496    3.8871   27.4508 C   0  0  0  0  0  0  0  0  0  0  0  0
   -7.6161    2.7143   27.1523 C   0  0  0  0  0  0  0  0  0  0  0  0
   -8.8302    2.4659   26.5056 C   0  0  0  0  0  0  0  0  0  0  0  0
   -8.1584    5.0090   27.3234 C   0  0  0  0  0  0  0  0  0  0  0  0
   -9.3788    4.7965   26.7695 C   0  0  0  0  0  0  0  0  0  0  0  0
   -9.7028    3.5649   26.3276 C   0  0  0  0  0  0  0  0  0  0  0  0
   -6.5643    1.3669   27.4061 Cl  0  0  0  0  0  0  0  0  0  0  0  0
   -7.5996    6.5746   27.8167 Cl  0  0  0  0  0  0  0  0  0  0  0  0
  -10.9990    3.3539   25.6627 C   0  0  2  0  0  0  0  0  0  0  0  0
  -11.0859    3.5880   24.3339 C   0  0  0  0  0  0  0  0  0  0  0  0
   -9.9215    4.0536   23.5509 C   0  0  0  0  0  0  0  0  0  0  0  0
  -10.0726    4.3324   22.1913 C   0  0  0  0  0  0  0  0  0  0  0  0
  -12.1767    3.3389   23.4376 C   0  0  0  0  0  0  0  0  0  0  0  0
  -12.3177    3.5883   22.1509 C   0  0  0  0  0  0  0  0  0  0  0  0
  -11.1623    4.1120   21.4803 C   0  0  0  0  0  0  0  0  0  0  0  0
  -11.9685    4.2724   26.4506 C   0  0  0  0  0  0  0  0  0  0  0  0
  2  7  1  0
  4  8  1  0
  6  9  1  0
  9 16  1  1
  9 10  1  0
  1  2  2  0
  2  3  1  0
  3  6  2  0
  6  5  1  0
  5  4  2  0
  4  1  1  0
 10 11  2  0
 11 12  1  0
 12 15  2  0
 15 14  1  0
 14 13  2  0
 13 10  1  0
M  END
$$$$
