No_4120-complexes_sdf/6BKW-FPZ/2024-09-17-14-21-01/
     RDKit          3D

 33 39  0  0  0  0  0  0  0  0999 V2000
   -7.9040    3.9820   27.1177 C   0  0  0  0  0  0  0  0  0  0  0  0
   -7.8663    4.8694   27.9238 C   0  0  0  0  0  0  0  0  0  0  0  0
   -9.0501    3.8017   26.2617 C   0  0  0  0  0  0  0  0  0  0  0  0
   -9.1826    2.7026   25.3575 C   0  0  0  0  0  0  0  0  0  0  0  0
   -8.6241    6.0053   27.5974 C   0  0  0  0  0  0  0  0  0  0  0  0
   -9.6577    6.0523   26.7101 C   0  0  0  0  0  0  0  0  0  0  0  0
   -9.7428    4.9359   25.9518 C   0  0  0  0  0  0  0  0  0  0  0  0
   -8.7007    1.4549   25.8151 C   0  0  0  0  0  0  0  0  0  0  0  0
   -8.1696    1.4089   27.1444 C   0  0  0  0  0  0  0  0  0  0  0  0
   -7.4999    2.6213   27.6212 N   0  0  0  0  0  0  0  0  0  0  0  0
   -9.9306    2.7444   24.1651 C   0  0  0  0  0  0  0  0  0  0  0  0
   -9.8622    1.9344   23.2117 C   0  0  0  0  0  0  0  0  0  0  0  0
  -10.5690    2.0480   21.9536 C   0  0  0  0  0  0  0  0  0  0  0  0
  -10.4482    1.0797   20.9536 C   0  0  0  0  0  0  0  0  0  0  0  0
   -9.6872   -0.1012   21.2463 C   0  0  0  0  0  0  0  0  0  0  0  0
   -9.0013   -0.2560   22.4201 C   0  0  0  0  0  0  0  0  0  0  0  0
   -9.0573    0.7851   23.3871 C   0  0  0  0  0  0  0  0  0  0  0  0
   -8.4110    0.4661   24.6912 C   0  0  2  0  0  0  0  0  0  0  0  0
   -7.8006   -0.5597   25.0086 F   0  0  0  0  0  0  0  0  0  0  0  0
  -11.3652    3.2260   21.6743 C   0  0  1  0  0  0  0  0  0  0  0  0
  -11.7456    3.8396   22.8771 C   0  0  1  0  0  0  0  0  0  0  0  0
  -10.8702    3.9500   24.0488 C   0  0  2  0  0  0  0  0  0  0  0  0
  -10.6888    4.8938   24.8242 C   0  0  0  0  0  0  0  0  0  0  0  0
  -10.6401    4.1376   20.7385 C   0  0  0  0  0  0  0  0  0  0  0  0
  -12.6631    2.7370   20.9797 C   0  0  1  0  0  0  0  0  0  0  0  0
  -13.5989    2.2065   21.5278 C   0  0  0  0  0  0  0  0  0  0  0  0
  -12.7141    3.0636   19.5446 C   0  0  0  0  0  0  0  0  0  0  0  0
  -14.5607    1.4717   20.9876 C   0  0  0  0  0  0  0  0  0  0  0  0
  -15.4953    0.8058   21.6495 C   0  0  0  0  0  0  0  0  0  0  0  0
  -15.5451    0.8834   23.0552 C   0  0  0  0  0  0  0  0  0  0  0  0
  -14.6175    1.6124   23.7635 C   0  0  0  0  0  0  0  0  0  0  0  0
  -13.6594    2.2223   23.1014 C   0  0  0  0  0  0  0  0  0  0  0  0
  -12.3198    5.1103   22.8058 O   0  0  0  0  0  0  0  0  0  0  0  0
  4 11  1  0
  8 18  1  0
 17 18  1  0
 18 19  1  1
 13 20  1  0
 20 21  1  0
 11 22  1  0
  7 23  1  0
 22 23  1  6
 20 24  1  6
 20 25  1  0
 25 26  1  0
 25 27  1  1
 21 33  1  6
 12 11  1  0
 22 21  1  0
 12 13  2  0
 13 14  1  0
 14 15  2  0
 15 16  1  0
 16 17  2  0
 17 12  1  0
  1  2  2  0
  2  5  1  0
  5  6  2  0
  6  7  1  0
  7  3  2  0
  1  3  1  0
  3  4  1  0
  4  8  2  0
  8  9  1  0
  9 10  2  0
 10  1  1  0
 26 28  2  0
 28 29  1  0
 29 30  2  0
 30 31  1  0
 31 32  2  0
 32 26  1  0
M  END
$$$$
