No_4836-complexes_sdf/6BKW-FPZ/2024-09-17-14-21-01/
     RDKit          3D

 20 22  0  0  0  0  0  0  0  0999 V2000
   -7.2496    3.8871   27.4508 C   0  0  0  0  0  0  0  0  0  0  0  0
   -8.5096    4.0291   27.2770 C   0  0  0  0  0  0  0  0  0  0  0  0
   -9.3451    2.8786   26.9046 C   0  0  0  0  0  0  0  0  0  0  0  0
   -8.7138    1.7135   26.7541 C   0  0  0  0  0  0  0  0  0  0  0  0
   -6.6024    2.6286   27.4581 C   0  0  0  0  0  0  0  0  0  0  0  0
   -7.3557    1.5598   27.1381 C   0  0  0  0  0  0  0  0  0  0  0  0
   -9.1549    5.3630   27.3415 C   0  0  0  0  0  0  0  0  0  0  0  0
  -10.3375    5.4465   27.8138 F   0  0  0  0  0  0  0  0  0  0  0  0
   -8.4077    6.2870   28.1121 F   0  0  0  0  0  0  0  0  0  0  0  0
   -9.0881    5.9693   25.8766 C   0  0  0  0  0  0  0  0  0  0  0  0
   -5.3064    2.5240   27.7702 O   0  0  0  0  0  0  0  0  0  0  0  0
   -6.5219    0.2956   27.0665 C   0  0  1  0  0  0  0  0  0  0  0  0
   -6.7813   -0.5289   26.0508 C   0  0  0  0  0  0  0  0  0  0  0  0
   -7.0633   -1.6246   26.2436 C   0  0  0  0  0  0  0  0  0  0  0  0
   -7.4807   -2.4810   25.0927 C   0  0  0  0  0  0  0  0  0  0  0  0
   -7.5091   -1.8840   23.9998 C   0  0  0  0  0  0  0  0  0  0  0  0
   -7.2180   -0.5659   23.6855 C   0  0  0  0  0  0  0  0  0  0  0  0
   -6.8600    0.1620   24.8340 C   0  0  0  0  0  0  0  0  0  0  0  0
   -5.4870    0.1023   28.0395 C   0  0  0  0  0  0  0  0  0  0  0  0
   -4.6790    1.3200   28.1900 C   0  0  0  0  0  0  0  0  0  0  0  0
  2  7  1  0
  7  8  1  0
  7  9  1  0
  7 10  1  0
  5 11  1  0
  6 12  1  0
 12 13  1  6
 12 19  1  0
 11 20  1  0
 19 20  2  0
 13 14  2  0
 14 15  1  0
 15 16  2  0
 16 17  1  0
 17 18  2  0
 18 13  1  0
  1  2  2  0
  2  3  1  0
  3  4  2  0
  4  6  1  0
  6  5  2  0
  5  1  1  0
M  END
$$$$
