No_4790-complexes_sdf/6BKW-FPZ/2024-09-17-14-21-01/
     RDKit          3D

 19 20  0  0  0  0  0  0  0  0999 V2000
   -7.9040    3.9820   27.1177 C   0  0  0  0  0  0  0  0  0  0  0  0
   -7.8663    4.8694   27.9238 C   0  0  0  0  0  0  0  0  0  0  0  0
   -9.0491    3.8523   26.2542 C   0  0  0  0  0  0  0  0  0  0  0  0
   -8.7661    5.9491   27.9690 C   0  0  0  0  0  0  0  0  0  0  0  0
   -9.9295    4.8502   26.2323 C   0  0  0  0  0  0  0  0  0  0  0  0
   -9.8077    5.9288   27.0933 C   0  0  0  0  0  0  0  0  0  0  0  0
   -6.8002    2.6256   27.2024 Cl  0  0  0  0  0  0  0  0  0  0  0  0
   -9.0975    2.7884   25.3552 O   0  0  0  0  0  0  0  0  0  0  0  0
  -10.1093    2.7937   24.4191 C   0  0  0  0  0  0  0  0  0  0  0  0
  -11.1509    2.3481   24.8090 C   0  0  2  0  0  0  0  0  0  0  0  0
  -11.3522    1.4177   25.6222 C   0  0  0  0  0  0  0  0  0  0  0  0
  -10.6308    0.3767   25.7432 C   0  0  0  0  0  0  0  0  0  0  0  0
  -10.6826   -0.4317   26.9467 C   0  0  0  0  0  0  0  0  0  0  0  0
  -11.7210   -0.1375   27.8891 C   0  0  0  0  0  0  0  0  0  0  0  0
  -12.4897    0.9378   27.7977 C   0  0  0  0  0  0  0  0  0  0  0  0
  -12.3241    1.7595   26.7539 C   0  0  0  0  0  0  0  0  0  0  0  0
  -12.3443    2.8340   24.0201 C   0  0  0  0  0  0  0  0  0  0  0  0
  -13.2164    3.4358   24.5167 C   0  0  0  0  0  0  0  0  0  0  0  0
  -14.4506    3.9083   23.9204 C   0  0  0  0  0  0  0  0  0  0  0  0
  1  7  1  0
  3  8  1  0
  8  9  1  0
 10  9  1  6
 10 11  1  0
 10 17  1  0
 17 18  2  3
 18 19  1  0
 11 12  2  0
 12 13  1  0
 13 14  2  0
 14 15  1  0
 15 16  2  0
 16 11  1  0
  1  2  2  0
  2  4  1  0
  4  6  2  0
  6  5  1  0
  5  3  2  0
  3  1  1  0
M  END
$$$$
