No_4767-complexes_sdf/6BKW-FPZ/2024-09-17-14-21-01/
     RDKit          3D

 18 18  0  0  0  0  0  0  0  0999 V2000
   -7.9040    3.9820   27.1177 C   0  0  0  0  0  0  0  0  0  0  0  0
   -8.2057    2.8231   26.8733 C   0  0  0  0  0  0  0  0  0  0  0  0
   -8.7695    5.0740   26.7916 C   0  0  0  0  0  0  0  0  0  0  0  0
   -8.4337    6.4678   27.0913 C   0  0  0  0  0  0  0  0  0  0  0  0
   -9.3742    2.4311   26.2346 C   0  0  0  0  0  0  0  0  0  0  0  0
  -10.2395    3.4267   25.8887 C   0  0  0  0  0  0  0  0  0  0  0  0
   -9.9567    4.7548   26.1374 C   0  0  0  0  0  0  0  0  0  0  0  0
   -7.8894    6.9001   28.1379 N   0  0  0  0  0  0  0  0  0  0  0  0
   -8.8418    7.3448   26.2160 O   0  0  0  0  0  0  0  0  0  0  0  0
   -7.2481    1.6807   27.2880 C   0  0  0  0  0  0  0  0  0  0  0  0
   -6.0881    1.9922   27.8408 N   0  0  0  0  0  0  0  0  0  0  0  0
   -5.1133    0.9370   28.0451 C   0  0  0  0  0  0  0  0  0  0  0  0
   -5.5213   -0.3151   27.8508 C   0  0  0  0  0  0  0  0  0  0  0  0
   -7.7128    0.4526   27.1647 O   0  0  0  0  0  0  0  0  0  0  0  0
   -4.6318   -1.4051   28.1766 C   0  0  0  0  0  0  0  0  0  0  0  0
   -3.3798   -1.0396   28.7172 C   0  0  0  0  0  0  0  0  0  0  0  0
   -2.9973    0.2642   28.8415 C   0  0  0  0  0  0  0  0  0  0  0  0
   -3.8475    1.2891   28.6006 C   0  0  0  0  0  0  0  0  0  0  0  0
  3  4  1  0
  4  8  1  0
  4  9  2  0
  2 10  1  0
 10 11  1  0
 11 12  2  3
 12 13  1  0
 10 14  2  0
 13 15  1  0
 15 16  1  0
 16 17  2  3
 17 18  1  0
  1  2  2  0
  2  5  1  0
  5  6  2  0
  6  7  1  0
  7  3  2  0
  3  1  1  0
M  END
$$$$
