No_4440-complexes_sdf/6BKW-FPZ/2024-09-17-14-21-01/
     RDKit          3D

 19 19  0  0  0  0  0  0  0  0999 V2000
   -7.2496    3.8871   27.4508 C   0  0  0  0  0  0  0  0  0  0  0  0
   -8.5096    4.0291   27.2770 C   0  0  0  0  0  0  0  0  0  0  0  0
   -9.3502    2.8685   26.8763 C   0  0  0  0  0  0  0  0  0  0  0  0
   -6.6288    2.5513   27.4938 C   0  0  0  0  0  0  0  0  0  0  0  0
   -7.4365    1.4714   27.2032 C   0  0  0  0  0  0  0  0  0  0  0  0
   -8.7772    1.6579   26.9338 C   0  0  0  0  0  0  0  0  0  0  0  0
   -9.1119    5.3743   27.2229 C   0  0  0  0  0  0  0  0  0  0  0  0
   -8.3754    6.4338   27.0554 N   0  0  0  0  0  0  0  0  0  0  0  0
  -10.3182    5.5918   27.7577 N   0  0  0  0  0  0  0  0  0  0  0  0
   -6.6366    0.2100   27.1864 C   0  0  0  0  0  0  0  0  0  0  0  0
   -5.5234    0.0960   27.5544 N   0  0  0  0  0  0  0  0  0  0  0  0
   -7.3465   -0.9454   26.6080 C   0  0  0  0  0  0  0  0  0  0  0  0
   -4.8595   -0.5718   27.9761 C   0  0  0  0  0  0  0  0  0  0  0  0
   -3.5279   -0.3156   28.6148 C   0  0  0  0  0  0  0  0  0  0  0  0
   -4.8806   -1.9399   27.3463 C   0  0  0  0  0  0  0  0  0  0  0  0
   -2.8996   -1.0900   29.4465 C   0  0  0  0  0  0  0  0  0  0  0  0
   -3.2563   -1.4858   30.4884 C   0  0  0  0  0  0  0  0  0  0  0  0
   -2.4350   -2.3154   31.4468 C   0  0  0  0  0  0  0  0  0  0  0  0
   -1.2206   -2.6789   30.9462 C   0  0  0  0  0  0  0  0  0  0  0  0
  2  7  1  0
  7  8  2  0
  7  9  1  0
  5 10  1  0
 10 11  2  3
 10 12  1  0
 11 13  1  0
 13 14  2  3
 13 15  1  0
 14 16  1  0
 16 17  2  3
 17 18  1  0
 18 19  2  0
  1  2  2  0
  2  3  1  0
  3  6  2  0
  6  5  1  0
  5  4  2  0
  4  1  1  0
M  END
$$$$
