No_4623-complexes_sdf/6BKW-FPZ/2024-09-17-14-21-01/
     RDKit          3D

 12 13  0  0  0  0  0  0  0  0999 V2000
   -7.9040    3.9820   27.1177 C   0  0  0  0  0  0  0  0  0  0  0  0
   -7.8663    4.8694   27.9238 C   0  0  0  0  0  0  0  0  0  0  0  0
   -9.0501    3.8017   26.2617 C   0  0  0  0  0  0  0  0  0  0  0  0
  -10.0189    4.7608   26.3707 C   0  0  0  0  0  0  0  0  0  0  0  0
   -8.6770    5.9780   27.9222 C   0  0  0  0  0  0  0  0  0  0  0  0
   -9.8040    5.8752   27.0958 C   0  0  0  0  0  0  0  0  0  0  0  0
   -9.1317    2.6414   25.4147 C   0  0  0  0  0  0  0  0  0  0  0  0
  -10.0093    2.7245   24.3328 C   0  0  0  0  0  0  0  0  0  0  0  0
  -10.1132    1.6353   23.4516 C   0  0  0  0  0  0  0  0  0  0  0  0
   -9.2559    0.4822   23.6894 C   0  0  0  0  0  0  0  0  0  0  0  0
   -8.4137    1.3854   25.5268 C   0  0  0  0  0  0  0  0  0  0  0  0
   -8.4329    0.4389   24.7138 C   0  0  0  0  0  0  0  0  0  0  0  0
  3  7  1  0
  7  8  2  0
  8  9  1  0
  9 10  2  0
 10 12  1  0
 12 11  2  0
 11  7  1  0
  1  2  2  0
  2  5  1  0
  5  6  2  0
  6  4  1  0
  4  3  2  0
  3  1  1  0
M  END
$$$$
