No_4219-complexes_sdf/6BKW-FPZ/2024-09-17-14-21-01/
     RDKit          3D

 15 16  0  0  0  0  0  0  0  0999 V2000
   -7.9040    3.9820   27.1177 C   0  0  0  0  0  0  0  0  0  0  0  0
   -9.0711    4.3164   27.0630 C   0  0  0  0  0  0  0  0  0  0  0  0
  -10.0395    3.8218   27.1938 C   0  0  0  0  0  0  0  0  0  0  0  0
   -7.6424    2.5858   27.3610 C   0  0  0  0  0  0  0  0  0  0  0  0
   -8.7646    1.7754   27.4263 C   0  0  0  0  0  0  0  0  0  0  0  0
   -9.9966    2.3406   27.3957 C   0  0  0  0  0  0  0  0  0  0  0  0
   -6.2872    2.0438   27.3877 C   0  0  0  0  0  0  0  0  0  0  0  0
   -6.0159    0.7024   27.3044 C   0  0  0  0  0  0  0  0  0  0  0  0
   -6.8619   -0.0638   27.6183 C   0  0  0  0  0  0  0  0  0  0  0  0
   -8.4226    0.3410   27.6172 C   0  0  0  0  0  0  0  0  0  0  0  0
   -9.3536    5.9391   26.9779 C   0  0  0  0  0  0  0  0  0  0  0  0
   -8.4290    6.6989   26.1119 C   0  0  0  0  0  0  0  0  0  0  0  0
   -4.6129    0.3224   27.4480 C   0  0  0  0  0  0  0  0  0  0  0  0
   -4.0826   -0.0944   26.3813 O   0  0  0  0  0  0  0  0  0  0  0  0
   -3.9050    0.5228   28.5132 F   0  0  0  0  0  0  0  0  0  0  0  0
  2 11  1  0
 11 12  1  0
  8 13  1  0
 13 14  2  0
 13 15  1  0
  5 10  2  0
 10  9  1  0
  9  8  2  0
  8  7  1  0
  7  4  2  0
  1  2  2  0
  2  3  1  0
  3  6  2  0
  6  5  1  0
  5  4  1  0
  4  1  1  0
M  END
$$$$
