No_4003-complexes_sdf/6BKW-FPZ/2024-09-17-14-21-01/
     RDKit          3D

 31 35  0  0  0  0  0  0  0  0999 V2000
   -7.7129    4.2099   27.0854 C   0  0  0  0  0  0  0  0  0  0  0  0
   -8.9133    4.4736   27.0998 C   0  0  0  0  0  0  0  0  0  0  0  0
   -9.7937    3.7367   26.2091 C   0  0  0  0  0  0  0  0  0  0  0  0
   -7.2495    2.8647   26.8496 C   0  0  0  0  0  0  0  0  0  0  0  0
   -8.1891    1.9790   26.3454 C   0  0  0  0  0  0  0  0  0  0  0  0
   -9.4252    2.4603   26.0121 C   0  0  0  0  0  0  0  0  0  0  0  0
   -9.3199    5.9662   27.2512 C   0  0  0  0  0  0  0  0  0  0  0  0
   -7.7626    0.5908   26.1375 C   0  0  0  0  0  0  0  0  0  0  0  0
   -7.1393   -0.1043   26.8619 O   0  0  0  0  0  0  0  0  0  0  0  0
   -8.3920   -0.0247   25.0601 O   0  0  0  0  0  0  0  0  0  0  0  0
   -8.4089    7.0373   26.9363 C   0  0  0  0  0  0  0  0  0  0  0  0
   -6.6895    5.0814   27.7888 C   0  0  0  0  0  0  0  0  0  0  0  0
   -8.7561    8.2755   27.1607 C   0  0  0  0  0  0  0  0  0  0  0  0
   -7.0848    6.8174   27.8261 C   0  0  0  0  0  0  0  0  0  0  0  0
   -9.4521   -0.3081   24.9003 C   0  0  2  0  0  0  0  0  0  0  0  0
   -9.7355   -1.4759   24.1795 C   0  0  0  0  0  0  0  0  0  0  0  0
   -9.0107   -2.2698   23.8123 C   0  0  0  0  0  0  0  0  0  0  0  0
   -9.3289   -3.4643   23.0029 C   0  0  0  0  0  0  0  0  0  0  0  0
  -11.1454   -1.7819   23.7738 C   0  0  0  0  0  0  0  0  0  0  0  0
  -11.5397   -2.8208   23.0788 C   0  0  0  0  0  0  0  0  0  0  0  0
  -10.5611   -3.7024   22.6598 C   0  0  0  0  0  0  0  0  0  0  0  0
  -10.6050    0.5672   25.3511 C   0  0  0  0  0  0  0  0  0  0  0  0
  -10.4487    1.6519   25.5131 C   0  0  0  0  0  0  0  0  0  0  0  0
  -10.9289   -4.8622   21.8660 C   0  0  0  0  0  0  0  0  0  0  0  0
  -10.6728   -5.9688   22.1337 O   0  0  0  0  0  0  0  0  0  0  0  0
  -11.6129   -4.5883   20.6633 N   0  0  0  0  0  0  0  0  0  0  0  0
  -12.0069   -5.6208   19.7879 C   0  0  0  0  0  0  0  0  0  0  0  0
  -12.6608   -5.3167   18.7988 C   0  0  0  0  0  0  0  0  0  0  0  0
  -12.9620   -3.9313   18.4801 C   0  0  0  0  0  0  0  0  0  0  0  0
  -12.5229   -2.9243   19.3380 C   0  0  0  0  0  0  0  0  0  0  0  0
  -11.8603   -3.2105   20.4205 C   0  0  0  0  0  0  0  0  0  0  0  0
  5  8  1  0
  8  9  2  0
  8 10  1  0
 11 13  1  0
 10 15  1  0
 15 16  1  6
 15 22  1  0
  6 23  1  0
 22 23  2  0
 21 24  1  0
 24 25  2  0
 24 26  1  0
 26 27  1  0
 28 29  1  0
 26 31  1  0
 30 31  1  0
 27 28  1  0
 29 30  1  0
  2  7  1  0
  7 11  2  0
 11 14  1  0
 14 12  2  0
 12  1  1  0
  1  2  1  0
  2  3  2  0
  3  6  1  0
  6  5  2  0
  5  4  1  0
  4  1  2  0
 16 17  2  0
 17 18  1  0
 18 21  2  0
 21 20  1  0
 20 19  2  0
 19 16  1  0
M  END
$$$$
