No_4654-complexes_sdf/6BKW-FPZ/2024-09-17-14-21-01/
     RDKit          3D

 13 13  0  0  0  0  0  0  0  0999 V2000
   -7.2496    3.8871   27.4508 C   0  0  0  0  0  0  0  0  0  0  0  0
   -8.5096    4.0291   27.2770 C   0  0  0  0  0  0  0  0  0  0  0  0
   -9.3451    2.8786   26.9046 C   0  0  0  0  0  0  0  0  0  0  0  0
   -6.6065    2.5680   27.5073 C   0  0  0  0  0  0  0  0  0  0  0  0
   -7.3970    1.4834   27.2271 C   0  0  0  0  0  0  0  0  0  0  0  0
   -6.8114    0.1924   27.2947 C   0  0  0  0  0  0  0  0  0  0  0  0
   -8.7355    1.6575   26.9788 C   0  0  0  0  0  0  0  0  0  0  0  0
   -9.1211    5.3943   27.2180 C   0  0  0  0  0  0  0  0  0  0  0  0
   -8.4190    6.2827   26.7809 F   0  0  0  0  0  0  0  0  0  0  0  0
   -9.5786    5.7952   28.5385 F   0  0  0  0  0  0  0  0  0  0  0  0
  -10.2905    5.3806   26.4875 F   0  0  0  0  0  0  0  0  0  0  0  0
   -7.4318   -0.9049   27.3855 C   0  0  0  0  0  0  0  0  0  0  0  0
   -6.8421   -2.1824   27.4971 C   0  0  0  0  0  0  0  0  0  0  0  0
  5  6  1  0
  2  8  1  0
  8  9  1  0
  8 10  1  0
  8 11  1  0
  6 12  2  3
 12 13  1  0
  1  2  2  0
  2  3  1  0
  3  7  2  0
  7  5  1  0
  5  4  2  0
  4  1  1  0
M  END
$$$$
