No_4088-complexes_sdf/6BKW-FPZ/2024-09-17-14-21-01/
     RDKit          3D

 20 22  0  0  0  0  0  0  0  0999 V2000
   -7.9040    3.9820   27.1177 C   0  0  0  0  0  0  0  0  0  0  0  0
   -8.2057    2.8231   26.8733 C   0  0  0  0  0  0  0  0  0  0  0  0
   -9.2962    2.4021   26.1155 C   0  0  0  0  0  0  0  0  0  0  0  0
   -6.8682    4.5169   28.0704 C   0  0  0  0  0  0  0  0  0  0  0  0
  -10.0578    3.3688   25.5520 C   0  0  0  0  0  0  0  0  0  0  0  0
   -9.6997    4.7480   25.6981 C   0  0  0  0  0  0  0  0  0  0  0  0
   -8.6783    5.1111   26.5262 C   0  0  0  0  0  0  0  0  0  0  0  0
   -8.4564    6.3698   26.7342 F   0  0  0  0  0  0  0  0  0  0  0  0
   -9.5584    0.9721   25.8786 C   0  0  0  0  0  0  0  0  0  0  0  0
  -10.3917    0.3179   26.6922 C   0  0  0  0  0  0  0  0  0  0  0  0
  -10.6214   -1.0656   26.6501 C   0  0  0  0  0  0  0  0  0  0  0  0
   -8.2829    0.1382   25.7912 C   0  0  0  0  0  0  0  0  0  0  0  0
   -8.4818   -1.2814   25.5483 C   0  0  0  0  0  0  0  0  0  0  0  0
   -9.5195   -1.8631   26.3417 C   0  0  0  0  0  0  0  0  0  0  0  0
  -11.7779   -1.7197   27.3384 C   0  0  0  0  0  0  0  0  0  0  0  0
  -12.3192   -1.3518   28.3705 C   0  0  0  0  0  0  0  0  0  0  0  0
  -13.5360   -1.9197   28.9417 C   0  0  0  0  0  0  0  0  0  0  0  0
  -14.0582   -2.9566   28.2571 C   0  0  0  0  0  0  0  0  0  0  0  0
  -13.5028   -3.3893   27.1178 C   0  0  0  0  0  0  0  0  0  0  0  0
  -12.3693   -2.7727   26.6245 C   0  0  0  0  0  0  0  0  0  0  0  0
  1  4  1  0
  7  8  1  0
  3  9  1  0
 11 15  1  0
 15 16  2  0
 16 17  1  0
 17 18  2  0
 18 19  1  0
 19 20  2  0
 20 15  1  0
  9 10  2  0
 10 11  1  0
 11 14  2  0
 14 13  1  0
 13 12  2  0
 12  9  1  0
  1  2  2  0
  2  3  1  0
  3  5  2  0
  5  6  1  0
  6  7  2  0
  7  1  1  0
M  END
$$$$
