No_4966-complexes_sdf/6BKW-FPZ/2024-09-17-14-21-01/
     RDKit          3D

 10 10  0  0  0  0  0  0  0  0999 V2000
   -7.9040    3.9820   27.1177 C   0  0  0  0  0  0  0  0  0  0  0  0
   -8.2057    2.8231   26.8733 C   0  0  0  0  0  0  0  0  0  0  0  0
   -7.0130    4.3706   28.1140 C   0  0  0  0  0  0  0  0  0  0  0  0
   -7.4093    1.7370   27.3857 C   0  0  0  0  0  0  0  0  0  0  0  0
   -7.7256    0.3814   27.1250 C   0  0  0  0  0  0  0  0  0  0  0  0
   -5.9453    3.4406   28.3256 C   0  0  0  0  0  0  0  0  0  0  0  0
   -6.2335    2.0841   28.0727 C   0  0  0  0  0  0  0  0  0  0  0  0
   -9.0130    0.0208   26.8563 C   0  0  0  0  0  0  0  0  0  0  0  0
   -9.3744   -1.2899   26.7788 C   0  0  0  0  0  0  0  0  0  0  0  0
   -8.3773   -2.2449   27.0378 C   0  0  0  0  0  0  0  0  0  0  0  0
  5  8  1  0
  8  9  2  3
  9 10  1  0
  5  4  1  0
  1  2  2  0
  2  4  1  0
  4  7  2  0
  7  6  1  0
  6  3  2  0
  3  1  1  0
M  END
$$$$
