No_4410-complexes_sdf/6BKW-FPZ/2024-09-17-14-21-01/
     RDKit          3D

 17 19  0  0  0  0  0  0  0  0999 V2000
   -7.9040    3.9820   27.1177 C   0  0  0  0  0  0  0  0  0  0  0  0
   -9.0711    4.3164   27.0630 C   0  0  0  0  0  0  0  0  0  0  0  0
   -9.9692    3.7224   26.1073 C   0  0  0  0  0  0  0  0  0  0  0  0
   -6.9787    4.6761   28.1003 C   0  0  0  0  0  0  0  0  0  0  0  0
   -9.4538    2.6801   25.3673 C   0  0  0  0  0  0  0  0  0  0  0  0
   -8.1927    2.1957   25.6621 C   0  0  0  0  0  0  0  0  0  0  0  0
   -7.4333    2.8255   26.6299 C   0  0  0  0  0  0  0  0  0  0  0  0
  -10.3066    1.9975   24.3777 C   0  0  0  0  0  0  0  0  0  0  0  0
   -9.7680    1.0924   23.6436 C   0  0  0  0  0  0  0  0  0  0  0  0
  -10.3318    0.6993   22.4424 C   0  0  0  0  0  0  0  0  0  0  0  0
  -11.6073    1.1837   22.1118 C   0  0  0  0  0  0  0  0  0  0  0  0
  -11.4947    2.5899   23.8814 C   0  0  0  0  0  0  0  0  0  0  0  0
  -12.1559    2.1643   22.8047 C   0  0  0  0  0  0  0  0  0  0  0  0
   -7.4857    5.8146   28.6600 N   0  0  0  0  0  0  0  0  0  0  0  0
   -5.7768    4.4641   28.1190 O   0  0  0  0  0  0  0  0  0  0  0  0
   -9.5629    5.6262   27.6298 C   0  0  0  0  0  0  0  0  0  0  0  0
   -8.6632    6.2540   28.4479 N   0  0  0  0  0  0  0  0  0  0  0  0
  5  8  1  0
  4 15  1  0
  2 16  1  0
 16 17  2  0
 17 14  1  0
 14  4  2  0
  4  1  1  0
  8  9  2  0
  9 10  1  0
 10 11  2  0
 11 13  1  0
 13 12  2  0
 12  8  1  0
  1  2  1  0
  2  3  2  0
  3  5  1  0
  5  6  2  0
  6  7  1  0
  7  1  2  0
M  END
$$$$
