No_4689-complexes_sdf/6BKW-FPZ/2024-09-17-14-21-01/
     RDKit          3D

 18 19  0  0  0  0  0  0  0  0999 V2000
   -7.7129    4.2099   27.0854 C   0  0  0  0  0  0  0  0  0  0  0  0
   -8.9133    4.4736   27.0998 C   0  0  1  0  0  0  0  0  0  0  0  0
   -9.4643    5.5426   27.7628 C   0  0  0  0  0  0  0  0  0  0  0  0
   -9.8091    3.6358   26.2841 C   0  0  0  0  0  0  0  0  0  0  0  0
  -10.3717    2.5594   26.9241 C   0  0  0  0  0  0  0  0  0  0  0  0
  -10.3040    2.3353   28.2164 C   0  0  0  0  0  0  0  0  0  0  0  0
   -7.0429    2.9235   27.0292 C   0  0  0  0  0  0  0  0  0  0  0  0
  -10.9977    1.5119   26.1036 C   0  0  0  0  0  0  0  0  0  0  0  0
   -5.8143    2.6951   27.6875 C   0  0  0  0  0  0  0  0  0  0  0  0
   -5.3115    1.4032   27.8304 C   0  0  0  0  0  0  0  0  0  0  0  0
   -6.1395    0.3024   27.5193 C   0  0  0  0  0  0  0  0  0  0  0  0
   -7.4080    0.5426   26.9420 C   0  0  0  0  0  0  0  0  0  0  0  0
   -7.8755    1.8205   26.7809 C   0  0  0  0  0  0  0  0  0  0  0  0
  -11.0084    1.6343   24.8573 C   0  0  0  0  0  0  0  0  0  0  0  0
  -11.6451    0.7175   23.9906 C   0  0  0  0  0  0  0  0  0  0  0  0
  -12.2861   -0.3409   24.5979 C   0  0  0  0  0  0  0  0  0  0  0  0
  -11.6693    0.4025   26.6442 C   0  0  0  0  0  0  0  0  0  0  0  0
  -12.3004   -0.5153   25.9373 C   0  0  0  0  0  0  0  0  0  0  0  0
  1  2  1  0
  2  3  1  6
  2  4  1  0
  4  5  1  0
  5  6  2  0
  1  7  1  0
  5  8  1  0
  7  9  2  0
  9 10  1  0
 10 11  2  0
 11 12  1  0
 12 13  2  0
 13  7  1  0
  8 14  2  0
 14 15  1  0
 15 16  2  0
 16 18  1  0
 18 17  2  0
 17  8  1  0
M  END
$$$$
