No_4996-complexes_sdf/6BKW-FPZ/2024-09-17-14-21-01/
     RDKit          3D

 18 20  0  0  0  0  0  0  0  0999 V2000
   -7.7129    4.2099   27.0854 C   0  0  0  0  0  0  0  0  0  0  0  0
   -8.2112    3.0637   26.9225 C   0  0  0  0  0  0  0  0  0  0  0  0
   -7.0021    4.5281   28.2396 C   0  0  0  0  0  0  0  0  0  0  0  0
   -9.4237    2.7810   26.2714 C   0  0  0  0  0  0  0  0  0  0  0  0
   -9.9782    1.4391   26.2525 C   0  0  0  0  0  0  0  0  0  0  0  0
  -11.2118    1.2242   25.6766 C   0  0  0  0  0  0  0  0  0  0  0  0
  -11.8702    2.3218   25.1283 C   0  0  0  0  0  0  0  0  0  0  0  0
  -11.3400    3.5742   25.0895 C   0  0  0  0  0  0  0  0  0  0  0  0
  -10.0352    3.7962   25.6803 C   0  0  0  0  0  0  0  0  0  0  0  0
   -7.2857    1.9485   27.2242 C   0  0  0  0  0  0  0  0  0  0  0  0
   -6.0499    2.2975   27.9048 C   0  0  0  0  0  0  0  0  0  0  0  0
   -5.8639    3.5987   28.3528 C   0  0  0  0  0  0  0  0  0  0  0  0
   -5.1137    1.2301   28.2580 C   0  0  0  0  0  0  0  0  0  0  0  0
   -5.3605   -0.1057   28.1504 C   0  0  0  0  0  0  0  0  0  0  0  0
   -5.4348   -0.8145   29.3393 C   0  0  0  0  0  0  0  0  0  0  0  0
   -4.7019   -0.3508   30.3690 C   0  0  0  0  0  0  0  0  0  0  0  0
   -3.8932    0.8495   30.2499 C   0  0  0  0  0  0  0  0  0  0  0  0
   -4.1581    1.5773   29.2492 C   0  0  0  0  0  0  0  0  0  0  0  0
  2  4  1  0
 11 13  1  0
 13 14  2  0
 14 15  1  0
 15 16  2  0
 16 17  1  0
 17 18  2  0
 18 13  1  0
  1  2  2  0
  2 10  1  0
 10 11  2  0
 11 12  1  0
 12  3  2  0
  3  1  1  0
  4  5  2  0
  5  6  1  0
  6  7  2  0
  7  8  1  0
  8  9  2  0
  9  4  1  0
M  END
$$$$
