No_4370-complexes_sdf/6BKW-FPZ/2024-09-17-14-21-01/
     RDKit          3D

 14 15  0  0  0  0  0  0  0  0999 V2000
   -7.7129    4.2099   27.0854 C   0  0  0  0  0  0  0  0  0  0  0  0
   -7.7814    5.1722   27.8972 C   0  0  0  0  0  0  0  0  0  0  0  0
   -8.8998    3.8713   26.3707 C   0  0  0  0  0  0  0  0  0  0  0  0
   -9.9938    4.6774   26.5446 C   0  0  0  0  0  0  0  0  0  0  0  0
   -8.7789    6.1536   27.9256 C   0  0  0  0  0  0  0  0  0  0  0  0
   -9.9428    5.8398   27.2296 C   0  0  0  0  0  0  0  0  0  0  0  0
   -8.7380    2.6148   25.5921 C   0  0  0  0  0  0  0  0  0  0  0  0
   -9.5768    2.5154   24.5324 C   0  0  0  0  0  0  0  0  0  0  0  0
  -10.4490    3.5793   24.1808 C   0  0  0  0  0  0  0  0  0  0  0  0
  -10.9156    4.5355   25.3386 C   0  0  0  0  0  0  0  0  0  0  0  0
  -11.2227    3.6228   22.9862 C   0  0  1  0  0  0  0  0  0  0  0  0
  -11.2166    4.6407   22.3443 C   0  0  0  0  0  0  0  0  0  0  0  0
  -11.7439    2.4743   22.4506 C   0  0  0  0  0  0  0  0  0  0  0  0
  -11.7422    1.3920   22.9093 C   0  0  0  0  0  0  0  0  0  0  0  0
  9 11  1  0
 11 12  1  6
 11 13  1  0
 13 14  2  0
  4 10  2  0
 10  9  1  0
  9  8  2  0
  8  7  1  0
  7  3  2  0
  1  2  2  0
  2  5  1  0
  5  6  2  0
  6  4  1  0
  4  3  1  0
  3  1  1  0
M  END
$$$$
