No_4797-complexes_sdf/6BKW-FPZ/2024-09-17-14-21-01/
     RDKit          3D

 22 24  0  0  0  0  0  0  0  0999 V2000
   -7.9040    3.9820   27.1177 C   0  0  0  0  0  0  0  0  0  0  0  0
   -9.0711    4.3164   27.0630 C   0  0  0  0  0  0  0  0  0  0  0  0
   -9.5294    5.4517   27.7215 C   0  0  0  0  0  0  0  0  0  0  0  0
   -6.9328    4.7309   27.8881 C   0  0  0  0  0  0  0  0  0  0  0  0
   -7.3377    5.8421   28.5537 C   0  0  0  0  0  0  0  0  0  0  0  0
   -8.6411    6.2609   28.3972 C   0  0  0  0  0  0  0  0  0  0  0  0
  -10.0467    3.4917   26.2630 C   0  0  0  0  0  0  0  0  0  0  0  0
  -10.5865    3.7278   25.3547 C   0  0  0  0  0  0  0  0  0  0  0  0
  -11.3946    2.9573   24.4690 C   0  0  0  0  0  0  0  0  0  0  0  0
  -11.4615    1.6376   24.8205 C   0  0  0  0  0  0  0  0  0  0  0  0
  -10.0115    2.0564   26.4387 C   0  0  0  0  0  0  0  0  0  0  0  0
  -10.7170    1.1533   25.8187 C   0  0  0  0  0  0  0  0  0  0  0  0
  -12.3214    0.7529   23.9405 C   0  0  0  0  0  0  0  0  0  0  0  0
  -12.8727    0.9841   23.0775 C   0  0  0  0  0  0  0  0  0  0  0  0
  -13.7031    0.0526   22.2415 C   0  0  0  0  0  0  0  0  0  0  0  0
  -13.6930   -1.2376   22.6982 C   0  0  0  0  0  0  0  0  0  0  0  0
  -12.9984   -1.5821   23.7839 C   0  0  0  0  0  0  0  0  0  0  0  0
  -12.2420   -0.6759   24.5136 C   0  0  0  0  0  0  0  0  0  0  0  0
  -13.0484   -2.9924   24.2574 C   0  0  0  0  0  0  0  0  0  0  0  0
  -13.0586   -3.2937   25.3863 O   0  0  0  0  0  0  0  0  0  0  0  0
  -13.0617   -3.8706   23.3049 O   0  0  0  0  0  0  0  0  0  0  0  0
   -5.6965    4.2312   28.0349 F   0  0  0  0  0  0  0  0  0  0  0  0
  2  7  1  0
 10 13  1  0
 17 19  1  0
 19 20  2  0
 19 21  1  0
  4 22  1  0
  7  8  2  0
  8  9  1  0
  9 10  2  0
 10 12  1  0
 12 11  2  0
 11  7  1  0
 13 14  2  0
 14 15  1  0
 15 16  2  0
 16 17  1  0
 17 18  2  0
 18 13  1  0
  1  2  2  0
  2  3  1  0
  3  6  2  0
  6  5  1  0
  5  4  2  0
  4  1  1  0
M  END
$$$$
