No_4518-complexes_sdf/6BKW-FPZ/2024-09-17-14-21-01/
     RDKit          3D

 26 30  0  0  0  0  0  0  0  0999 V2000
   -7.2496    3.8871   27.4508 C   0  0  0  0  0  0  0  0  0  0  0  0
   -7.6161    2.7143   27.1523 C   0  0  0  0  0  0  0  0  0  0  0  0
   -8.8302    2.4659   26.5056 C   0  0  0  0  0  0  0  0  0  0  0  0
   -8.1584    5.0090   27.3234 C   0  0  0  0  0  0  0  0  0  0  0  0
   -9.3788    4.7965   26.7695 C   0  0  0  0  0  0  0  0  0  0  0  0
   -9.7028    3.5649   26.3276 C   0  0  0  0  0  0  0  0  0  0  0  0
   -6.7182    1.5519   27.3631 C   0  0  0  0  0  0  0  0  0  0  0  0
   -5.4694    1.7365   28.0694 C   0  0  0  0  0  0  0  0  0  0  0  0
   -4.5986    0.6519   28.2611 C   0  0  0  0  0  0  0  0  0  0  0  0
   -3.3986    0.8278   28.9214 C   0  0  0  0  0  0  0  0  0  0  0  0
   -5.0376   -0.6443   27.8747 C   0  0  0  0  0  0  0  0  0  0  0  0
   -6.2860   -0.8271   27.2662 C   0  0  0  0  0  0  0  0  0  0  0  0
   -7.1143    0.2813   27.0177 C   0  0  0  0  0  0  0  0  0  0  0  0
   -7.6143    6.5837   27.8607 Cl  0  0  0  0  0  0  0  0  0  0  0  0
  -10.9923    3.3748   25.6303 C   0  0  0  0  0  0  0  0  0  0  0  0
  -11.2250    2.1834   25.0860 C   0  0  0  0  0  0  0  0  0  0  0  0
  -12.1440    1.6474   24.8080 C   0  0  0  0  0  0  0  0  0  0  0  0
  -12.3444    0.3449   24.0985 C   0  0  0  0  0  0  0  0  0  0  0  0
  -11.1726   -0.2734   23.7769 C   0  0  0  0  0  0  0  0  0  0  0  0
   -9.9424    0.2963   23.9779 C   0  0  0  0  0  0  0  0  0  0  0  0
   -9.8436    1.5230   24.5864 C   0  0  0  0  0  0  0  0  0  0  0  0
   -8.7357    1.7759   25.3606 N   0  0  0  0  0  0  0  0  0  0  0  0
   -2.5305   -0.3248   29.0604 C   0  0  0  0  0  0  0  0  0  0  0  0
   -2.7611   -1.4623   28.4630 C   0  0  0  0  0  0  0  0  0  0  0  0
   -4.0928   -1.7275   27.9786 C   0  0  0  0  0  0  0  0  0  0  0  0
  -11.9447    4.1893   25.8143 O   0  0  0  0  0  0  0  0  0  0  0  0
  2  7  1  0
  4 14  1  0
  6 15  1  0
 15 16  1  0
 21 22  1  0
 15 26  2  0
  3 22  1  0
  9 10  2  0
 10 23  1  0
 23 24  2  0
 24 25  1  0
 25 11  2  0
  1  2  2  0
  2  3  1  0
  3  6  2  0
  6  5  1  0
  5  4  2  0
  4  1  1  0
  7  8  2  0
  8  9  1  0
  9 11  1  0
 11 12  1  0
 12 13  2  0
 13  7  1  0
 16 17  2  0
 17 18  1  0
 18 19  2  0
 19 20  1  0
 20 21  2  0
 21 16  1  0
M  END
$$$$
