No_4366-complexes_sdf/6BKW-FPZ/2024-09-17-14-21-01/
     RDKit          3D

 17 18  0  0  0  0  0  0  0  0999 V2000
   -7.2496    3.8871   27.4508 C   0  0  0  0  0  0  0  0  0  0  0  0
   -8.5096    4.0291   27.2770 C   0  0  0  0  0  0  0  0  0  0  0  0
   -9.2677    5.1714   27.5773 C   0  0  1  0  0  0  0  0  0  0  0  0
   -9.3517    2.7730   27.3663 C   0  0  0  0  0  0  0  0  0  0  0  0
   -8.7152    1.6342   27.3100 C   0  0  0  0  0  0  0  0  0  0  0  0
   -6.7535    2.6332   27.7448 C   0  0  0  0  0  0  0  0  0  0  0  0
   -7.3447    1.5264   27.4604 C   0  0  0  0  0  0  0  0  0  0  0  0
   -8.5023    6.4048   27.5544 C   0  0  0  0  0  0  0  0  0  0  0  0
   -6.5276    0.2601   27.5405 C   0  0  0  0  0  0  0  0  0  0  0  0
   -5.2874    0.2705   27.8925 C   0  0  0  0  0  0  0  0  0  0  0  0
   -4.4977   -0.9146   27.9642 C   0  0  0  0  0  0  0  0  0  0  0  0
   -5.0558   -2.0644   27.5483 C   0  0  0  0  0  0  0  0  0  0  0  0
   -6.9700   -0.9748   27.0989 C   0  0  0  0  0  0  0  0  0  0  0  0
   -6.3083   -2.0896   27.1107 C   0  0  0  0  0  0  0  0  0  0  0  0
  -10.6601    5.2396   27.8031 C   0  0  0  0  0  0  0  0  0  0  0  0
   -8.1089    6.9289   26.3098 C   0  0  0  0  0  0  0  0  0  0  0  0
  -11.4240    4.1065   28.0507 C   0  0  0  0  0  0  0  0  0  0  0  0
  2  3  1  0
  3  8  1  6
  7  9  1  0
  3 15  1  0
  8 16  1  0
 15 17  2  0
  1  2  2  0
  2  4  1  0
  4  5  2  0
  5  7  1  0
  7  6  2  0
  6  1  1  0
  9 10  2  0
 10 11  1  0
 11 12  2  0
 12 14  1  0
 14 13  2  0
 13  9  1  0
M  END
$$$$
