No_4107-complexes_sdf/6BKW-FPZ/2024-09-17-14-21-01/
     RDKit          3D

  9  9  0  0  0  0  0  0  0  0999 V2000
   -7.9040    3.9820   27.1177 C   0  0  0  0  0  0  0  0  0  0  0  0
   -7.8663    4.8694   27.9238 C   0  0  0  0  0  0  0  0  0  0  0  0
   -9.0806    3.1428   27.1220 C   0  0  0  0  0  0  0  0  0  0  0  0
  -10.0227    3.4873   27.6685 C   0  0  0  0  0  0  0  0  0  0  0  0
  -10.1477    4.7268   28.4729 C   0  0  0  0  0  0  0  0  0  0  0  0
   -8.9684    5.4498   28.5292 C   0  0  0  0  0  0  0  0  0  0  0  0
   -8.9756    1.8530   26.3188 C   0  0  0  0  0  0  0  0  0  0  0  0
   -8.4387    0.7409   26.8480 C   0  0  0  0  0  0  0  0  0  0  0  0
   -8.3795   -0.4765   26.1458 C   0  0  0  0  0  0  0  0  0  0  0  0
  3  7  1  0
  7  8  2  3
  8  9  1  0
  1  2  2  0
  2  6  1  0
  6  5  2  0
  5  4  1  0
  4  3  2  0
  3  1  1  0
M  END
$$$$
