No_4091-complexes_sdf/6BKW-FPZ/2024-09-17-14-21-01/
     RDKit          3D

 13 14  0  0  0  0  0  0  0  0999 V2000
   -7.9040    3.9820   27.1177 C   0  0  0  0  0  0  0  0  0  0  0  0
   -9.0711    4.3164   27.0630 C   0  0  0  0  0  0  0  0  0  0  0  0
   -9.9692    3.7224   26.1073 C   0  0  0  0  0  0  0  0  0  0  0  0
   -6.9787    4.6761   28.1003 C   0  0  0  0  0  0  0  0  0  0  0  0
   -9.4538    2.6801   25.3673 C   0  0  0  0  0  0  0  0  0  0  0  0
   -8.1927    2.1957   25.6621 C   0  0  0  0  0  0  0  0  0  0  0  0
   -7.4333    2.8255   26.6299 C   0  0  0  0  0  0  0  0  0  0  0  0
  -10.3066    1.9975   24.3777 C   0  0  0  0  0  0  0  0  0  0  0  0
   -9.7680    1.0924   23.6436 C   0  0  0  0  0  0  0  0  0  0  0  0
   -8.5048    0.4472   24.0209 C   0  0  0  0  0  0  0  0  0  0  0  0
   -7.7457    1.0371   24.9568 C   0  0  0  0  0  0  0  0  0  0  0  0
   -7.0329    5.6855   28.4806 N   0  0  0  0  0  0  0  0  0  0  0  0
   -5.6745    4.0539   28.1824 N   0  0  0  0  0  0  0  0  0  0  0  0
  1  4  1  0
  4 12  2  0
  4 13  1  0
  6 11  1  0
 11 10  2  0
 10  9  1  0
  9  8  2  0
  8  5  1  0
  1  2  2  0
  2  3  1  0
  3  5  2  0
  5  6  1  0
  6  7  2  0
  7  1  1  0
M  END
$$$$
