No_4698-complexes_sdf/6BKW-FPZ/2024-09-17-14-21-01/
     RDKit          3D

 20 23  0  0  0  0  0  0  0  0999 V2000
   -7.9040    3.9820   27.1177 C   0  0  0  0  0  0  0  0  0  0  0  0
   -8.2057    2.8231   26.8733 C   0  0  0  0  0  0  0  0  0  0  0  0
   -7.0130    4.3706   28.1140 C   0  0  0  0  0  0  0  0  0  0  0  0
   -9.3829    2.4374   26.1668 C   0  0  0  0  0  0  0  0  0  0  0  0
  -10.0975    3.4171   25.5988 C   0  0  0  0  0  0  0  0  0  0  0  0
   -9.7335    4.7745   25.7705 C   0  0  0  0  0  0  0  0  0  0  0  0
   -8.7317    5.1107   26.5933 C   0  0  0  0  0  0  0  0  0  0  0  0
   -8.3983    6.4679   26.8933 C   0  0  0  0  0  0  0  0  0  0  0  0
   -7.3346    6.7850   27.7126 C   0  0  0  0  0  0  0  0  0  0  0  0
   -6.7432    5.7302   28.3820 C   0  0  0  0  0  0  0  0  0  0  0  0
   -7.4314    1.6395   27.4609 C   0  0  0  0  0  0  0  0  0  0  0  0
   -7.7578    0.2964   27.1814 C   0  0  0  0  0  0  0  0  0  0  0  0
   -9.6503    1.1012   25.8085 C   0  0  0  0  0  0  0  0  0  0  0  0
   -8.8629    0.0606   26.4023 C   0  0  0  0  0  0  0  0  0  0  0  0
  -11.2019    3.1610   24.6400 C   0  0  0  0  0  0  0  0  0  0  0  0
  -12.4071    2.9056   25.1178 C   0  0  0  0  0  0  0  0  0  0  0  0
  -10.9079    3.0572   23.2570 C   0  0  0  0  0  0  0  0  0  0  0  0
  -11.8188    2.8383   22.3062 C   0  0  0  0  0  0  0  0  0  0  0  0
  -13.4789    2.7475   24.1675 C   0  0  0  0  0  0  0  0  0  0  0  0
  -13.1600    2.7082   22.7908 C   0  0  0  0  0  0  0  0  0  0  0  0
  5 15  1  0
  4 13  2  0
 13 14  1  0
 14 12  2  0
 12 11  1  0
 11  2  2  0
  1  3  2  0
  3 10  1  0
 10  9  2  0
  9  8  1  0
  8  7  2  0
  1  2  1  0
  2  4  1  0
  4  5  1  0
  5  6  2  0
  6  7  1  0
  7  1  1  0
 15 16  2  0
 16 19  1  0
 19 20  2  0
 20 18  1  0
 18 17  2  0
 17 15  1  0
M  END
$$$$
