No_4057-complexes_sdf/6BKW-FPZ/2024-09-17-14-21-01/
     RDKit          3D

 14 15  0  0  0  0  0  0  0  0999 V2000
   -7.9040    3.9820   27.1177 C   0  0  0  0  0  0  0  0  0  0  0  0
   -8.2057    2.8231   26.8733 C   0  0  0  0  0  0  0  0  0  0  0  0
   -8.7695    5.0740   26.7916 C   0  0  0  0  0  0  0  0  0  0  0  0
   -9.9618    4.7598   26.1630 C   0  0  0  0  0  0  0  0  0  0  0  0
   -9.4200    2.4524   26.2849 C   0  0  0  0  0  0  0  0  0  0  0  0
  -10.2590    3.4815   25.9250 C   0  0  0  0  0  0  0  0  0  0  0  0
   -8.6074    6.4894   27.1095 C   0  0  0  0  0  0  0  0  0  0  0  0
   -7.9194    7.5175   26.8830 N   0  0  0  0  0  0  0  0  0  0  0  0
   -7.2414    1.6888   27.2628 C   0  0  0  0  0  0  0  0  0  0  0  0
   -5.9981    2.0223   27.8394 C   0  0  0  0  0  0  0  0  0  0  0  0
   -5.0973    0.9524   28.1904 C   0  0  0  0  0  0  0  0  0  0  0  0
   -5.4946   -0.3370   28.0891 C   0  0  0  0  0  0  0  0  0  0  0  0
   -7.3365    0.2961   27.3144 C   0  0  0  0  0  0  0  0  0  0  0  0
   -6.6630   -0.6443   27.7142 C   0  0  0  0  0  0  0  0  0  0  0  0
  3  7  1  0
  7  8  3  0
  2  9  1  0
  1  2  2  0
  2  5  1  0
  5  6  2  0
  6  4  1  0
  4  3  2  0
  3  1  1  0
  9 10  2  0
 10 11  1  0
 11 12  2  0
 12 14  1  0
 14 13  2  0
 13  9  1  0
M  END
$$$$
