No_4513-complexes_sdf/6BKW-FPZ/2024-09-17-14-21-01/
     RDKit          3D

 15 16  0  0  0  0  0  0  0  0999 V2000
   -7.2496    3.8871   27.4508 C   0  0  0  0  0  0  0  0  0  0  0  0
   -7.9379    4.9063   27.8518 C   0  0  0  0  0  0  0  0  0  0  0  0
   -7.5112    6.1898   27.6280 C   0  0  0  0  0  0  0  0  0  0  0  0
   -8.9846    4.6859   28.4892 C   0  0  0  0  0  0  0  0  0  0  0  0
   -7.6802    2.5416   27.3314 C   0  0  0  0  0  0  0  0  0  0  0  0
   -9.7174    3.4274   28.4911 C   0  0  0  0  0  0  0  0  0  0  0  0
   -8.9934    2.4228   27.8870 C   0  0  0  0  0  0  0  0  0  0  0  0
   -9.5643    0.9928   27.8397 C   0  0  0  0  0  0  0  0  0  0  0  0
   -8.7318   -0.0093   27.4613 C   0  0  0  0  0  0  0  0  0  0  0  0
   -9.2865   -1.3070   27.4702 C   0  0  0  0  0  0  0  0  0  0  0  0
  -10.6334   -1.4696   27.8683 C   0  0  0  0  0  0  0  0  0  0  0  0
  -10.8179    0.6403   28.1444 C   0  0  0  0  0  0  0  0  0  0  0  0
  -11.3794   -0.4736   28.2207 C   0  0  0  0  0  0  0  0  0  0  0  0
   -7.7200    7.2656   26.8732 N   0  0  0  0  0  0  0  0  0  0  0  0
   -8.8807    7.1769   26.1934 C   0  0  0  0  0  0  0  0  0  0  0  0
  2  3  1  0
  7  8  1  0
  3 14  2  3
 14 15  1  0
  1  2  2  0
  2  4  1  0
  4  6  2  0
  6  7  1  0
  7  5  2  0
  5  1  1  0
  8  9  2  0
  9 10  1  0
 10 11  2  0
 11 13  1  0
 13 12  2  0
 12  8  1  0
M  END
$$$$
