No_4833-complexes_sdf/6BKW-FPZ/2024-09-17-14-21-01/
     RDKit          3D

 12 13  0  0  0  0  0  0  0  0999 V2000
   -7.7129    4.2099   27.0854 C   0  0  0  0  0  0  0  0  0  0  0  0
   -8.2112    3.0637   26.9225 C   0  0  0  0  0  0  0  0  0  0  0  0
   -9.4446    2.8304   26.1868 C   0  0  0  0  0  0  0  0  0  0  0  0
   -8.4697    5.3956   26.7238 C   0  0  0  0  0  0  0  0  0  0  0  0
   -9.5563    5.2213   26.2062 C   0  0  0  0  0  0  0  0  0  0  0  0
  -10.0878    4.0183   25.8507 C   0  0  0  0  0  0  0  0  0  0  0  0
   -7.4498    1.7854   27.2937 C   0  0  0  0  0  0  0  0  0  0  0  0
   -7.9508    0.5388   27.2171 C   0  0  0  0  0  0  0  0  0  0  0  0
   -7.1958   -0.5159   27.5983 C   0  0  0  0  0  0  0  0  0  0  0  0
   -5.8720   -0.3237   28.0365 C   0  0  0  0  0  0  0  0  0  0  0  0
   -5.3343    0.9624   28.0888 C   0  0  0  0  0  0  0  0  0  0  0  0
   -6.0545    1.9945   27.7194 C   0  0  0  0  0  0  0  0  0  0  0  0
  2  7  1  0
  1  2  2  0
  2  3  1  0
  3  6  2  0
  6  5  1  0
  5  4  2  0
  4  1  1  0
  7  8  2  0
  8  9  1  0
  9 10  2  0
 10 11  1  0
 11 12  2  0
 12  7  1  0
M  END
$$$$
