No_4354-complexes_sdf/6BKW-FPZ/2024-09-17-14-21-01/
     RDKit          3D

 40 44  0  0  0  0  0  0  0  0999 V2000
   -7.9040    3.9820   27.1177 C   0  0  0  0  0  0  0  0  0  0  0  0
   -8.2057    2.8231   26.8733 C   0  0  0  0  0  0  0  0  0  0  0  0
   -7.4766    1.7477   27.4593 C   0  0  0  0  0  0  0  0  0  0  0  0
   -8.7468    5.1251   26.6967 C   0  0  0  0  0  0  0  0  0  0  0  0
   -9.6471    4.9075   26.0510 C   0  0  0  0  0  0  0  0  0  0  0  0
  -10.0309    3.6580   25.5399 C   0  0  0  0  0  0  0  0  0  0  0  0
   -9.2845    2.5302   26.0222 C   0  0  0  0  0  0  0  0  0  0  0  0
   -7.9124    0.4542   27.3585 N   0  0  0  0  0  0  0  0  0  0  0  0
   -9.1039    0.1291   27.4226 C   0  0  0  0  0  0  0  0  0  0  0  0
   -6.2124    1.9830   27.7312 O   0  0  0  0  0  0  0  0  0  0  0  0
   -9.4193   -1.2239   27.8470 C   0  0  0  0  0  0  0  0  0  0  0  0
   -8.2938    6.5242   27.1373 C   0  0  0  0  0  0  0  0  0  0  0  0
   -8.6813    7.6169   26.5657 N   0  0  0  0  0  0  0  0  0  0  0  0
   -7.2958    6.5536   28.0388 O   0  0  0  0  0  0  0  0  0  0  0  0
   -8.3775   -1.9385   28.2683 C   0  0  0  0  0  0  0  0  0  0  0  0
   -7.1049   -0.6152   27.8699 C   0  0  0  0  0  0  0  0  0  0  0  0
  -10.6742   -1.3254   28.6547 C   0  0  0  0  0  0  0  0  0  0  0  0
  -10.8842   -2.3209   29.3554 N   0  0  0  0  0  0  0  0  0  0  0  0
  -11.7322   -0.4700   28.4170 N   0  0  0  0  0  0  0  0  0  0  0  0
  -12.8702   -0.6806   29.1055 C   0  0  0  0  0  0  0  0  0  0  0  0
  -12.0213   -2.5915   30.0724 C   0  0  0  0  0  0  0  0  0  0  0  0
  -13.0845   -1.7065   29.8917 C   0  0  0  0  0  0  0  0  0  0  0  0
  -11.1324    3.4418   24.6149 C   0  0  0  0  0  0  0  0  0  0  0  0
  -12.3746    3.2535   25.0366 C   0  0  0  0  0  0  0  0  0  0  0  0
  -10.8625    3.4417   23.2143 C   0  0  0  0  0  0  0  0  0  0  0  0
  -11.8427    3.3193   22.2683 C   0  0  0  0  0  0  0  0  0  0  0  0
  -13.4474    3.1039   24.1107 C   0  0  0  0  0  0  0  0  0  0  0  0
  -13.1606    3.1549   22.7381 C   0  0  0  0  0  0  0  0  0  0  0  0
  -13.9632    0.3600   28.8275 C   0  0  0  0  0  0  0  0  0  0  0  0
  -13.6636    1.4357   28.6815 O   0  0  0  0  0  0  0  0  0  0  0  0
  -15.1432   -0.0614   28.9257 O   0  0  0  0  0  0  0  0  0  0  0  0
   -7.9630   -3.0410   28.7386 C   0  0  0  0  0  0  0  0  0  0  0  0
   -7.9683   -4.2794   28.0997 C   0  0  0  0  0  0  0  0  0  0  0  0
   -7.5022   -3.0426   30.1604 C   0  0  0  0  0  0  0  0  0  0  0  0
   -7.1969   -4.1965   30.8675 C   0  0  0  0  0  0  0  0  0  0  0  0
   -7.2651   -5.3836   30.1266 C   0  0  0  0  0  0  0  0  0  0  0  0
   -7.6517   -5.4151   28.8027 C   0  0  0  0  0  0  0  0  0  0  0  0
   -7.7483   -6.6910   28.1161 C   0  0  0  0  0  0  0  0  0  0  0  0
   -8.5284   -7.1747   27.5347 O   0  0  0  0  0  0  0  0  0  0  0  0
   -6.3923   -7.3136   27.9452 N   0  0  0  0  0  0  0  0  0  0  0  0
  2  3  1  0
  3  8  1  0
  8  9  1  0
  3 10  2  0
  9 11  2  0
  4 12  1  0
 12 13  1  0
 12 14  2  0
 11 15  1  0
  8 16  1  0
 15 16  1  0
 11 17  1  0
  6 23  1  0
 20 29  1  0
 29 30  1  0
 29 31  2  0
 15 32  1  0
 37 38  1  0
 38 39  2  0
 38 40  1  0
 17 18  2  0
 18 21  1  0
 21 22  2  0
 22 20  1  0
 20 19  2  0
 19 17  1  0
 23 24  2  0
 24 27  1  0
 27 28  2  0
 28 26  1  0
 26 25  2  0
 25 23  1  0
  1  2  2  0
  2  7  1  0
  7  6  2  0
  6  5  1  0
  5  4  2  0
  4  1  1  0
 32 33  2  0
 33 37  1  0
 37 36  2  0
 36 35  1  0
 35 34  2  0
 34 32  1  0
M  END
$$$$
