No_4176-complexes_sdf/6BKW-FPZ/2024-09-17-14-21-01/
     RDKit          3D

 11 11  0  0  0  0  0  0  0  0999 V2000
   -7.2496    3.8871   27.4508 C   0  0  0  0  0  0  0  0  0  0  0  0
   -7.6161    2.7143   27.1523 C   0  0  0  0  0  0  0  0  0  0  0  0
   -7.1619    1.8631   27.5232 C   0  0  0  0  0  0  0  0  0  0  0  0
   -5.9773    4.1571   28.0182 C   0  0  0  0  0  0  0  0  0  0  0  0
   -7.6328    0.4374   27.2316 C   0  0  0  0  0  0  0  0  0  0  0  0
   -5.6675    5.7261   28.4934 Cl  0  0  0  0  0  0  0  0  0  0  0  0
   -8.7258    0.4262   26.8614 C   0  0  0  0  0  0  0  0  0  0  0  0
   -9.6157    1.4669   26.6013 C   0  0  0  0  0  0  0  0  0  0  0  0
   -9.0457    2.6840   26.7795 C   0  0  0  0  0  0  0  0  0  0  0  0
   -8.0806    5.1420   27.2274 C   0  0  0  0  0  0  0  0  0  0  0  0
   -7.9429    6.2607   27.9162 C   0  0  0  0  0  0  0  0  0  0  0  0
  1  2  1  0
  1  4  1  0
  4  6  1  0
  1 10  1  0
 10 11  1  0
  2  3  2  0
  3  5  1  0
  5  7  2  0
  7  8  1  0
  8  9  2  0
  9  2  1  0
M  END
$$$$
