No_4092-complexes_sdf/6BKW-FPZ/2024-09-17-14-21-01/
     RDKit          3D

 23 25  0  0  0  0  0  0  0  0999 V2000
   -7.7129    4.2099   27.0854 C   0  0  0  0  0  0  0  0  0  0  0  0
   -8.2112    3.0637   26.9225 C   0  0  0  0  0  0  0  0  0  0  0  0
   -9.4446    2.8304   26.1868 C   0  0  0  0  0  0  0  0  0  0  0  0
   -8.4697    5.3956   26.7238 C   0  0  0  0  0  0  0  0  0  0  0  0
   -9.6172    5.2111   25.9513 C   0  0  0  0  0  0  0  0  0  0  0  0
  -10.0424    3.9782   25.6873 C   0  0  0  0  0  0  0  0  0  0  0  0
   -7.8256    6.9333   27.0525 Cl  0  0  0  0  0  0  0  0  0  0  0  0
   -7.2972    1.9459   27.4722 C   0  0  0  0  0  0  0  0  0  0  0  0
   -6.0599    2.1474   27.5989 N   0  0  0  0  0  0  0  0  0  0  0  0
   -5.2446    1.1084   28.0472 C   0  0  0  0  0  0  0  0  0  0  0  0
   -5.4252   -0.0215   27.8746 C   0  0  0  0  0  0  0  0  0  0  0  0
   -7.6852    0.5701   27.2279 C   0  0  0  0  0  0  0  0  0  0  0  0
   -6.8416   -0.4134   27.6122 C   0  0  0  0  0  0  0  0  0  0  0  0
   -4.5550   -1.1397   28.3229 C   0  0  0  0  0  0  0  0  0  0  0  0
   -4.6808   -2.3112   29.0633 Cl  0  0  0  0  0  0  0  0  0  0  0  0
   -3.1429   -0.8698   27.7316 C   0  0  0  0  0  0  0  0  0  0  0  0
   -2.5288   -1.7026   27.2952 C   0  0  0  0  0  0  0  0  0  0  0  0
  -11.4503    3.8076   24.7368 Cl  0  0  0  0  0  0  0  0  0  0  0  0
   -2.2502   -1.9843   26.1552 C   0  0  0  0  0  0  0  0  0  0  0  0
   -1.7010   -2.8264   25.5489 C   0  0  0  0  0  0  0  0  0  0  0  0
   -1.1448   -3.9182   26.3105 C   0  0  0  0  0  0  0  0  0  0  0  0
   -1.2585   -3.7989   27.6490 C   0  0  0  0  0  0  0  0  0  0  0  0
   -1.9142   -2.7495   28.1718 C   0  0  0  0  0  0  0  0  0  0  0  0
  4  7  1  0
  2  8  1  0
 11 14  1  0
 14 15  1  0
 14 16  1  0
 16 17  1  0
  6 18  1  0
 17 19  2  0
 19 20  1  0
 20 21  2  0
 21 22  1  0
 22 23  2  0
 23 17  1  0
  1  2  2  0
  2  3  1  0
  3  6  2  0
  6  5  1  0
  5  4  2  0
  4  1  1  0
  8  9  2  0
  9 10  1  0
 10 11  2  0
 11 13  1  0
 13 12  2  0
 12  8  1  0
M  END
$$$$
