No_4280-complexes_sdf/6BKW-FPZ/2024-09-17-14-21-01/
     RDKit          3D

 32 38  0  0  0  0  0  0  0  0999 V2000
   -7.7129    4.2099   27.0854 C   0  0  0  0  0  0  0  0  0  0  0  0
   -7.7814    5.1722   27.8972 C   0  0  0  0  0  0  0  0  0  0  0  0
   -7.2983    2.9533   27.5684 C   0  0  0  0  0  0  0  0  0  0  0  0
   -7.6908    1.8111   26.9553 C   0  0  0  0  0  0  0  0  0  0  0  0
   -7.2237    0.5782   27.3450 C   0  0  0  0  0  0  0  0  0  0  0  0
   -7.9192   -0.5866   27.0520 C   0  0  0  0  0  0  0  0  0  0  0  0
   -9.0161   -0.3845   26.4998 C   0  0  0  0  0  0  0  0  0  0  0  0
   -9.6087    0.7556   26.0069 C   0  0  0  0  0  0  0  0  0  0  0  0
  -10.7821    0.9279   25.3114 C   0  0  0  0  0  0  0  0  0  0  0  0
   -8.8436    1.9282   26.3147 C   0  0  0  0  0  0  0  0  0  0  0  0
   -8.5418    6.3758   27.5744 C   0  0  0  0  0  0  0  0  0  0  0  0
   -8.6423    6.7088   26.2591 C   0  0  0  0  0  0  0  0  0  0  0  0
   -9.1238    5.5943   25.4452 C   0  0  0  0  0  0  0  0  0  0  0  0
   -8.4942    4.3088   25.8804 C   0  0  0  0  0  0  0  0  0  0  0  0
   -9.1599    3.0702   25.4611 C   0  0  1  0  0  0  0  0  0  0  0  0
  -11.1424   -0.0244   24.5324 C   0  0  0  0  0  0  0  0  0  0  0  0
  -12.3376    0.0549   23.7339 C   0  0  0  0  0  0  0  0  0  0  0  0
  -13.0337    1.2164   23.7980 C   0  0  0  0  0  0  0  0  0  0  0  0
  -12.6552    2.2746   24.5803 C   0  0  0  0  0  0  0  0  0  0  0  0
  -11.5250    2.1704   25.3467 C   0  0  0  0  0  0  0  0  0  0  0  0
   -8.7924    2.9711   24.0206 C   0  0  0  0  0  0  0  0  0  0  0  0
  -10.5735    3.3508   25.5907 N   0  0  0  0  0  0  0  0  0  0  0  0
   -5.8915    0.5148   28.1267 C   0  0  0  0  0  0  0  0  0  0  0  0
   -5.4128   -0.6546   28.7553 C   0  0  0  0  0  0  0  0  0  0  0  0
   -4.1749   -0.5102   29.4585 C   0  0  0  0  0  0  0  0  0  0  0  0
   -3.4591    0.7108   29.3631 C   0  0  0  0  0  0  0  0  0  0  0  0
   -4.9983    1.6081   28.1926 C   0  0  0  0  0  0  0  0  0  0  0  0
   -3.8404    1.6444   28.7997 N   0  0  0  0  0  0  0  0  0  0  0  0
   -3.7270   -1.7212   30.2072 C   0  0  0  0  0  0  0  0  0  0  0  0
   -4.3339   -2.6840   30.2876 C   0  0  0  0  0  0  0  0  0  0  0  0
   -5.6835   -2.7744   29.7239 C   0  0  0  0  0  0  0  0  0  0  0  0
   -6.1590   -1.7301   28.9744 C   0  0  0  0  0  0  0  0  0  0  0  0
  1  3  1  0
  3  4  1  0
  8  9  1  0
 10 15  1  0
 14 15  1  0
 15 21  1  6
 15 22  1  0
 20 22  1  0
  5 23  1  0
  1  2  2  0
  2 11  1  0
 11 12  2  0
 12 13  1  0
 13 14  2  0
 14  1  1  0
 23 24  2  0
 25 26  2  0
 26 28  1  0
 28 27  2  0
 27 23  1  0
 24 25  1  0
 25 29  1  0
 29 30  2  0
 30 31  1  0
 31 32  2  0
 32 24  1  0
  4  5  2  0
  5  6  1  0
  6  7  2  0
  7  8  1  0
  8 10  2  0
 10  4  1  0
  9 16  2  0
 16 17  1  0
 17 18  2  0
 18 19  1  0
 19 20  2  0
 20  9  1  0
M  END
$$$$
