No_4965-complexes_sdf/6BKW-FPZ/2024-09-17-14-21-01/
     RDKit          3D

 27 31  0  0  0  0  0  0  0  0999 V2000
   -7.9040    3.9820   27.1177 C   0  0  0  0  0  0  0  0  0  0  0  0
   -7.8663    4.8694   27.9238 C   0  0  0  0  0  0  0  0  0  0  0  0
   -9.0806    3.1428   27.1220 C   0  0  2  0  0  0  0  0  0  0  0  0
   -8.9544    1.8782   26.5467 C   0  0  0  0  0  0  0  0  0  0  0  0
   -8.9948    5.7403   28.1705 C   0  0  0  0  0  0  0  0  0  0  0  0
   -9.9359    1.0372   26.4454 C   0  0  0  0  0  0  0  0  0  0  0  0
  -10.3070    5.0866   28.0066 C   0  0  0  0  0  0  0  0  0  0  0  0
  -10.2595    3.8463   27.2798 C   0  0  2  0  0  0  0  0  0  0  0  0
   -9.7370   -0.2674   26.2200 C   0  0  0  0  0  0  0  0  0  0  0  0
  -11.4489    3.0274   27.2740 C   0  0  2  0  0  0  0  0  0  0  0  0
  -11.2867    1.6020   26.9551 C   0  0  0  0  0  0  0  0  0  0  0  0
   -8.6760   -0.6505   25.5936 C   0  0  0  0  0  0  0  0  0  0  0  0
   -7.5044    0.1917   25.5443 C   0  0  0  0  0  0  0  0  0  0  0  0
   -7.5767    1.4510   26.2097 C   0  0  0  0  0  0  0  0  0  0  0  0
  -12.4385    3.6176   26.2219 C   0  0  0  0  0  0  0  0  0  0  0  0
  -12.1889    3.0665   28.7360 C   0  0  0  0  0  0  0  0  0  0  0  0
  -12.2667    0.7802   27.0337 O   0  0  0  0  0  0  0  0  0  0  0  0
  -13.4856    3.5913   28.7523 C   0  0  2  0  0  0  0  0  0  0  0  0
  -14.1071    4.0744   27.7091 C   0  0  0  0  0  0  0  0  0  0  0  0
  -13.6324    4.1032   26.4636 C   0  0  0  0  0  0  0  0  0  0  0  0
  -14.0830    3.6347   30.1661 C   0  0  0  0  0  0  0  0  0  0  0  0
  -15.0429    4.4606   30.5588 C   0  0  0  0  0  0  0  0  0  0  0  0
  -15.5180    4.4594   31.8253 C   0  0  0  0  0  0  0  0  0  0  0  0
  -14.9999    3.5827   32.7981 C   0  0  0  0  0  0  0  0  0  0  0  0
  -13.5303    2.7344   31.1746 C   0  0  0  0  0  0  0  0  0  0  0  0
  -13.9979    2.7290   32.4334 C   0  0  0  0  0  0  0  0  0  0  0  0
   -6.7054    5.5334   28.3509 O   0  0  0  0  0  0  0  0  0  0  0  0
  1  2  1  0
  3  1  1  6
  3  4  1  0
  2  5  1  0
  5  7  1  0
  3  8  1  0
  8  7  1  1
  8 10  1  0
  6 11  1  0
 10 11  1  0
 10 15  1  6
 10 16  1  0
 11 17  2  0
 16 18  1  0
 19 20  1  0
 18 21  1  1
  2 27  2  0
 15 20  1  0
 19 18  1  0
  4  6  2  0
  6  9  1  0
  9 12  2  0
 12 13  1  0
 13 14  2  0
 14  4  1  0
 21 22  2  0
 22 23  1  0
 23 24  2  0
 24 26  1  0
 26 25  2  0
 25 21  1  0
M  END
$$$$
