No_4024-complexes_sdf/6BKW-FPZ/2024-09-17-14-21-01/
     RDKit          3D

 40 44  0  0  0  0  0  0  0  0999 V2000
   -7.7129    4.2099   27.0854 C   0  0  0  0  0  0  0  0  0  0  0  0
   -7.7814    5.1722   27.8972 C   0  0  0  0  0  0  0  0  0  0  0  0
   -8.8998    3.8713   26.3707 C   0  0  0  0  0  0  0  0  0  0  0  0
   -9.9938    4.6774   26.5446 C   0  0  0  0  0  0  0  0  0  0  0  0
   -8.7789    6.1536   27.9256 C   0  0  0  0  0  0  0  0  0  0  0  0
   -9.9428    5.8398   27.2296 C   0  0  0  0  0  0  0  0  0  0  0  0
   -8.9019    2.7727   25.6295 F   0  0  0  0  0  0  0  0  0  0  0  0
  -11.0889    4.3743   25.7596 O   0  0  0  0  0  0  0  0  0  0  0  0
  -12.1869    3.9266   26.2674 C   0  0  0  0  0  0  0  0  0  0  0  0
  -12.3533    3.6440   27.5144 C   0  0  0  0  0  0  0  0  0  0  0  0
  -13.5558    3.1641   28.1113 C   0  0  0  0  0  0  0  0  0  0  0  0
  -14.6553    3.1110   27.2584 C   0  0  0  0  0  0  0  0  0  0  0  0
  -13.3199    3.8761   25.4443 C   0  0  0  0  0  0  0  0  0  0  0  0
  -14.5311    3.5078   25.9280 C   0  0  0  0  0  0  0  0  0  0  0  0
  -13.6523    2.7952   29.5431 C   0  0  0  0  0  0  0  0  0  0  0  0
  -13.9747    2.5567   30.4781 C   0  0  0  0  0  0  0  0  0  0  0  0
  -14.1597    2.3248   31.8643 C   0  0  0  0  0  0  0  0  0  0  0  0
  -15.0581    2.8171   32.6693 C   0  0  0  0  0  0  0  0  0  0  0  0
  -15.0966    2.4746   34.0756 C   0  0  0  0  0  0  0  0  0  0  0  0
  -14.1273    1.5669   34.5398 C   0  0  0  0  0  0  0  0  0  0  0  0
  -13.2010    1.0389   33.6592 C   0  0  0  0  0  0  0  0  0  0  0  0
  -13.1475    1.4217   32.4239 C   0  0  0  0  0  0  0  0  0  0  0  0
  -14.1837    1.1768   36.0258 C   0  0  0  0  0  0  0  0  0  0  0  0
  -13.6724    2.0824   36.8688 C   0  0  0  0  0  0  0  0  0  0  0  0
  -13.2896    1.7059   38.1196 C   0  0  0  0  0  0  0  0  0  0  0  0
  -13.5563    0.3499   38.5286 C   0  0  0  0  0  0  0  0  0  0  0  0
  -14.0452   -0.5333   37.6348 C   0  0  0  0  0  0  0  0  0  0  0  0
  -14.2284   -0.1664   36.3058 C   0  0  0  0  0  0  0  0  0  0  0  0
  -14.6141   -1.0694   35.4712 O   0  0  0  0  0  0  0  0  0  0  0  0
  -15.7816   -1.2460   35.0810 C   0  0  2  0  0  0  0  0  0  0  0  0
  -15.9371   -1.6344   33.7888 C   0  0  1  0  0  0  0  0  0  0  0  0
  -17.0825   -1.2613   33.1017 C   0  0  0  0  0  0  0  0  0  0  0  0
  -18.1955   -0.7894   33.8252 C   0  0  0  0  0  0  0  0  0  0  0  0
  -16.7849   -0.1076   35.3774 C   0  0  0  0  0  0  0  0  0  0  0  0
  -18.0999   -0.2424   35.0355 C   0  0  0  0  0  0  0  0  0  0  0  0
  -16.3488   -2.4088   35.9383 C   0  0  0  0  0  0  0  0  0  0  0  0
  -14.9155   -2.3080   33.0503 C   0  0  0  0  0  0  0  0  0  0  0  0
  -15.0054   -3.4479   32.6134 C   0  0  0  0  0  0  0  0  0  0  0  0
  -13.9470   -4.0445   31.8656 C   0  0  0  0  0  0  0  0  0  0  0  0
  -12.7652   -3.3542   31.6832 C   0  0  0  0  0  0  0  0  0  0  0  0
  3  7  1  0
  4  8  1  0
  8  9  1  0
 11 15  1  0
 15 16  3  0
 16 17  1  0
 20 23  1  0
 28 29  1  0
 29 30  1  0
 30 31  1  0
 32 33  1  0
 30 34  1  0
 33 35  1  0
 30 36  1  1
 31 37  1  0
 37 38  2  3
 38 39  1  0
 39 40  2  0
 31 32  1  6
 35 34  1  0
 23 24  2  0
 24 25  1  0
 25 26  2  0
 26 27  1  0
 27 28  2  0
 28 23  1  0
  9 10  2  0
 10 11  1  0
 11 12  2  0
 12 14  1  0
 14 13  2  0
 13  9  1  0
 17 18  2  0
 18 19  1  0
 19 20  2  0
 20 21  1  0
 21 22  2  0
 22 17  1  0
  1  2  2  0
  2  5  1  0
  5  6  2  0
  6  4  1  0
  4  3  2  0
  3  1  1  0
M  END
$$$$
