No_4587-complexes_sdf/6BKW-FPZ/2024-09-17-14-21-01/
     RDKit          3D

 32 36  0  0  0  0  0  0  0  0999 V2000
   -7.2496    3.8871   27.4508 C   0  0  0  0  0  0  0  0  0  0  0  0
   -8.5096    4.0291   27.2770 C   0  0  0  0  0  0  0  0  0  0  0  0
   -9.2669    5.1645   27.5845 C   0  0  0  0  0  0  0  0  0  0  0  0
   -8.4566    6.3212   27.8001 C   0  0  0  0  0  0  0  0  0  0  0  0
   -6.4744    5.0029   27.8552 C   0  0  0  0  0  0  0  0  0  0  0  0
   -7.1338    6.2312   27.9553 C   0  0  0  0  0  0  0  0  0  0  0  0
   -9.3614    2.7712   27.0027 C   0  0  0  0  0  0  0  0  0  0  0  0
  -10.6298    2.7269   27.2023 C   0  0  0  0  0  0  0  0  0  0  0  0
  -11.2653    3.9828   27.6843 C   0  0  0  0  0  0  0  0  0  0  0  0
  -10.6696    5.1239   27.7172 C   0  0  0  0  0  0  0  0  0  0  0  0
   -8.6271    1.5553   26.7176 C   0  0  0  0  0  0  0  0  0  0  0  0
   -8.5409    1.0608   25.7029 C   0  0  0  0  0  0  0  0  0  0  0  0
   -7.8069   -0.1741   25.3746 C   0  0  0  0  0  0  0  0  0  0  0  0
   -7.0714   -0.7311   26.4195 C   0  0  0  0  0  0  0  0  0  0  0  0
   -7.0631   -0.1531   27.6294 C   0  0  0  0  0  0  0  0  0  0  0  0
   -7.7874    0.9953   27.8618 C   0  0  0  0  0  0  0  0  0  0  0  0
   -9.4634    1.7368   24.1294 Br  0  0  0  0  0  0  0  0  0  0  0  0
  -12.8131    3.8858   27.7221 C   0  0  0  0  0  0  0  0  0  0  0  0
  -13.3970    4.2243   28.5082 C   0  0  0  0  0  0  0  0  0  0  0  0
  -14.8780    4.2495   28.6668 C   0  0  0  0  0  0  0  0  0  0  0  0
  -15.5155    3.6790   27.5954 C   0  0  0  0  0  0  0  0  0  0  0  0
  -13.7133    3.3782   26.6482 C   0  0  0  0  0  0  0  0  0  0  0  0
  -14.9185    3.2737   26.5941 C   0  0  0  0  0  0  0  0  0  0  0  0
  -17.0802    3.6481   27.7055 C   0  0  0  0  0  0  0  0  0  0  0  0
  -17.7457    3.7734   28.7674 C   0  0  0  0  0  0  0  0  0  0  0  0
  -19.1727    3.7615   28.8049 C   0  0  0  0  0  0  0  0  0  0  0  0
  -19.7987    3.5165   27.5940 C   0  0  0  0  0  0  0  0  0  0  0  0
  -19.0914    3.3649   26.4611 C   0  0  0  0  0  0  0  0  0  0  0  0
  -17.7193    3.4564   26.4471 C   0  0  0  0  0  0  0  0  0  0  0  0
  -21.2754    3.4235   27.5571 C   0  0  0  0  0  0  0  0  0  0  0  0
  -22.0102    3.7374   28.5990 C   0  0  0  0  0  0  0  0  0  0  0  0
  -21.2548    3.9906   29.8459 C   0  0  0  0  0  0  0  0  0  0  0  0
  7 11  1  0
 12 17  1  0
  9 18  1  0
 21 24  1  0
 27 30  1  0
 30 31  2  3
 31 32  1  0
 24 25  2  0
 25 26  1  0
 26 27  2  0
 27 28  1  0
 28 29  2  0
 29 24  1  0
  1  2  2  0
  3  4  2  0
  4  6  1  0
  6  5  2  0
  5  1  1  0
  2  3  1  0
  3 10  1  0
 10  9  2  0
  9  8  1  0
  8  7  2  0
  7  2  1  0
 11 12  2  0
 12 13  1  0
 13 14  2  0
 14 15  1  0
 15 16  2  0
 16 11  1  0
 18 19  2  0
 19 20  1  0
 20 21  2  0
 21 23  1  0
 23 22  2  0
 22 18  1  0
M  END
$$$$
