No_4988-complexes_sdf/6BKW-FPZ/2024-09-17-14-21-01/
     RDKit          3D

 13 14  0  0  0  0  0  0  0  0999 V2000
   -7.7129    4.2099   27.0854 C   0  0  0  0  0  0  0  0  0  0  0  0
   -7.7814    5.1722   27.8972 C   0  0  0  0  0  0  0  0  0  0  0  0
   -8.8255    3.2789   27.1191 C   0  0  0  0  0  0  0  0  0  0  0  0
   -8.7530    2.0643   26.3119 C   0  0  0  0  0  0  0  0  0  0  0  0
   -7.6193    1.3092   26.4290 C   0  0  0  0  0  0  0  0  0  0  0  0
   -9.0029    5.8383   28.2110 C   0  0  0  0  0  0  0  0  0  0  0  0
  -10.1982    5.1082   27.9555 C   0  0  0  0  0  0  0  0  0  0  0  0
  -10.0742    3.8676   27.3520 C   0  0  0  0  0  0  0  0  0  0  0  0
   -7.5352    0.0285   25.8742 C   0  0  0  0  0  0  0  0  0  0  0  0
   -6.5007   -0.7859   26.2484 C   0  0  0  0  0  0  0  0  0  0  0  0
   -5.4861   -0.3487   27.1278 C   0  0  0  0  0  0  0  0  0  0  0  0
   -5.6275    0.9014   27.7785 C   0  0  0  0  0  0  0  0  0  0  0  0
   -6.6469    1.6638   27.5250 C   0  0  0  0  0  0  0  0  0  0  0  0
  3  4  1  0
  4  5  1  0
  5  9  2  0
  9 10  1  0
 10 11  2  0
 11 12  1  0
 12 13  2  0
 13  5  1  0
  1  2  2  0
  2  6  1  0
  6  7  2  0
  7  8  1  0
  8  3  2  0
  3  1  1  0
M  END
$$$$
