No_4455-complexes_sdf/6BKW-FPZ/2024-09-17-14-21-01/
     RDKit          3D

 15 16  0  0  0  0  0  0  0  0999 V2000
   -7.7129    4.2099   27.0854 C   0  0  0  0  0  0  0  0  0  0  0  0
   -7.7814    5.1722   27.8972 C   0  0  0  0  0  0  0  0  0  0  0  0
   -8.8998    3.8713   26.3707 C   0  0  0  0  0  0  0  0  0  0  0  0
   -8.9563    2.6796   25.5490 C   0  0  0  0  0  0  0  0  0  0  0  0
   -8.8131    6.1334   27.9344 C   0  0  0  0  0  0  0  0  0  0  0  0
   -9.9804    5.8121   27.1929 C   0  0  0  0  0  0  0  0  0  0  0  0
   -9.9861    4.6836   26.4532 C   0  0  0  0  0  0  0  0  0  0  0  0
   -8.3357    1.4961   26.0703 C   0  0  0  0  0  0  0  0  0  0  0  0
   -8.3882    0.2953   25.3902 C   0  0  0  0  0  0  0  0  0  0  0  0
   -9.0085    0.3271   24.1355 C   0  0  0  0  0  0  0  0  0  0  0  0
   -9.5936    1.4698   23.6030 C   0  0  0  0  0  0  0  0  0  0  0  0
   -9.5290    2.6254   24.3242 C   0  0  0  0  0  0  0  0  0  0  0  0
  -10.3145    1.4385   22.0777 Cl  0  0  0  0  0  0  0  0  0  0  0  0
   -6.6782    5.5750   28.6573 O   0  0  0  0  0  0  0  0  0  0  0  0
   -7.8457   -0.7783   25.8411 F   0  0  0  0  0  0  0  0  0  0  0  0
  3  4  1  0
 11 13  1  0
  2 14  1  0
  9 15  1  0
  4  8  2  0
  8  9  1  0
  9 10  2  0
 10 11  1  0
 11 12  2  0
 12  4  1  0
  1  2  2  0
  2  5  1  0
  5  6  2  0
  6  7  1  0
  7  3  2  0
  3  1  1  0
M  END
$$$$
