No_4377-complexes_sdf/6BKW-FPZ/2024-09-17-14-21-01/
     RDKit          3D

 24 27  0  0  0  0  0  0  0  0999 V2000
   -7.9040    3.9820   27.1177 C   0  0  0  0  0  0  0  0  0  0  0  0
   -7.8663    4.8694   27.9238 C   0  0  0  0  0  0  0  0  0  0  0  0
   -9.0501    3.8017   26.2617 C   0  0  0  0  0  0  0  0  0  0  0  0
  -10.0189    4.7608   26.3707 C   0  0  0  0  0  0  0  0  0  0  0  0
   -8.6770    5.9780   27.9222 C   0  0  0  0  0  0  0  0  0  0  0  0
   -9.8040    5.8752   27.0958 C   0  0  0  0  0  0  0  0  0  0  0  0
   -9.1317    2.6414   25.4147 C   0  0  0  0  0  0  0  0  0  0  0  0
  -10.0093    2.7245   24.3328 C   0  0  0  0  0  0  0  0  0  0  0  0
  -10.7008    3.9135   24.1684 C   0  0  0  0  0  0  0  0  0  0  0  0
  -10.6812    5.0279   25.1929 N   0  0  0  0  0  0  0  0  0  0  0  0
  -11.8383    4.1261   22.9520 Cl  0  0  0  0  0  0  0  0  0  0  0  0
   -6.7636    2.6345   27.2789 Cl  0  0  0  0  0  0  0  0  0  0  0  0
  -10.1710    1.6870   23.4128 C   0  0  0  0  0  0  0  0  0  0  0  0
   -9.3307    0.5613   23.5145 C   0  0  0  0  0  0  0  0  0  0  0  0
   -8.7468    0.3318   24.6803 C   0  0  0  0  0  0  0  0  0  0  0  0
   -8.5267    1.4171   25.6364 C   0  0  0  0  0  0  0  0  0  0  0  0
   -7.9414   -0.9057   24.9070 C   0  0  0  0  0  0  0  0  0  0  0  0
   -7.5699   -1.2276   26.1684 C   0  0  0  0  0  0  0  0  0  0  0  0
   -6.1796   -1.3272   26.4262 C   0  0  0  0  0  0  0  0  0  0  0  0
   -5.5801   -1.4288   27.7351 C   0  0  0  0  0  0  0  0  0  0  0  0
   -6.5463   -1.5468   28.8331 C   0  0  0  0  0  0  0  0  0  0  0  0
   -7.9051   -1.4525   28.5315 C   0  0  0  0  0  0  0  0  0  0  0  0
   -8.3804   -1.2181   27.2613 C   0  0  0  0  0  0  0  0  0  0  0  0
   -7.6536   -1.6612   23.9629 O   0  0  0  0  0  0  0  0  0  0  0  0
  9 11  1  0
  1 12  1  0
 15 17  1  0
 17 18  1  0
 17 24  2  0
 18 19  2  0
 19 20  1  0
 20 21  2  0
 21 22  1  0
 22 23  2  0
 23 18  1  0
  4 10  2  0
 10  9  1  0
  9  8  2  0
  7  3  2  0
  1  2  2  0
  2  5  1  0
  5  6  2  0
  6  4  1  0
  4  3  1  0
  3  1  1  0
  7  8  1  0
  8 13  1  0
 13 14  2  0
 14 15  1  0
 15 16  2  0
 16  7  1  0
M  END
$$$$
