No_4249-complexes_sdf/6BKW-FPZ/2024-09-17-14-21-01/
     RDKit          3D

 30 34  0  0  0  0  0  0  0  0999 V2000
   -7.9040    3.9820   27.1177 C   0  0  0  0  0  0  0  0  0  0  0  0
   -7.8663    4.8694   27.9238 C   0  0  0  0  0  0  0  0  0  0  0  0
   -9.0501    3.8017   26.2617 C   0  0  0  0  0  0  0  0  0  0  0  0
   -9.1826    2.7026   25.3575 C   0  0  0  0  0  0  0  0  0  0  0  0
   -8.6940    6.0131   27.8614 C   0  0  0  0  0  0  0  0  0  0  0  0
   -9.9755    4.8547   26.2361 C   0  0  0  0  0  0  0  0  0  0  0  0
   -9.7463    5.9398   27.0364 C   0  0  0  0  0  0  0  0  0  0  0  0
  -10.0893    2.7801   24.3306 C   0  0  0  0  0  0  0  0  0  0  0  0
  -10.2628    1.6769   23.4896 C   0  0  0  0  0  0  0  0  0  0  0  0
   -9.3750    0.5340   23.6599 C   0  0  0  0  0  0  0  0  0  0  0  0
   -8.4136    1.4818   25.4230 C   0  0  0  0  0  0  0  0  0  0  0  0
   -8.4864    0.5055   24.6361 C   0  0  0  0  0  0  0  0  0  0  0  0
   -7.6366   -0.6858   24.7608 C   0  0  0  0  0  0  0  0  0  0  0  0
   -6.7900   -0.7406   25.8376 C   0  0  0  0  0  0  0  0  0  0  0  0
   -6.8315    0.2291   26.8266 C   0  0  0  0  0  0  0  0  0  0  0  0
   -7.5707    1.4057   26.6992 C   0  0  0  0  0  0  0  0  0  0  0  0
   -7.1985    2.7153   27.3652 N   0  0  0  0  0  0  0  0  0  0  0  0
   -5.9386    0.2013   28.0047 C   0  0  0  0  0  0  0  0  0  0  0  0
   -5.8577   -0.9082   28.7971 C   0  0  0  0  0  0  0  0  0  0  0  0
   -4.9583   -0.8801   29.9163 C   0  0  0  0  0  0  0  0  0  0  0  0
   -4.1040    0.2569   30.1097 C   0  0  0  0  0  0  0  0  0  0  0  0
   -4.9823    1.2688   28.2569 C   0  0  0  0  0  0  0  0  0  0  0  0
   -4.1321    1.2567   29.2856 N   0  0  0  0  0  0  0  0  0  0  0  0
   -3.2091    0.2637   31.1328 N   0  0  0  0  0  0  0  0  0  0  0  0
   -7.6841   -1.7787   23.8438 C   0  0  0  0  0  0  0  0  0  0  0  0
   -8.3974   -2.8440   24.0231 C   0  0  0  0  0  0  0  0  0  0  0  0
   -6.9107   -1.6142   22.6215 C   0  0  0  0  0  0  0  0  0  0  0  0
   -9.0423   -3.1657   25.1269 C   0  0  0  0  0  0  0  0  0  0  0  0
   -8.8398   -2.6401   26.2311 C   0  0  0  0  0  0  0  0  0  0  0  0
   -8.2001   -3.0546   27.1059 C   0  0  0  0  0  0  0  0  0  0  0  0
  3  4  1  0
  1 17  1  0
 16 17  1  0
 15 18  1  0
 21 24  1  0
 13 25  1  0
 25 26  1  0
 25 27  1  0
 26 28  1  0
 28 29  1  0
 29 30  2  0
 12 13  2  0
 13 14  1  0
 14 15  2  0
 15 16  1  0
 16 11  2  0
  4  8  2  0
  8  9  1  0
  9 10  2  0
 10 12  1  0
 12 11  1  0
 11  4  1  0
 18 19  2  0
 19 20  1  0
 20 21  2  0
 21 23  1  0
 23 22  2  0
 22 18  1  0
  1  2  2  0
  2  5  1  0
  5  7  2  0
  7  6  1  0
  6  3  2  0
  3  1  1  0
M  END
$$$$
