No_4022-complexes_sdf/6BKW-FPZ/2024-09-17-14-21-01/
     RDKit          3D

 21 24  0  0  0  0  0  0  0  0999 V2000
   -7.2496    3.8871   27.4508 C   0  0  0  0  0  0  0  0  0  0  0  0
   -7.6161    2.7143   27.1523 C   0  0  0  0  0  0  0  0  0  0  0  0
   -6.9719    1.5838   27.5324 C   0  0  0  0  0  0  0  0  0  0  0  0
   -7.4590    0.2827   27.2615 C   0  0  0  0  0  0  0  0  0  0  0  0
   -8.7521    2.5117   26.3068 C   0  0  0  0  0  0  0  0  0  0  0  0
   -9.5643    3.6334   25.9825 C   0  0  0  0  0  0  0  0  0  0  0  0
   -8.0314    5.1004   27.2112 C   0  0  0  0  0  0  0  0  0  0  0  0
   -9.1347    4.9790   26.3962 C   0  0  0  0  0  0  0  0  0  0  0  0
   -6.7177   -0.8019   27.6719 C   0  0  0  0  0  0  0  0  0  0  0  0
   -7.2723   -2.0937   27.6111 C   0  0  0  0  0  0  0  0  0  0  0  0
   -8.5718   -2.1905   27.1303 C   0  0  0  0  0  0  0  0  0  0  0  0
   -9.3085   -1.1013   26.7471 C   0  0  0  0  0  0  0  0  0  0  0  0
   -8.7979    0.1643   26.9242 C   0  0  0  0  0  0  0  0  0  0  0  0
   -9.4976    1.3428   26.4029 C   0  0  0  0  0  0  0  0  0  0  0  0
  -10.5927    3.6347   24.9881 C   0  0  0  0  0  0  0  0  0  0  0  0
  -11.8477    3.4906   25.4341 C   0  0  0  0  0  0  0  0  0  0  0  0
  -10.3112    3.6657   23.6127 C   0  0  0  0  0  0  0  0  0  0  0  0
  -11.2165    3.6916   22.6566 C   0  0  0  0  0  0  0  0  0  0  0  0
  -12.9200    3.5518   24.4814 C   0  0  0  0  0  0  0  0  0  0  0  0
  -10.9602    3.7986   21.2648 C   0  0  0  0  0  0  0  0  0  0  0  0
  -12.5997    3.6911   23.0995 C   0  0  0  0  0  0  0  0  0  0  0  0
  2  3  1  0
  3  4  1  0
  5 14  1  0
 13 14  1  0
  6 15  1  0
 18 20  1  0
  4  9  2  0
  9 10  1  0
 10 11  2  0
 11 12  1  0
 12 13  2  0
 13  4  1  0
 15 16  2  0
 16 19  1  0
 19 21  2  0
 21 18  1  0
 18 17  2  0
 17 15  1  0
  1  2  2  0
  2  5  1  0
  5  6  2  0
  6  8  1  0
  8  7  2  0
  7  1  1  0
M  END
$$$$
