No_4944-complexes_sdf/6BKW-FPZ/2024-09-17-14-21-01/
     RDKit          3D

 24 27  0  0  0  0  0  0  0  0999 V2000
   -7.7129    4.2099   27.0854 C   0  0  0  0  0  0  0  0  0  0  0  0
   -8.9133    4.4736   27.0998 C   0  0  0  0  0  0  0  0  0  0  0  0
   -9.7785    3.9136   27.0578 C   0  0  0  0  0  0  0  0  0  0  0  0
   -7.3514    2.8197   27.1958 C   0  0  0  0  0  0  0  0  0  0  0  0
   -8.4036    1.9410   27.1105 C   0  0  0  0  0  0  0  0  0  0  0  0
   -9.6711    2.4461   27.0888 C   0  0  0  0  0  0  0  0  0  0  0  0
   -9.0530    6.1164   27.0090 C   0  0  0  0  0  0  0  0  0  0  0  0
   -9.6806    6.5020   28.0098 F   0  0  0  0  0  0  0  0  0  0  0  0
   -7.7890    6.7442   27.0413 F   0  0  0  0  0  0  0  0  0  0  0  0
   -9.4757    6.4577   25.7905 F   0  0  0  0  0  0  0  0  0  0  0  0
   -8.1298    0.5138   27.1611 C   0  0  0  0  0  0  0  0  0  0  0  0
   -6.8760    0.0411   27.2458 C   0  0  0  0  0  0  0  0  0  0  0  0
   -5.7504    0.9178   27.4713 C   0  0  0  0  0  0  0  0  0  0  0  0
   -6.0038    2.3446   27.4935 C   0  0  0  0  0  0  0  0  0  0  0  0
   -4.4125    0.4757   27.6804 C   0  0  1  0  0  0  0  0  0  0  0  0
   -3.3507   -0.1488   26.4815 Br  0  0  0  0  0  0  0  0  0  0  0  0
   -3.8842    0.6258   28.9287 F   0  0  0  0  0  0  0  0  0  0  0  0
  -10.8928    1.6153   27.0769 C   0  0  0  0  0  0  0  0  0  0  0  0
  -12.1121    2.1341   27.2940 C   0  0  0  0  0  0  0  0  0  0  0  0
  -13.1983    1.2861   27.4689 C   0  0  0  0  0  0  0  0  0  0  0  0
  -12.9719   -0.1105   27.3870 C   0  0  0  0  0  0  0  0  0  0  0  0
  -11.7273   -0.6324   27.2419 C   0  0  0  0  0  0  0  0  0  0  0  0
  -10.6671    0.2041   27.1518 C   0  0  0  0  0  0  0  0  0  0  0  0
   -9.2946   -0.3213   27.1811 C   0  0  0  0  0  0  0  0  0  0  0  0
  2  7  1  0
  7  8  1  0
  7  9  1  0
  7 10  1  0
 13 15  1  0
 15 16  1  0
 15 17  1  6
  6 18  1  0
 11 24  1  0
 23 24  1  0
 18 19  2  0
 19 20  1  0
 20 21  2  0
 21 22  1  0
 22 23  2  0
 23 18  1  0
  1  2  2  0
  2  3  1  0
  3  6  2  0
  6  5  1  0
  4  1  1  0
  4  5  2  0
  5 11  1  0
 11 12  2  0
 12 13  1  0
 13 14  2  0
 14  4  1  0
M  END
$$$$
