No_4311-complexes_sdf/6BKW-FPZ/2024-09-17-14-21-01/
     RDKit          3D

 15 16  0  0  0  0  0  0  0  0999 V2000
   -7.9040    3.9820   27.1177 C   0  0  0  0  0  0  0  0  0  0  0  0
   -9.0711    4.3164   27.0630 C   0  0  0  0  0  0  0  0  0  0  0  0
   -9.5294    5.4517   27.7215 C   0  0  0  0  0  0  0  0  0  0  0  0
   -6.9328    4.7309   27.8881 C   0  0  0  0  0  0  0  0  0  0  0  0
   -7.3666    5.8455   28.5488 C   0  0  0  0  0  0  0  0  0  0  0  0
   -8.6669    6.2428   28.4199 C   0  0  0  0  0  0  0  0  0  0  0  0
   -9.8475    3.3042   26.2863 C   0  0  0  0  0  0  0  0  0  0  0  0
  -10.6716    2.4922   26.9786 C   0  0  0  0  0  0  0  0  0  0  0  0
  -10.9684    1.3381   26.6753 C   0  0  0  0  0  0  0  0  0  0  0  0
  -11.6685    0.4008   27.6041 C   0  0  0  0  0  0  0  0  0  0  0  0
  -12.1697    0.9393   28.7926 C   0  0  0  0  0  0  0  0  0  0  0  0
  -11.8751    2.2499   29.1396 C   0  0  0  0  0  0  0  0  0  0  0  0
  -11.1047    3.0203   28.3416 C   0  0  0  0  0  0  0  0  0  0  0  0
   -9.8995    3.4200   24.8868 C   0  0  0  0  0  0  0  0  0  0  0  0
  -10.2413    4.6233   24.2177 C   0  0  0  0  0  0  0  0  0  0  0  0
  2  7  1  0
  7  8  1  0
  7 14  1  0
 14 15  1  0
  1  2  2  0
  2  3  1  0
  3  6  2  0
  6  5  1  0
  5  4  2  0
  4  1  1  0
  8  9  2  0
  9 10  1  0
 10 11  2  0
 11 12  1  0
 12 13  2  0
 13  8  1  0
M  END
$$$$
