No_4713-complexes_sdf/6BKW-FPZ/2024-09-17-14-21-01/
     RDKit          3D

 19 20  0  0  0  0  0  0  0  0999 V2000
   -7.7129    4.2099   27.0854 C   0  0  0  0  0  0  0  0  0  0  0  0
   -8.2112    3.0637   26.9225 C   0  0  0  0  0  0  0  0  0  0  0  0
   -9.4446    2.8304   26.1868 C   0  0  0  0  0  0  0  0  0  0  0  0
   -8.4697    5.3956   26.7238 C   0  0  0  0  0  0  0  0  0  0  0  0
   -9.6172    5.2111   25.9513 C   0  0  0  0  0  0  0  0  0  0  0  0
  -10.0424    3.9782   25.6873 C   0  0  0  0  0  0  0  0  0  0  0  0
   -7.9172    6.7181   27.0124 C   0  0  0  0  0  0  0  0  0  0  0  0
   -8.2161    7.6478   26.4377 F   0  0  0  0  0  0  0  0  0  0  0  0
   -8.2442    6.8573   28.4874 F   0  0  0  0  0  0  0  0  0  0  0  0
   -7.4996    1.8092   27.4090 C   0  0  0  0  0  0  0  0  0  0  0  0
   -6.1070    1.8504   27.6794 C   0  0  0  0  0  0  0  0  0  0  0  0
   -5.4157    0.7227   28.1857 C   0  0  0  0  0  0  0  0  0  0  0  0
   -6.0853   -0.5005   28.1815 C   0  0  0  0  0  0  0  0  0  0  0  0
   -8.1891    0.5822   27.5520 C   0  0  0  0  0  0  0  0  0  0  0  0
   -7.4358   -0.5223   27.9356 C   0  0  0  0  0  0  0  0  0  0  0  0
   -3.9773    0.8494   28.4369 C   0  0  0  0  0  0  0  0  0  0  0  0
   -3.5617    0.4896   29.5751 O   0  0  0  0  0  0  0  0  0  0  0  0
   -3.1680    1.1745   27.4886 O   0  0  0  0  0  0  0  0  0  0  0  0
   -6.5664    6.6595   27.1235 F   0  0  0  0  0  0  0  0  0  0  0  0
  4  7  1  0
  7  8  1  0
  7  9  1  0
  2 10  1  0
 12 16  1  0
 16 17  2  0
 16 18  1  0
  7 19  1  0
  1  2  2  0
  2  3  1  0
  3  6  2  0
  6  5  1  0
  5  4  2  0
  4  1  1  0
 10 11  2  0
 11 12  1  0
 12 13  2  0
 13 15  1  0
 15 14  2  0
 14 10  1  0
M  END
$$$$
