No_4000-complexes_sdf/6BKW-FPZ/2024-09-17-14-21-01/
     RDKit          3D

 25 27  0  0  0  0  0  0  0  0999 V2000
   -7.7129    4.2099   27.0854 C   0  0  0  0  0  0  0  0  0  0  0  0
   -8.9133    4.4736   27.0998 C   0  0  0  0  0  0  0  0  0  0  0  0
   -9.7937    3.7368   26.2091 C   0  0  0  0  0  0  0  0  0  0  0  0
   -6.8266    5.0441   28.0594 C   0  0  0  0  0  0  0  0  0  0  0  0
   -9.2322    2.6276   25.6126 C   0  0  0  0  0  0  0  0  0  0  0  0
   -7.9794    2.1924   25.9863 C   0  0  0  0  0  0  0  0  0  0  0  0
   -7.2411    2.9387   26.9009 C   0  0  0  0  0  0  0  0  0  0  0  0
  -10.0894    1.7793   24.7540 C   0  0  0  0  0  0  0  0  0  0  0  0
  -10.0393    0.6418   24.5835 N   0  0  0  0  0  0  0  0  0  0  0  0
   -9.7509   -0.1746   25.1153 C   0  0  0  0  0  0  0  0  0  0  0  0
  -10.3611   -0.5142   26.3042 C   0  0  0  0  0  0  0  0  0  0  0  0
   -9.8880   -1.5207   27.2489 C   0  0  0  0  0  0  0  0  0  0  0  0
   -8.7659   -2.2109   26.9431 C   0  0  0  0  0  0  0  0  0  0  0  0
   -8.1111   -1.9823   25.7868 C   0  0  0  0  0  0  0  0  0  0  0  0
   -8.4480   -0.9830   24.9337 C   0  0  0  0  0  0  0  0  0  0  0  0
  -11.0410    2.5577   24.1660 O   0  0  0  0  0  0  0  0  0  0  0  0
  -10.3573    0.2250   23.0935 C   0  0  0  0  0  0  0  0  0  0  0  0
   -9.4463    5.8356   27.5229 C   0  0  0  0  0  0  0  0  0  0  0  0
  -11.6409    0.1591   22.7007 C   0  0  0  0  0  0  0  0  0  0  0  0
  -11.9368   -0.2669   21.5727 C   0  0  0  0  0  0  0  0  0  0  0  0
  -13.3347   -0.4606   21.1307 C   0  0  0  0  0  0  0  0  0  0  0  0
  -14.3040   -0.1098   22.0598 C   0  0  0  0  0  0  0  0  0  0  0  0
  -13.9917    0.3105   23.3096 C   0  0  0  0  0  0  0  0  0  0  0  0
  -12.7159    0.4320   23.7366 C   0  0  0  0  0  0  0  0  0  0  0  0
   -9.3821    0.0137   22.3523 O   0  0  0  0  0  0  0  0  0  0  0  0
  1  4  1  0
  5  8  1  0
  8  9  1  0
  9 10  1  0
  8 16  2  0
  9 17  1  0
  2 18  1  0
 17 19  1  0
 17 25  2  0
 10 11  2  0
 11 12  1  0
 12 13  2  0
 13 14  1  0
 14 15  2  0
 15 10  1  0
 19 20  2  0
 20 21  1  0
 21 22  2  0
 22 23  1  0
 23 24  2  0
 24 19  1  0
  1  2  2  0
  2  3  1  0
  3  5  2  0
  5  6  1  0
  6  7  2  0
  7  1  1  0
M  END
$$$$
