No_4579-complexes_sdf/6BKW-FPZ/2024-09-17-14-21-01/
     RDKit          3D

 16 16  0  0  0  0  0  0  0  0999 V2000
   -7.7129    4.2099   27.0854 C   0  0  0  0  0  0  0  0  0  0  0  0
   -7.7814    5.1722   27.8972 C   0  0  0  0  0  0  0  0  0  0  0  0
   -8.8998    3.8713   26.3707 C   0  0  0  0  0  0  0  0  0  0  0  0
   -9.9938    4.6774   26.5446 C   0  0  0  0  0  0  0  0  0  0  0  0
   -8.7789    6.1536   27.9256 C   0  0  0  0  0  0  0  0  0  0  0  0
   -9.9428    5.8398   27.2296 C   0  0  0  0  0  0  0  0  0  0  0  0
   -8.9221    2.3912   25.4264 P   0  0  2  0  0  0  0  0  0  0  0  0
   -7.8084    1.6499   25.6887 O   0  0  0  0  0  0  0  0  0  0  0  0
   -8.8814    2.8232   23.9789 O   0  0  0  0  0  0  0  0  0  0  0  0
  -10.1838    1.6625   25.6908 O   0  0  0  0  0  0  0  0  0  0  0  0
  -10.6355    1.2347   26.8403 C   0  0  0  0  0  0  0  0  0  0  0  0
  -10.2439    0.0832   27.4139 C   0  0  0  0  0  0  0  0  0  0  0  0
   -8.9831   -0.2872   27.3811 C   0  0  0  0  0  0  0  0  0  0  0  0
   -8.4459   -1.4646   27.9932 C   0  0  0  0  0  0  0  0  0  0  0  0
   -9.3862   -2.2027   28.7737 C   0  0  0  0  0  0  0  0  0  0  0  0
  -10.6950   -1.8091   28.9019 C   0  0  0  0  0  0  0  0  0  0  0  0
  3  7  1  0
  7  8  1  1
  7  9  2  0
  7 10  1  0
 10 11  1  0
 11 12  2  3
 12 13  1  0
 13 14  2  3
 14 15  1  0
 15 16  2  0
  1  2  2  0
  2  5  1  0
  5  6  2  0
  6  4  1  0
  4  3  2  0
  3  1  1  0
M  END
$$$$
