No_4492-complexes_sdf/6BKW-FPZ/2024-09-17-14-21-01/
     RDKit          3D

 20 21  0  0  0  0  0  0  0  0999 V2000
   -7.9040    3.9820   27.1177 C   0  0  0  0  0  0  0  0  0  0  0  0
   -8.2057    2.8231   26.8733 C   0  0  0  0  0  0  0  0  0  0  0  0
   -7.0130    4.3706   28.1140 C   0  0  0  0  0  0  0  0  0  0  0  0
   -9.4741    2.4344   26.3718 C   0  0  0  0  0  0  0  0  0  0  0  0
  -10.2009    3.3542   25.7490 C   0  0  0  0  0  0  0  0  0  0  0  0
   -9.8070    4.7433   25.8809 C   0  0  0  0  0  0  0  0  0  0  0  0
   -8.7506    5.0992   26.6368 C   0  0  0  0  0  0  0  0  0  0  0  0
   -5.8644    3.6613   28.1908 O   0  0  0  0  0  0  0  0  0  0  0  0
   -7.0407    5.5273   28.7409 O   0  0  0  0  0  0  0  0  0  0  0  0
  -11.4108    3.0649   24.9692 C   0  0  0  0  0  0  0  0  0  0  0  0
  -12.5576    2.9569   25.4684 C   0  0  0  0  0  0  0  0  0  0  0  0
  -12.7493    2.9623   26.8007 C   0  0  0  0  0  0  0  0  0  0  0  0
  -14.1091    2.8778   27.4363 C   0  0  0  0  0  0  0  0  0  0  0  0
  -15.1453    2.8333   26.5953 C   0  0  0  0  0  0  0  0  0  0  0  0
  -15.0304    2.9027   25.2597 C   0  0  0  0  0  0  0  0  0  0  0  0
  -13.7834    3.0217   24.6510 C   0  0  0  0  0  0  0  0  0  0  0  0
  -11.1518    2.9204   23.5172 C   0  0  0  0  0  0  0  0  0  0  0  0
  -11.0061    3.5933   22.6572 C   0  0  0  0  0  0  0  0  0  0  0  0
  -10.7053    3.3038   21.2887 C   0  0  0  0  0  0  0  0  0  0  0  0
  -10.4528    1.9914   20.9892 C   0  0  0  0  0  0  0  0  0  0  0  0
  1  3  1  0
  3  8  2  0
  3  9  1  0
  5 10  1  0
 10 11  1  0
 10 17  1  0
 17 18  2  3
 18 19  1  0
 19 20  2  0
 11 12  2  0
 12 13  1  0
 13 14  2  0
 14 15  1  0
 15 16  2  0
 16 11  1  0
  1  2  2  0
  2  4  1  0
  4  5  2  0
  5  6  1  0
  6  7  2  0
  7  1  1  0
M  END
$$$$
