No_4460-complexes_sdf/6BKW-FPZ/2024-09-17-14-21-01/
     RDKit          3D

 34 38  0  0  0  0  0  0  0  0999 V2000
   -7.2496    3.8871   27.4508 C   0  0  0  0  0  0  0  0  0  0  0  0
   -7.9379    4.9063   27.8518 C   0  0  0  0  0  0  0  0  0  0  0  0
   -9.3376    4.8647   27.7795 C   0  0  0  0  0  0  0  0  0  0  0  0
   -7.7973    2.6523   27.3001 C   0  0  0  0  0  0  0  0  0  0  0  0
   -9.2321    2.6051   27.2406 C   0  0  0  0  0  0  0  0  0  0  0  0
   -9.9831    3.7082   27.5769 C   0  0  0  0  0  0  0  0  0  0  0  0
  -11.4336    3.4199   27.6262 C   0  0  0  0  0  0  0  0  0  0  0  0
  -11.9373    2.4731   28.1662 C   0  0  1  0  0  0  0  0  0  0  0  0
  -11.0226    1.4578   28.7675 C   0  0  0  0  0  0  0  0  0  0  0  0
   -9.7672    1.3410   27.8309 N   0  0  0  0  0  0  0  0  0  0  0  0
   -9.2833    0.1012   27.5029 C   0  0  0  0  0  0  0  0  0  0  0  0
   -9.9389   -0.9143   27.6692 C   0  0  0  0  0  0  0  0  0  0  0  0
   -9.3592   -2.1888   27.4573 C   0  0  0  0  0  0  0  0  0  0  0  0
   -8.3934   -2.2086   27.1395 C   0  0  0  0  0  0  0  0  0  0  0  0
   -7.9499   -0.2884   27.1218 C   0  0  0  0  0  0  0  0  0  0  0  0
   -7.3938   -1.2932   26.9344 C   0  0  0  0  0  0  0  0  0  0  0  0
  -13.3217    2.3593   28.6404 C   0  0  0  0  0  0  0  0  0  0  0  0
  -13.7521    2.0026   29.6246 C   0  0  0  0  0  0  0  0  0  0  0  0
  -15.1027    1.9175   30.1001 C   0  0  0  0  0  0  0  0  0  0  0  0
  -16.0136    2.4189   29.1854 C   0  0  0  0  0  0  0  0  0  0  0  0
  -14.3282    2.8090   27.8005 C   0  0  0  0  0  0  0  0  0  0  0  0
  -15.3322    2.8737   28.0132 C   0  0  0  0  0  0  0  0  0  0  0  0
   -7.3241    6.1409   27.9855 O   0  0  0  0  0  0  0  0  0  0  0  0
   -6.0026   -1.4606   26.5022 C   0  0  0  0  0  0  0  0  0  0  0  0
   -4.9549   -1.8308   27.4388 C   0  0  0  0  0  0  0  0  0  0  0  0
   -3.6567   -1.7322   27.0334 C   0  0  0  0  0  0  0  0  0  0  0  0
   -3.3142   -1.1938   25.7662 C   0  0  0  0  0  0  0  0  0  0  0  0
   -4.3012   -0.7976   24.8966 C   0  0  0  0  0  0  0  0  0  0  0  0
   -5.6426   -0.8452   25.2908 C   0  0  0  0  0  0  0  0  0  0  0  0
   -6.6497   -0.4255   24.3314 C   0  0  0  0  0  0  0  0  0  0  0  0
   -6.6874   -1.0445   22.8200 P   0  0  0  0  0  0  0  0  0  0  0  0
   -7.5748   -0.2081   22.0647 O   0  0  0  0  0  0  0  0  0  0  0  0
   -5.3009   -0.9774   22.4059 O   0  0  0  0  0  0  0  0  0  0  0  0
   -7.2086   -2.4494   22.8953 O   0  0  0  0  0  0  0  0  0  0  0  0
  6  7  1  0
  8  9  1  0
  5 10  1  0
  9 10  1  0
 10 11  1  0
  8 17  1  1
  2 23  1  0
 16 24  1  0
 29 30  1  0
 30 31  1  0
 31 32  2  0
 31 33  1  0
 31 34  1  0
  7  8  1  0
 17 18  2  0
 18 19  1  0
 19 20  2  0
 20 22  1  0
 22 21  2  0
 21 17  1  0
 24 25  2  0
 25 26  1  0
 26 27  2  0
 27 28  1  0
 28 29  2  0
 29 24  1  0
  1  2  2  0
  2  3  1  0
  3  6  2  0
  6  5  1  0
  5  4  2  0
  4  1  1  0
 11 12  2  0
 12 13  1  0
 13 14  2  0
 14 16  1  0
 16 15  2  0
 15 11  1  0
M  END
$$$$
