No_4215-complexes_sdf/6BKW-FPZ/2024-09-17-14-21-01/
     RDKit          3D

 22 23  0  0  0  0  0  0  0  0999 V2000
   -7.7129    4.2099   27.0854 C   0  0  0  0  0  0  0  0  0  0  0  0
   -8.9133    4.4736   27.0998 C   0  0  0  0  0  0  0  0  0  0  0  0
   -9.7135    3.9633   26.0300 C   0  0  0  0  0  0  0  0  0  0  0  0
   -6.8420    4.9760   28.0851 C   0  0  0  0  0  0  0  0  0  0  0  0
  -10.9164    3.4776   26.1172 C   0  0  0  0  0  0  0  0  0  0  0  0
  -11.6897    3.8137   27.2914 C   0  0  0  0  0  0  0  0  0  0  0  0
  -10.9876    4.2901   28.4232 C   0  0  0  0  0  0  0  0  0  0  0  0
   -9.6492    4.5388   28.3533 C   0  0  0  0  0  0  0  0  0  0  0  0
  -13.1233    3.4856   27.4111 C   0  0  0  0  0  0  0  0  0  0  0  0
  -13.4867    3.2180   28.4278 O   0  0  0  0  0  0  0  0  0  0  0  0
  -13.7585    3.4326   26.3229 O   0  0  0  0  0  0  0  0  0  0  0  0
   -5.6459    4.3551   28.3825 N   0  0  0  0  0  0  0  0  0  0  0  0
   -7.2296    6.0057   28.5810 O   0  0  0  0  0  0  0  0  0  0  0  0
  -14.8183    2.8273   28.7934 C   0  0  0  0  0  0  0  0  0  0  0  0
  -14.9740    2.3666   29.9349 C   0  0  0  0  0  0  0  0  0  0  0  0
  -16.1291    1.8968   30.3464 C   0  0  0  0  0  0  0  0  0  0  0  0
  -17.2430    2.0160   29.4772 C   0  0  0  0  0  0  0  0  0  0  0  0
  -17.0282    2.5172   28.2457 C   0  0  0  0  0  0  0  0  0  0  0  0
  -15.7893    2.9659   27.8964 C   0  0  0  0  0  0  0  0  0  0  0  0
  -18.1691    2.6647   27.2988 C   0  0  0  0  0  0  0  0  0  0  0  0
  -17.9575    2.7541   26.0836 C   0  0  0  0  0  0  0  0  0  0  0  0
  -16.5738    3.1702   25.6781 C   0  0  0  0  0  0  0  0  0  0  0  0
  1  2  1  0
  1  4  1  0
  6  9  1  0
  9 10  1  0
  9 11  2  0
  4 12  1  0
  4 13  2  0
 10 14  1  0
 18 20  1  0
 20 21  2  3
 21 22  1  0
 14 15  2  0
 15 16  1  0
 16 17  2  0
 17 18  1  0
 18 19  2  0
 19 14  1  0
  2  3  2  0
  3  5  1  0
  5  6  2  0
  6  7  1  0
  7  8  2  0
  8  2  1  0
M  END
$$$$
