No_4653-complexes_sdf/6BKW-FPZ/2024-09-17-14-21-01/
     RDKit          3D

 19 20  0  0  0  0  0  0  0  0999 V2000
   -7.7129    4.2099   27.0854 C   0  0  0  0  0  0  0  0  0  0  0  0
   -8.9133    4.4736   27.0998 C   0  0  0  0  0  0  0  0  0  0  0  0
   -9.4616    5.6470   27.6290 C   0  0  0  0  0  0  0  0  0  0  0  0
   -6.8722    5.1130   27.9248 C   0  0  0  0  0  0  0  0  0  0  0  0
   -7.3801    6.2535   28.4126 C   0  0  0  0  0  0  0  0  0  0  0  0
   -8.6734    6.5530   28.2150 C   0  0  0  0  0  0  0  0  0  0  0  0
   -9.7626    3.4440   26.3353 C   0  0  0  0  0  0  0  0  0  0  0  0
   -9.1892    2.4376   25.7371 C   0  0  0  0  0  0  0  0  0  0  0  0
   -9.9613    1.5541   25.0424 C   0  0  0  0  0  0  0  0  0  0  0  0
  -11.2706    1.8320   24.7265 C   0  0  0  0  0  0  0  0  0  0  0  0
  -11.1244    3.7240   26.0006 C   0  0  0  0  0  0  0  0  0  0  0  0
  -11.8320    2.9499   25.2662 C   0  0  0  0  0  0  0  0  0  0  0  0
   -9.3159    0.3065   24.4368 C   0  0  0  0  0  0  0  0  0  0  0  0
  -10.0653   -0.5505   24.4546 F   0  0  0  0  0  0  0  0  0  0  0  0
   -8.2046    0.0999   25.1992 F   0  0  0  0  0  0  0  0  0  0  0  0
   -8.8106    0.6415   23.2087 F   0  0  0  0  0  0  0  0  0  0  0  0
  -13.2652    3.2665   25.0049 C   0  0  0  0  0  0  0  0  0  0  0  0
  -14.0937    3.8920   25.4209 C   0  0  0  0  0  0  0  0  0  0  0  0
  -15.4302    4.1279   25.0413 C   0  0  0  0  0  0  0  0  0  0  0  0
  2  7  1  0
  9 13  1  0
 13 14  1  0
 13 15  1  0
 13 16  1  0
 12 17  1  0
 17 18  2  3
 18 19  1  0
  7  8  2  0
  8  9  1  0
  9 10  2  0
 10 12  1  0
 12 11  2  0
 11  7  1  0
  1  2  2  0
  2  3  1  0
  3  6  2  0
  6  5  1  0
  5  4  2  0
  4  1  1  0
M  END
$$$$
