No_4628-complexes_sdf/6BKW-FPZ/2024-09-17-14-21-01/
     RDKit          3D

 30 33  0  0  0  0  0  0  0  0999 V2000
   -7.7129    4.2099   27.0854 C   0  0  0  0  0  0  0  0  0  0  0  0
   -8.2112    3.0637   26.9225 C   0  0  0  0  0  0  0  0  0  0  0  0
   -7.5138    1.9223   27.4249 C   0  0  0  0  0  0  0  0  0  0  0  0
   -8.5309    5.4147   26.8151 C   0  0  0  0  0  0  0  0  0  0  0  0
   -9.6817    5.2393   26.1100 C   0  0  0  0  0  0  0  0  0  0  0  0
  -10.1032    3.9957   25.8534 C   0  0  0  0  0  0  0  0  0  0  0  0
   -9.4034    2.8430   26.2573 C   0  0  0  0  0  0  0  0  0  0  0  0
   -6.1481    1.9922   27.8210 C   0  0  0  0  0  0  0  0  0  0  0  0
   -5.3745    0.7864   27.9750 C   0  0  0  0  0  0  0  0  0  0  0  0
   -5.9888   -0.4064   27.9076 C   0  0  0  0  0  0  0  0  0  0  0  0
   -7.9582    0.5752   27.2249 C   0  0  0  0  0  0  0  0  0  0  0  0
   -7.3017   -0.4963   27.5751 C   0  0  0  0  0  0  0  0  0  0  0  0
   -7.9774    6.7605   27.0954 C   0  0  0  0  0  0  0  0  0  0  0  0
   -8.6564    7.8568   26.7325 N   0  0  0  0  0  0  0  0  0  0  0  0
   -7.1314    6.9111   28.1504 N   0  0  0  0  0  0  0  0  0  0  0  0
   -3.9655    0.9742   28.4502 C   0  0  0  0  0  0  0  0  0  0  0  0
   -3.3417    0.1755   28.9808 O   0  0  0  0  0  0  0  0  0  0  0  0
   -3.4813    2.1901   28.4138 O   0  0  0  0  0  0  0  0  0  0  0  0
  -11.3594    3.8431   25.0678 C   0  0  0  0  0  0  0  0  0  0  0  0
  -11.3031    3.6174   23.7684 C   0  0  0  0  0  0  0  0  0  0  0  0
  -12.3891    3.7090   22.9624 C   0  0  0  0  0  0  0  0  0  0  0  0
  -13.6448    3.9172   23.5297 C   0  0  0  0  0  0  0  0  0  0  0  0
  -12.6029    4.2014   25.6507 C   0  0  0  0  0  0  0  0  0  0  0  0
  -12.6510    4.4156   27.1089 C   0  0  0  0  0  0  0  0  0  0  0  0
  -13.7642    4.2111   24.8844 C   0  0  0  0  0  0  0  0  0  0  0  0
  -11.7225    3.9806   28.0425 C   0  0  0  0  0  0  0  0  0  0  0  0
  -13.9128    4.9853   27.5916 C   0  0  0  0  0  0  0  0  0  0  0  0
  -14.6319    4.5525   28.1559 C   0  0  0  0  0  0  0  0  0  0  0  0
  -12.4604    3.6765   29.4185 C   0  0  0  0  0  0  0  0  0  0  0  0
  -13.7990    4.0648   29.5648 C   0  0  0  0  0  0  0  0  0  0  0  0
  2  3  1  0
  4 13  1  0
 13 14  2  0
 13 15  1  0
  9 16  1  0
 16 17  2  0
 16 18  1  0
  6 19  1  0
 23 24  1  0
 19 20  2  0
 20 21  1  0
 21 22  2  0
 22 25  1  0
 25 23  2  0
 23 19  1  0
 24 26  2  0
 26 29  1  0
 29 30  2  0
 30 28  1  0
 28 27  2  0
 27 24  1  0
  3  8  2  0
  8  9  1  0
  9 10  2  0
 10 12  1  0
 12 11  2  0
 11  3  1  0
  1  2  2  0
  2  7  1  0
  7  6  2  0
  6  5  1  0
  5  4  2  0
  4  1  1  0
M  END
$$$$
