No_435-complexes_sdf/6BKW-FPZ/2024-09-17-14-21-01/
     RDKit          3D

 29 32  0  0  0  0  0  0  0  0999 V2000
   -7.2496    3.8871   27.4508 C   0  0  0  0  0  0  0  0  0  0  0  0
   -7.9379    4.9063   27.8518 C   0  0  0  0  0  0  0  0  0  0  0  0
   -9.3376    4.8647   27.7795 C   0  0  0  0  0  0  0  0  0  0  0  0
   -7.8544    2.6294   27.0414 C   0  0  0  0  0  0  0  0  0  0  0  0
   -9.2852    2.6570   27.0666 C   0  0  0  0  0  0  0  0  0  0  0  0
  -10.0126    3.7528   27.4890 C   0  0  0  0  0  0  0  0  0  0  0  0
   -9.9609    1.3640   26.7239 C   0  0  0  0  0  0  0  0  0  0  0  0
  -10.7586    0.8639   27.5578 C   0  0  0  0  0  0  0  0  0  0  0  0
  -11.0806    1.6211   28.8307 C   0  0  0  0  0  0  0  0  0  0  0  0
  -10.9471    3.1770   28.6160 C   0  0  0  0  0  0  0  0  0  0  0  0
  -10.2441    1.6221   25.4520 C   0  0  0  0  0  0  0  0  0  0  0  0
  -11.1869    1.2928   24.8054 C   0  0  0  0  0  0  0  0  0  0  0  0
  -11.4384    1.5250   23.3382 C   0  0  0  0  0  0  0  0  0  0  0  0
  -10.9447    2.2818   22.9002 C   0  0  0  0  0  0  0  0  0  0  0  0
   -9.7432    3.0173   23.3827 C   0  0  0  0  0  0  0  0  0  0  0  0
   -9.3978    2.7048   24.6741 C   0  0  0  0  0  0  0  0  0  0  0  0
   -7.1332    6.4133   28.2579 Cl  0  0  0  0  0  0  0  0  0  0  0  0
  -11.1577   -0.5528   27.5642 C   0  0  0  0  0  0  0  0  0  0  0  0
  -10.1964   -1.5140   27.5972 C   0  0  0  0  0  0  0  0  0  0  0  0
   -8.9911   -1.2877   27.8072 C   0  0  0  0  0  0  0  0  0  0  0  0
   -7.9550   -1.9904   27.9426 C   0  0  0  0  0  0  0  0  0  0  0  0
   -6.5854   -1.5755   28.1599 C   0  0  0  0  0  0  0  0  0  0  0  0
   -6.3188   -0.2243   27.8397 C   0  0  0  0  0  0  0  0  0  0  0  0
   -7.3841    0.6348   27.5454 C   0  0  0  0  0  0  0  0  0  0  0  0
   -8.5433    0.1476   27.4870 C   0  0  0  0  0  0  0  0  0  0  0  0
   -8.8658    0.5141   26.6080 N   0  0  0  0  0  0  0  0  0  0  0  0
   -8.4537   -0.0379   25.1855 C   0  0  0  0  0  0  0  0  0  0  0  0
   -9.0208   -0.5302   25.8336 Cl  0  0  0  0  0  0  0  0  0  0  0  0
   -7.6804    0.4332   25.8626 Cl  0  0  0  0  0  0  0  0  0  0  0  0
  7 11  1  0
  2 17  1  0
  8 18  1  0
 18 19  1  0
 19 20  1  0
 25 26  1  0
 26 27  1  0
 27 28  1  0
 27 29  1  0
 11 12  2  0
 12 13  1  0
 13 14  2  0
 14 15  1  0
 15 16  2  0
 16 11  1  0
  6 10  1  0
 10  9  2  0
  9  8  1  0
  8  7  2  0
  7  5  1  0
  1  2  2  0
  2  3  1  0
  3  6  2  0
  6  5  1  0
  5  4  2  0
  4  1  1  0
 20 21  2  0
 21 22  1  0
 22 23  2  0
 23 24  1  0
 24 25  2  0
 25 20  1  0
M  END
$$$$
