No_4524-complexes_sdf/6BKW-FPZ/2024-09-17-14-21-01/
     RDKit          3D

 32 36  0  0  0  0  0  0  0  0999 V2000
   -7.9040    3.9820   27.1177 C   0  0  0  0  0  0  0  0  0  0  0  0
   -8.2057    2.8231   26.8733 C   0  0  0  0  0  0  0  0  0  0  0  0
   -9.2962    2.4021   26.1155 C   0  0  0  0  0  0  0  0  0  0  0  0
   -8.7358    5.0662   26.5917 C   0  0  0  0  0  0  0  0  0  0  0  0
   -9.7618    4.7023   25.7546 C   0  0  0  0  0  0  0  0  0  0  0  0
  -10.0066    3.4105   25.4922 C   0  0  0  0  0  0  0  0  0  0  0  0
   -8.2002    6.4309   26.9312 C   0  0  0  0  0  0  0  0  0  0  0  0
   -7.3172    6.5413   27.8000 N   0  0  0  0  0  0  0  0  0  0  0  0
   -8.7782    7.5058   26.3821 N   0  0  0  0  0  0  0  0  0  0  0  0
   -7.3730    1.6315   27.4625 C   0  0  0  0  0  0  0  0  0  0  0  0
   -7.7572    0.3136   27.3712 C   0  0  0  0  0  0  0  0  0  0  0  0
   -8.9751    0.1020   26.7987 C   0  0  0  0  0  0  0  0  0  0  0  0
   -9.7097    1.0412   26.0324 C   0  0  0  0  0  0  0  0  0  0  0  0
   -7.0000   -0.6826   28.0495 C   0  0  0  0  0  0  0  0  0  0  0  0
   -5.6811   -0.4419   28.4264 C   0  0  0  0  0  0  0  0  0  0  0  0
   -4.8952   -1.4138   29.1721 C   0  0  0  0  0  0  0  0  0  0  0  0
   -3.5944   -1.0057   29.6190 C   0  0  0  0  0  0  0  0  0  0  0  0
   -3.0915    0.2554   29.2480 C   0  0  0  0  0  0  0  0  0  0  0  0
   -4.9955    0.8109   28.2949 C   0  0  0  0  0  0  0  0  0  0  0  0
   -3.7705    1.0809   28.6867 N   0  0  0  0  0  0  0  0  0  0  0  0
   -5.8055    1.8510   27.6891 N   0  0  0  0  0  0  0  0  0  0  0  0
   -2.7653   -2.0304   30.3435 C   0  0  0  0  0  0  0  0  0  0  0  0
   -3.1680   -3.1800   30.2472 C   0  0  0  0  0  0  0  0  0  0  0  0
   -4.4755   -3.5411   29.9891 C   0  0  0  0  0  0  0  0  0  0  0  0
   -5.3407   -2.6598   29.3548 C   0  0  0  0  0  0  0  0  0  0  0  0
  -11.1555    3.1900   24.5733 C   0  0  0  0  0  0  0  0  0  0  0  0
  -12.3799    3.1415   25.0058 C   0  0  0  0  0  0  0  0  0  0  0  0
  -12.7648    3.1205   26.2232 C   0  0  0  0  0  0  0  0  0  0  0  0
  -13.6081    3.1471   26.9131 C   0  0  0  0  0  0  0  0  0  0  0  0
  -13.6948    3.1617   28.4243 C   0  0  0  0  0  0  0  0  0  0  0  0
  -12.4704    3.0001   29.0910 C   0  0  0  0  0  0  0  0  0  0  0  0
  -11.3149    2.9887   28.3575 C   0  0  0  0  0  0  0  0  0  0  0  0
  4  7  1  0
  7  8  1  0
  7  9  1  0
  6 26  1  0
 26 27  1  0
 27 28  2  3
 28 29  1  0
 29 30  2  3
 30 31  1  0
 31 32  2  0
 11 14  2  0
 14 15  1  0
 19 21  1  0
 21 10  2  0
  1  2  2  0
  3  6  2  0
  6  5  1  0
  5  4  2  0
  4  1  1  0
  2  3  1  0
  3 13  1  0
 13 12  2  0
 12 11  1  0
 11 10  1  0
 10  2  1  0
 17 22  1  0
 22 23  2  0
 23 24  1  0
 24 25  2  0
 25 16  1  0
 15 16  2  0
 16 17  1  0
 17 18  2  0
 18 20  1  0
 20 19  2  0
 19 15  1  0
M  END
$$$$
