No_4419-complexes_sdf/6BKW-FPZ/2024-09-17-14-21-01/
     RDKit          3D

 14 15  0  0  0  0  0  0  0  0999 V2000
   -7.2496    3.8871   27.4508 C   0  0  0  0  0  0  0  0  0  0  0  0
   -7.6161    2.7143   27.1523 C   0  0  0  0  0  0  0  0  0  0  0  0
   -7.1618    1.8631   27.5232 C   0  0  0  0  0  0  0  0  0  0  0  0
   -8.0384    5.0866   27.3232 C   0  0  0  0  0  0  0  0  0  0  0  0
   -9.1223    5.1097   26.4856 C   0  0  0  0  0  0  0  0  0  0  0  0
   -8.9186    2.6660   26.4794 C   0  0  0  0  0  0  0  0  0  0  0  0
   -9.6149    3.8296   26.1383 C   0  0  0  0  0  0  0  0  0  0  0  0
   -5.7249    1.8517   28.0476 C   0  0  0  0  0  0  0  0  0  0  0  0
   -5.0664    0.5630   28.3602 C   0  0  0  0  0  0  0  0  0  0  0  0
   -3.7522    0.5841   28.8994 C   0  0  0  0  0  0  0  0  0  0  0  0
   -5.8399   -0.5909   28.3146 C   0  0  0  0  0  0  0  0  0  0  0  0
   -3.1698   -0.5531   29.4865 C   0  0  0  0  0  0  0  0  0  0  0  0
   -5.2291   -1.7746   28.8791 C   0  0  0  0  0  0  0  0  0  0  0  0
   -3.9024   -1.7430   29.4349 C   0  0  0  0  0  0  0  0  0  0  0  0
  2  3  1  0
  3  8  2  3
  8  9  1  0
  9 10  2  0
 10 12  1  0
 12 14  2  0
 14 13  1  0
 13 11  2  0
 11  9  1  0
  1  2  2  0
  2  6  1  0
  6  7  2  0
  7  5  1  0
  5  4  2  0
  4  1  1  0
M  END
$$$$
