No_4941-complexes_sdf/6BKW-FPZ/2024-09-17-14-21-01/
     RDKit          3D

 18 20  0  0  0  0  0  0  0  0999 V2000
   -7.7129    4.2099   27.0854 C   0  0  0  0  0  0  0  0  0  0  0  0
   -8.2112    3.0637   26.9225 C   0  0  0  0  0  0  0  0  0  0  0  0
   -7.5138    1.9223   27.4249 C   0  0  0  0  0  0  0  0  0  0  0  0
   -8.5309    5.4147   26.8151 C   0  0  0  0  0  0  0  0  0  0  0  0
   -9.5564    5.2865   26.3590 C   0  0  0  0  0  0  0  0  0  0  0  0
  -10.1594    4.0753   26.0281 C   0  0  0  0  0  0  0  0  0  0  0  0
   -9.4783    2.8876   26.3977 C   0  0  0  0  0  0  0  0  0  0  0  0
   -7.9938    0.5660   27.2401 C   0  0  0  0  0  0  0  0  0  0  0  0
   -7.2292   -0.4864   27.5760 C   0  0  0  0  0  0  0  0  0  0  0  0
   -7.7871   -1.7884   27.5557 C   0  0  0  0  0  0  0  0  0  0  0  0
   -9.1437   -1.8773   27.1626 C   0  0  0  0  0  0  0  0  0  0  0  0
   -9.8987   -0.8186   26.8643 C   0  0  0  0  0  0  0  0  0  0  0  0
   -9.3507    0.4587   26.9587 C   0  0  0  0  0  0  0  0  0  0  0  0
  -10.0947    1.6092   26.3889 C   0  0  0  0  0  0  0  0  0  0  0  0
   -7.8361    6.7780   27.1540 C   0  0  0  0  0  0  0  0  0  0  0  0
   -6.8685    6.7625   27.9175 O   0  0  0  0  0  0  0  0  0  0  0  0
   -8.2596    7.8806   26.6470 O   0  0  0  0  0  0  0  0  0  0  0  0
  -11.3018    1.4559   26.0473 O   0  0  0  0  0  0  0  0  0  0  0  0
  2  3  1  0
  7 14  1  0
 13 14  1  0
  4 15  1  0
 15 16  2  0
 15 17  1  0
 14 18  2  0
  3  8  1  0
  1  2  2  0
  2  7  1  0
  7  6  2  0
  6  5  1  0
  5  4  2  0
  4  1  1  0
  8  9  2  0
  9 10  1  0
 10 11  2  0
 11 12  1  0
 12 13  2  0
 13  8  1  0
M  END
$$$$
