No_4635-complexes_sdf/6BKW-FPZ/2024-09-17-14-21-01/
     RDKit          3D

 18 19  0  0  0  0  0  0  0  0999 V2000
   -7.9040    3.9820   27.1177 C   0  0  0  0  0  0  0  0  0  0  0  0
   -8.2057    2.8231   26.8733 C   0  0  0  0  0  0  0  0  0  0  0  0
   -9.2962    2.4021   26.1155 C   0  0  0  0  0  0  0  0  0  0  0  0
   -8.7358    5.0662   26.5917 C   0  0  0  0  0  0  0  0  0  0  0  0
   -9.7618    4.7023   25.7546 C   0  0  0  0  0  0  0  0  0  0  0  0
  -10.0066    3.4105   25.4922 C   0  0  0  0  0  0  0  0  0  0  0  0
   -8.6255    6.4891   26.8817 C   0  0  0  0  0  0  0  0  0  0  0  0
   -8.4257    6.9343   28.1014 N   0  0  0  0  0  0  0  0  0  0  0  0
   -8.5851    7.3630   25.8901 N   0  0  0  0  0  0  0  0  0  0  0  0
   -7.3385    1.6854   27.4716 C   0  0  0  0  0  0  0  0  0  0  0  0
   -7.7426    0.4090   27.3959 N   0  0  0  0  0  0  0  0  0  0  0  0
   -8.8503   -0.0210   27.3810 C   0  0  0  0  0  0  0  0  0  0  0  0
   -6.1181    2.0568   27.7189 O   0  0  0  0  0  0  0  0  0  0  0  0
   -9.2257   -1.0299   26.5630 C   0  0  0  0  0  0  0  0  0  0  0  0
   -8.3030   -1.5552   25.8140 C   0  0  0  0  0  0  0  0  0  0  0  0
   -6.9526   -0.3341   26.3492 C   0  0  2  0  0  0  0  0  0  0  0  0
   -6.9902   -1.3204   25.4978 C   0  0  0  0  0  0  0  0  0  0  0  0
   -6.0708   -1.7353   24.6939 C   0  0  0  0  0  0  0  0  0  0  0  0
  4  7  1  0
  7  8  2  0
  7  9  1  0
  2 10  1  0
 10 11  1  0
 11 12  1  0
 10 13  2  0
 12 14  2  0
 14 15  1  0
 11 16  1  0
 15 16  1  0
 16 17  1  1
 17 18  1  0
  1  2  2  0
  2  3  1  0
  3  6  2  0
  6  5  1  0
  5  4  2  0
  4  1  1  0
M  END
$$$$
