No_4315-complexes_sdf/6BKW-FPZ/2024-09-17-14-21-01/
     RDKit          3D

 15 15  0  0  0  0  0  0  0  0999 V2000
   -7.9040    3.9820   27.1177 C   0  0  0  0  0  0  0  0  0  0  0  0
   -7.8663    4.8694   27.9238 C   0  0  0  0  0  0  0  0  0  0  0  0
   -9.0501    3.8017   26.2617 C   0  0  0  0  0  0  0  0  0  0  0  0
   -9.1826    2.7026   25.3575 C   0  0  0  0  0  0  0  0  0  0  0  0
   -8.6940    6.0131   27.8614 C   0  0  0  0  0  0  0  0  0  0  0  0
   -9.9755    4.8547   26.2361 C   0  0  0  0  0  0  0  0  0  0  0  0
   -9.7463    5.9398   27.0364 C   0  0  0  0  0  0  0  0  0  0  0  0
  -10.0985    2.0025   25.4774 N   0  0  0  0  0  0  0  0  0  0  0  0
  -10.9382    1.8054   26.1223 C   0  0  0  0  0  0  0  0  0  0  0  0
  -11.0762    2.1327   27.2804 C   0  0  0  0  0  0  0  0  0  0  0  0
  -12.2154    1.7024   28.2519 C   0  0  0  0  0  0  0  0  0  0  0  0
  -12.3247    2.2640   29.5371 C   0  0  0  0  0  0  0  0  0  0  0  0
  -13.5244    2.0360   30.1713 C   0  0  0  0  0  0  0  0  0  0  0  0
  -14.3648    1.0244   29.7522 C   0  0  0  0  0  0  0  0  0  0  0  0
  -14.1420    0.4265   28.5544 C   0  0  0  0  0  0  0  0  0  0  0  0
  3  4  1  0
  4  8  1  0
  8  9  1  0
  9 10  2  3
 10 11  1  0
 11 12  2  3
 12 13  1  0
 13 14  2  3
 14 15  1  0
  1  2  2  0
  2  5  1  0
  5  7  2  0
  7  6  1  0
  6  3  2  0
  3  1  1  0
M  END
$$$$
