No_4158-complexes_sdf/6BKW-FPZ/2024-09-17-14-21-01/
     RDKit          3D

 19 21  0  0  0  0  0  0  0  0999 V2000
   -7.2496    3.8871   27.4508 C   0  0  0  0  0  0  0  0  0  0  0  0
   -8.5096    4.0291   27.2770 C   0  0  0  0  0  0  0  0  0  0  0  0
   -9.3502    2.8685   26.8763 C   0  0  0  0  0  0  0  0  0  0  0  0
   -6.6288    2.5513   27.4938 C   0  0  0  0  0  0  0  0  0  0  0  0
   -7.4365    1.4714   27.2032 C   0  0  0  0  0  0  0  0  0  0  0  0
   -8.7772    1.6579   26.9338 C   0  0  0  0  0  0  0  0  0  0  0  0
   -8.9255    5.4785   27.2355 C   0  0  0  0  0  0  0  0  0  0  0  0
   -8.0948    6.4989   27.4241 C   0  0  0  0  0  0  0  0  0  0  0  0
   -8.6181    7.8308   27.1908 C   0  0  0  0  0  0  0  0  0  0  0  0
   -7.0335    0.0775   27.2426 C   0  0  0  0  0  0  0  0  0  0  0  0
   -7.7857   -0.9308   27.1626 C   0  0  0  0  0  0  0  0  0  0  0  0
   -9.2127   -0.6328   26.8585 C   0  0  0  0  0  0  0  0  0  0  0  0
   -9.6907    0.5710   26.7980 C   0  0  0  0  0  0  0  0  0  0  0  0
   -5.5360   -0.1169   27.5765 C   0  0  0  0  0  0  0  0  0  0  0  0
   -4.8878   -1.0647   27.3957 C   0  0  0  0  0  0  0  0  0  0  0  0
   -3.4742   -1.1928   27.6758 C   0  0  0  0  0  0  0  0  0  0  0  0
   -2.7901   -0.1028   28.2427 C   0  0  0  0  0  0  0  0  0  0  0  0
   -3.5753    1.0597   28.5325 C   0  0  0  0  0  0  0  0  0  0  0  0
   -4.9082    1.0943   28.2086 C   0  0  0  0  0  0  0  0  0  0  0  0
  2  7  1  0
  7  8  1  0
  8  9  2  0
 10 14  1  0
  6 13  1  0
 13 12  2  0
 12 11  1  0
 11 10  2  0
 10  5  1  0
 14 15  2  0
 15 16  1  0
 16 17  2  0
 17 18  1  0
 18 19  2  0
 19 14  1  0
  1  2  2  0
  2  3  1  0
  3  6  2  0
  6  5  1  0
  5  4  2  0
  4  1  1  0
M  END
$$$$
