No_4417-complexes_sdf/6BKW-FPZ/2024-09-17-14-21-01/
     RDKit          3D

 20 22  0  0  0  0  0  0  0  0999 V2000
   -7.7129    4.2099   27.0854 C   0  0  0  0  0  0  0  0  0  0  0  0
   -8.9133    4.4736   27.0998 C   0  0  0  0  0  0  0  0  0  0  0  0
   -9.7135    3.9633   26.0300 C   0  0  0  0  0  0  0  0  0  0  0  0
   -6.8655    4.8824   28.1822 C   0  0  0  0  0  0  0  0  0  0  0  0
   -9.2221    2.8459   25.3619 C   0  0  0  0  0  0  0  0  0  0  0  0
   -8.0164    2.2957   25.7889 C   0  0  0  0  0  0  0  0  0  0  0  0
   -7.3052    2.9474   26.8072 C   0  0  0  0  0  0  0  0  0  0  0  0
  -10.0330    2.1843   24.3790 C   0  0  0  0  0  0  0  0  0  0  0  0
  -11.1215    2.5154   24.2785 C   0  0  0  0  0  0  0  0  0  0  0  0
  -11.7216    3.7815   24.8383 C   0  0  0  0  0  0  0  0  0  0  0  0
  -10.9928    4.3872   25.8015 C   0  0  0  0  0  0  0  0  0  0  0  0
  -12.0435    1.9649   23.1297 C   0  0  0  0  0  0  0  0  0  0  0  0
  -11.6124    1.5245   22.2180 C   0  0  0  0  0  0  0  0  0  0  0  0
  -12.3621    0.8192   21.2799 C   0  0  0  0  0  0  0  0  0  0  0  0
  -13.7070    0.7603   21.4440 C   0  0  0  0  0  0  0  0  0  0  0  0
  -13.4821    1.8672   23.2855 C   0  0  0  0  0  0  0  0  0  0  0  0
  -14.2555    1.3068   22.4821 C   0  0  0  0  0  0  0  0  0  0  0  0
  -14.6468   -0.0532   20.2305 Cl  0  0  0  0  0  0  0  0  0  0  0  0
   -7.2534    6.0184   28.6438 O   0  0  0  0  0  0  0  0  0  0  0  0
   -5.6562    4.4488   28.3448 O   0  0  0  0  0  0  0  0  0  0  0  0
  1  4  1  0
  9 12  1  0
 15 18  1  0
  4 19  2  0
  4 20  1  0
 12 13  2  0
 13 14  1  0
 14 15  2  0
 15 17  1  0
 17 16  2  0
 16 12  1  0
  5  8  2  0
  8  9  1  0
  9 10  2  0
 10 11  1  0
 11  3  2  0
  1  2  2  0
  2  3  1  0
  3  5  1  0
  5  6  1  0
  6  7  2  0
  7  1  1  0
M  END
$$$$
