No_4206-complexes_sdf/6BKW-FPZ/2024-09-17-14-21-01/
     RDKit          3D

  7  7  0  0  0  0  0  0  0  0999 V2000
   -7.9040    3.9820   27.1177 C   0  0  0  0  0  0  0  0  0  0  0  0
   -8.2057    2.8231   26.8733 C   0  0  0  0  0  0  0  0  0  0  0  0
   -8.7463    4.9537   27.6708 C   0  0  0  0  0  0  0  0  0  0  0  0
  -10.0803    4.5846   27.9309 C   0  0  0  0  0  0  0  0  0  0  0  0
   -9.5722    2.3394   27.0459 C   0  0  0  0  0  0  0  0  0  0  0  0
  -10.4942    3.3146   27.6625 C   0  0  0  0  0  0  0  0  0  0  0  0
   -8.2285    6.3262   27.9169 C   0  0  0  0  0  0  0  0  0  0  0  0
  3  7  1  0
  1  2  2  0
  2  5  1  0
  5  6  2  0
  6  4  1  0
  4  3  2  0
  3  1  1  0
M  END
$$$$
