No_4856-complexes_sdf/6BKW-FPZ/2024-09-17-14-21-01/
     RDKit          3D

 32 35  0  0  0  0  0  0  0  0999 V2000
   -7.9040    3.9820   27.1177 C   0  0  0  0  0  0  0  0  0  0  0  0
   -9.0711    4.3164   27.0630 C   0  0  0  0  0  0  0  0  0  0  0  0
   -9.8698    3.9665   25.9494 C   0  0  0  0  0  0  0  0  0  0  0  0
   -7.0332    4.5030   28.2025 C   0  0  0  0  0  0  0  0  0  0  0  0
   -9.4357    2.9501   25.1393 C   0  0  0  0  0  0  0  0  0  0  0  0
   -8.2567    2.3218   25.4797 C   0  0  0  0  0  0  0  0  0  0  0  0
   -7.5105    2.7966   26.5752 C   0  0  0  0  0  0  0  0  0  0  0  0
  -10.2472    2.5204   24.0264 C   0  0  0  0  0  0  0  0  0  0  0  0
  -10.1048    1.3095   23.5388 C   0  0  0  0  0  0  0  0  0  0  0  0
   -9.2773    0.4049   24.2514 C   0  0  0  0  0  0  0  0  0  0  0  0
   -8.1702    0.9378   25.0115 C   0  0  0  0  0  0  0  0  0  0  0  0
   -7.0053    5.7103   28.4542 N   0  0  0  0  0  0  0  0  0  0  0  0
   -5.8573    3.8921   28.3617 O   0  0  0  0  0  0  0  0  0  0  0  0
   -7.1808    0.0339   25.5714 C   0  0  0  0  0  0  0  0  0  0  0  0
   -6.3967   -0.4767   24.8781 O   0  0  0  0  0  0  0  0  0  0  0  0
   -7.1467   -0.1259   26.8715 O   0  0  0  0  0  0  0  0  0  0  0  0
   -6.1530   -0.8061   27.5040 C   0  0  1  0  0  0  0  0  0  0  0  0
   -5.1095   -0.2500   27.7369 C   0  0  0  0  0  0  0  0  0  0  0  0
   -4.8698    1.0950   27.9027 C   0  0  0  0  0  0  0  0  0  0  0  0
   -3.6031    1.5633   28.1433 N   0  0  0  0  0  0  0  0  0  0  0  0
   -3.8089   -0.9387   27.8198 C   0  0  0  0  0  0  0  0  0  0  0  0
   -2.5807   -0.4262   28.0543 C   0  0  0  0  0  0  0  0  0  0  0  0
   -2.5605    0.9843   28.2512 C   0  0  0  0  0  0  0  0  0  0  0  0
   -6.8545   -1.3055   28.8662 C   0  0  0  0  0  0  0  0  0  0  0  0
   -6.0329   -1.6050   29.9305 C   0  0  0  0  0  0  0  0  0  0  0  0
   -6.6183   -2.1756   31.0850 C   0  0  0  0  0  0  0  0  0  0  0  0
   -7.9813   -2.5642   31.0941 C   0  0  0  0  0  0  0  0  0  0  0  0
   -8.7296   -2.3766   29.9022 C   0  0  0  0  0  0  0  0  0  0  0  0
   -8.1494   -1.8215   28.7777 C   0  0  0  0  0  0  0  0  0  0  0  0
   -8.6202   -3.1186   32.2908 C   0  0  0  0  0  0  0  0  0  0  0  0
   -8.6838   -4.3114   32.3252 O   0  0  0  0  0  0  0  0  0  0  0  0
   -9.0652   -2.2904   33.1973 O   0  0  0  0  0  0  0  0  0  0  0  0
  1  4  1  0
  4 12  2  0
  4 13  1  0
 11 14  1  0
 14 15  2  0
 14 16  1  0
 17 16  1  1
 17 24  1  0
 27 30  1  0
 30 31  2  0
 30 32  1  0
 17 18  1  0
 18 19  2  0
 19 20  1  0
 20 23  2  0
 23 22  1  0
 22 21  2  0
 21 18  1  0
  6 11  1  0
 11 10  2  0
 10  9  1  0
  9  8  2  0
  8  5  1  0
 24 25  2  0
 25 26  1  0
 26 27  2  0
 27 28  1  0
 28 29  2  0
 29 24  1  0
  1  2  2  0
  2  3  1  0
  3  5  2  0
  5  6  1  0
  6  7  2  0
  7  1  1  0
M  END
$$$$
