No_4296-complexes_sdf/6BKW-FPZ/2024-09-17-14-21-01/
     RDKit          3D

 18 19  0  0  0  0  0  0  0  0999 V2000
   -7.9040    3.9820   27.1177 C   0  0  0  0  0  0  0  0  0  0  0  0
   -7.8663    4.8694   27.9238 C   0  0  0  0  0  0  0  0  0  0  0  0
   -9.0491    3.8523   26.2542 C   0  0  0  0  0  0  0  0  0  0  0  0
   -8.7661    5.9491   27.9690 C   0  0  0  0  0  0  0  0  0  0  0  0
   -9.9295    4.8502   26.2323 C   0  0  0  0  0  0  0  0  0  0  0  0
   -9.8077    5.9288   27.0933 C   0  0  0  0  0  0  0  0  0  0  0  0
   -9.0726    2.7074   25.3087 C   0  0  0  0  0  0  0  0  0  0  0  0
   -9.9788    1.8124   25.6868 C   0  0  1  0  0  0  0  0  0  0  0  0
  -10.7759    1.6495   26.4594 C   0  0  0  0  0  0  0  0  0  0  0  0
  -11.5124    0.4155   26.7940 C   0  0  0  0  0  0  0  0  0  0  0  0
  -12.3362    0.2286   27.9473 C   0  0  0  0  0  0  0  0  0  0  0  0
  -12.4697    1.3287   28.8150 C   0  0  0  0  0  0  0  0  0  0  0  0
  -11.7544    2.5006   28.6755 C   0  0  0  0  0  0  0  0  0  0  0  0
  -10.9733    2.6351   27.6769 C   0  0  0  0  0  0  0  0  0  0  0  0
   -9.9052    0.6473   24.5853 C   0  0  2  0  0  0  0  0  0  0  0  0
   -9.1633    0.8284   23.3489 C   0  0  0  0  0  0  0  0  0  0  0  0
  -11.1703   -0.0382   24.3637 C   0  0  0  0  0  0  0  0  0  0  0  0
  -11.2065   -0.9858   23.3189 C   0  0  0  0  0  0  0  0  0  0  0  0
  3  7  1  0
  8  7  1  6
  8  9  1  0
  8 15  1  0
 15 16  1  6
 15 17  1  0
 17 18  2  0
  1  2  2  0
  2  4  1  0
  4  6  2  0
  6  5  1  0
  5  3  2  0
  3  1  1  0
  9 10  2  0
 10 11  1  0
 11 12  2  0
 12 13  1  0
 13 14  2  0
 14  9  1  0
M  END
$$$$
