No_4288-complexes_sdf/6BKW-FPZ/2024-09-17-14-21-01/
     RDKit          3D

 21 23  0  0  0  0  0  0  0  0999 V2000
   -7.9040    3.9820   27.1177 C   0  0  0  0  0  0  0  0  0  0  0  0
   -9.0711    4.3164   27.0630 C   0  0  0  0  0  0  0  0  0  0  0  0
   -9.5182    5.5541   27.5777 C   0  0  0  0  0  0  0  0  0  0  0  0
   -6.9424    4.7983   27.8424 C   0  0  0  0  0  0  0  0  0  0  0  0
   -7.3526    5.9739   28.3909 C   0  0  0  0  0  0  0  0  0  0  0  0
   -8.6479    6.3742   28.2170 C   0  0  0  0  0  0  0  0  0  0  0  0
  -10.0793    3.4689   26.3368 C   0  0  0  0  0  0  0  0  0  0  0  0
   -9.6567    2.5965   25.4483 C   0  0  0  0  0  0  0  0  0  0  0  0
  -10.5086    1.8159   24.6228 C   0  0  0  0  0  0  0  0  0  0  0  0
  -11.8698    2.1070   24.6818 C   0  0  0  0  0  0  0  0  0  0  0  0
  -11.4792    3.7192   26.2197 C   0  0  0  0  0  0  0  0  0  0  0  0
  -12.3318    3.0883   25.5324 C   0  0  0  0  0  0  0  0  0  0  0  0
   -9.9693    0.7864   23.7389 C   0  0  0  0  0  0  0  0  0  0  0  0
   -9.7678    1.0876   22.4822 C   0  0  0  0  0  0  0  0  0  0  0  0
   -9.1561    0.1072   21.5705 C   0  0  0  0  0  0  0  0  0  0  0  0
   -8.7077   -1.1258   22.0893 C   0  0  0  0  0  0  0  0  0  0  0  0
   -8.8798   -1.3568   23.4447 C   0  0  0  0  0  0  0  0  0  0  0  0
   -9.4306   -0.4255   24.2826 C   0  0  0  0  0  0  0  0  0  0  0  0
  -10.1145    2.3862   21.8266 C   0  0  0  0  0  0  0  0  0  0  0  0
   -9.7226    3.5022   22.1726 C   0  0  0  0  0  0  0  0  0  0  0  0
  -10.4730    4.7494   21.7137 C   0  0  0  0  0  0  0  0  0  0  0  0
  2  7  1  0
  9 13  1  0
 14 19  1  0
 19 20  2  3
 20 21  1  0
  7  8  2  0
  8  9  1  0
  9 10  2  0
 10 12  1  0
 12 11  2  0
 11  7  1  0
 13 14  2  0
 14 15  1  0
 15 16  2  0
 16 17  1  0
 17 18  2  0
 18 13  1  0
  1  2  2  0
  2  3  1  0
  3  6  2  0
  6  5  1  0
  5  4  2  0
  4  1  1  0
M  END
$$$$
