No_4818-complexes_sdf/6BKW-FPZ/2024-09-17-14-21-01/
     RDKit          3D

 12 12  0  0  0  0  0  0  0  0999 V2000
   -7.9040    3.9820   27.1177 C   0  0  0  0  0  0  0  0  0  0  0  0
   -8.2057    2.8231   26.8733 C   0  0  0  0  0  0  0  0  0  0  0  0
   -7.4766    1.7477   27.4593 C   0  0  2  0  0  0  0  0  0  0  0  0
   -8.7468    5.1251   26.6967 C   0  0  0  0  0  0  0  0  0  0  0  0
   -9.7234    4.8589   25.8202 C   0  0  0  0  0  0  0  0  0  0  0  0
   -9.9711    3.5858   25.4266 C   0  0  0  0  0  0  0  0  0  0  0  0
   -9.2266    2.4957   25.9600 C   0  0  0  0  0  0  0  0  0  0  0  0
   -6.1241    1.9216   27.8574 C   0  0  0  0  0  0  0  0  0  0  0  0
   -5.3476    0.8215   28.3513 C   0  0  0  0  0  0  0  0  0  0  0  0
   -5.8615   -0.4216   28.3746 C   0  0  0  0  0  0  0  0  0  0  0  0
   -7.8873    0.3796   27.4328 C   0  0  0  0  0  0  0  0  0  0  0  0
   -9.2316    0.1860   27.0512 C   0  0  0  0  0  0  0  0  0  0  0  0
  2  3  1  0
  3  8  1  0
  8  9  2  3
  9 10  1  0
  3 11  1  6
 11 12  2  0
  1  2  2  0
  2  7  1  0
  7  6  2  0
  6  5  1  0
  5  4  2  0
  4  1  1  0
M  END
$$$$
