No_4497-complexes_sdf/6BKW-FPZ/2024-09-17-14-21-01/
     RDKit          3D

 24 27  0  0  0  0  0  0  0  0999 V2000
   -7.2496    3.8871   27.4508 C   0  0  0  0  0  0  0  0  0  0  0  0
   -7.6161    2.7143   27.1523 C   0  0  0  0  0  0  0  0  0  0  0  0
   -7.1619    1.8631   27.5232 C   0  0  0  0  0  0  0  0  0  0  0  0
   -8.0036    5.1085   27.2100 C   0  0  2  0  0  0  0  0  0  0  0  0
   -9.0764    5.1562   26.4023 C   0  0  0  0  0  0  0  0  0  0  0  0
   -9.5423    3.9741   25.8512 C   0  0  0  0  0  0  0  0  0  0  0  0
   -8.8464    2.7352   26.2619 C   0  0  2  0  0  0  0  0  0  0  0  0
   -7.5925    0.4293   27.3761 C   0  0  0  0  0  0  0  0  0  0  0  0
   -8.8064    0.3083   26.6947 C   0  0  0  0  0  0  0  0  0  0  0  0
   -9.4560    1.4926   26.0294 C   0  0  0  0  0  0  0  0  0  0  0  0
   -7.3491    6.6139   27.9249 Cl  0  0  0  0  0  0  0  0  0  0  0  0
  -10.5971    1.2828   25.2434 C   0  0  0  0  0  0  0  0  0  0  0  0
  -10.8933    0.1397   24.6881 C   0  0  0  0  0  0  0  0  0  0  0  0
  -10.1773   -0.8953   24.8906 C   0  0  0  0  0  0  0  0  0  0  0  0
   -9.1413   -0.9578   26.0564 C   0  0  0  0  0  0  0  0  0  0  0  0
  -10.6103    3.9768   24.9526 C   0  0  0  0  0  0  0  0  0  0  0  0
  -11.1211    2.6638   24.5568 C   0  0  0  0  0  0  0  0  0  0  0  0
  -12.2129    2.5412   23.6460 C   0  0  0  0  0  0  0  0  0  0  0  0
  -12.2744    3.4415   22.7206 C   0  0  0  0  0  0  0  0  0  0  0  0
  -13.1244    1.5544   23.7403 C   0  0  0  0  0  0  0  0  0  0  0  0
  -13.8433    1.4166   24.5784 C   0  0  0  0  0  0  0  0  0  0  0  0
  -14.8620    0.3581   24.6754 C   0  0  0  0  0  0  0  0  0  0  0  0
  -14.8756   -0.5076   23.6567 C   0  0  0  0  0  0  0  0  0  0  0  0
  -14.0180   -0.4061   22.6094 C   0  0  0  0  0  0  0  0  0  0  0  0
  1  2  1  0
  2  3  2  0
  1  4  1  0
  4  5  1  0
  5  6  1  0
  2  7  1  0
  7  6  1  1
  3  8  1  0
  8  9  2  0
  7 10  1  0
  9 10  1  0
  4 11  1  6
 10 12  1  0
 12 13  2  0
 13 14  1  0
  9 15  1  0
 14 15  1  0
  6 16  1  0
 12 17  1  0
 16 17  2  0
 17 18  1  0
 18 19  1  0
 18 20  1  0
 20 21  2  3
 21 22  1  0
 22 23  2  3
 23 24  1  0
M  END
$$$$
