No_4629-complexes_sdf/6BKW-FPZ/2024-09-17-14-21-01/
     RDKit          3D

 30 36  0  0  0  0  0  0  0  0999 V2000
   -7.2496    3.8871   27.4508 C   0  0  0  0  0  0  0  0  0  0  0  0
   -7.6161    2.7143   27.1523 C   0  0  0  0  0  0  0  0  0  0  0  0
   -7.1619    1.8631   27.5232 C   0  0  0  0  0  0  0  0  0  0  0  0
   -8.0384    5.0866   27.3232 C   0  0  0  0  0  0  0  0  0  0  0  0
   -9.1223    5.1097   26.4856 C   0  0  0  0  0  0  0  0  0  0  0  0
   -8.9186    2.6660   26.4794 C   0  0  0  0  0  0  0  0  0  0  0  0
   -9.6149    3.8296   26.1383 C   0  0  0  0  0  0  0  0  0  0  0  0
   -5.7249    1.8517   28.0476 C   0  0  0  0  0  0  0  0  0  0  0  0
   -5.1413    3.1387   28.1499 C   0  0  0  0  0  0  0  0  0  0  0  0
   -5.9148    4.1042   28.0470 C   0  0  0  0  0  0  0  0  0  0  0  0
   -4.9035    0.6292   28.2822 C   0  0  0  0  0  0  0  0  0  0  0  0
   -3.6261    0.7159   28.6054 C   0  0  0  0  0  0  0  0  0  0  0  0
   -2.8688   -0.4383   28.9831 C   0  0  0  0  0  0  0  0  0  0  0  0
   -3.4986   -1.6304   29.1106 C   0  0  0  0  0  0  0  0  0  0  0  0
   -5.3757   -0.6776   28.6150 C   0  0  0  0  0  0  0  0  0  0  0  0
   -6.8853   -0.7568   28.3579 C   0  0  0  0  0  0  0  0  0  0  0  0
   -4.7914   -1.7448   28.9480 C   0  0  0  0  0  0  0  0  0  0  0  0
   -7.6153    0.3686   27.5889 C   0  0  0  0  0  0  0  0  0  0  0  0
  -10.8319    3.7576   25.2890 C   0  0  0  0  0  0  0  0  0  0  0  0
  -11.1979    2.8317   24.8987 C   0  0  0  0  0  0  0  0  0  0  0  0
  -12.4311    2.7801   24.0683 C   0  0  0  0  0  0  0  0  0  0  0  0
  -13.0635    3.9769   23.8721 C   0  0  0  0  0  0  0  0  0  0  0  0
  -12.5556    5.1520   24.3713 C   0  0  0  0  0  0  0  0  0  0  0  0
  -11.4138    5.1182   25.0921 C   0  0  0  0  0  0  0  0  0  0  0  0
   -7.6759   -1.8791   28.6412 C   0  0  0  0  0  0  0  0  0  0  0  0
   -8.8948   -1.9732   28.3466 C   0  0  0  0  0  0  0  0  0  0  0  0
   -9.5745   -0.8848   27.6685 C   0  0  0  0  0  0  0  0  0  0  0  0
   -8.9226    0.2320   27.3808 C   0  0  0  0  0  0  0  0  0  0  0  0
   -9.6512    1.3857   26.5004 C   0  0  0  0  0  0  0  0  0  0  0  0
  -10.7814    1.0298   26.3690 O   0  0  0  0  0  0  0  0  0  0  0  0
  8 11  1  0
 15 16  1  0
  3 18  1  0
  7 19  1  0
  6 29  1  0
 28 29  1  0
 29 30  2  0
  2  3  2  0
  3  8  1  0
  8  9  2  0
  9 10  1  0
 10  1  2  0
 16 18  2  0
 18 28  1  0
 28 27  2  0
 27 26  1  0
 26 25  2  0
 25 16  1  0
 19 20  2  0
 20 21  1  0
 21 22  2  0
 22 23  1  0
 23 24  2  0
 24 19  1  0
 11 12  2  0
 12 13  1  0
 13 14  2  0
 14 17  1  0
 17 15  2  0
 15 11  1  0
  1  2  1  0
  2  6  1  0
  6  7  2  0
  7  5  1  0
  5  4  2  0
  4  1  1  0
M  END
$$$$
