No_4246-complexes_sdf/6BKW-FPZ/2024-09-17-14-21-01/
     RDKit          3D

 32 35  0  0  0  0  0  0  0  0999 V2000
   -7.2496    3.8871   27.4508 C   0  0  0  0  0  0  0  0  0  0  0  0
   -7.9379    4.9063   27.8518 C   0  0  0  0  0  0  0  0  0  0  0  0
   -7.4895    6.2027   27.7481 C   0  0  0  0  0  0  0  0  0  0  0  0
   -7.8057    2.6324   27.3137 C   0  0  0  0  0  0  0  0  0  0  0  0
   -9.1872    2.4678   27.5434 C   0  0  0  0  0  0  0  0  0  0  0  0
   -9.9237    3.5447   27.9999 C   0  0  0  0  0  0  0  0  0  0  0  0
   -9.3832    4.8080   28.1012 C   0  0  0  0  0  0  0  0  0  0  0  0
  -11.3761    3.3018   28.3126 C   0  0  2  0  0  0  0  0  0  0  0  0
  -12.1613    4.2179   28.5758 N   0  0  0  0  0  0  0  0  0  0  0  0
  -13.4431    4.1205   29.0526 C   0  0  0  0  0  0  0  0  0  0  0  0
  -11.9233    1.5656   28.6231 Br  0  0  0  0  0  0  0  0  0  0  0  0
  -14.4221    5.0551   28.6467 C   0  0  0  0  0  0  0  0  0  0  0  0
  -15.6905    5.1110   29.2111 C   0  0  0  0  0  0  0  0  0  0  0  0
  -15.9511    4.1480   30.2207 C   0  0  0  0  0  0  0  0  0  0  0  0
  -15.0314    3.2623   30.6500 C   0  0  0  0  0  0  0  0  0  0  0  0
  -13.7491    3.2964   30.1486 C   0  0  0  0  0  0  0  0  0  0  0  0
   -7.0279    1.4361   26.9325 C   0  0  0  0  0  0  0  0  0  0  0  0
   -7.0739    0.3838   27.5710 N   0  0  0  0  0  0  0  0  0  0  0  0
   -7.9008   -0.5194   27.5749 C   0  0  0  0  0  0  0  0  0  0  0  0
   -7.8807   -1.6843   28.4453 C   0  0  0  0  0  0  0  0  0  0  0  0
   -5.8867    0.0273   28.4007 C   0  0  0  0  0  0  0  0  0  0  0  0
   -5.6935   -1.0467   29.1892 C   0  0  0  0  0  0  0  0  0  0  0  0
   -6.7768   -1.9093   29.2146 C   0  0  0  0  0  0  0  0  0  0  0  0
   -4.7788    0.9807   28.3628 N   0  0  0  0  0  0  0  0  0  0  0  0
   -3.6734    0.6747   29.1321 C   0  0  0  0  0  0  0  0  0  0  0  0
   -3.6156   -0.3292   29.9561 N   0  0  0  0  0  0  0  0  0  0  0  0
   -4.6053   -1.1950   30.0337 C   0  0  0  0  0  0  0  0  0  0  0  0
   -4.5154   -2.1740   30.9438 N   0  0  0  0  0  0  0  0  0  0  0  0
   -4.4023   -2.9390   31.6206 C   0  0  0  0  0  0  0  0  0  0  0  0
   -5.4402   -1.9561   31.5446 N   0  0  0  0  0  0  0  0  0  0  0  0
   -6.6274   -2.2253   31.7107 C   0  0  0  0  0  0  0  0  0  0  0  0
   -7.1948   -2.5502   32.9849 C   0  0  0  0  0  0  0  0  0  0  0  0
  2  3  1  0
  6  8  1  0
  8  9  1  0
  8 11  1  1
  4 17  1  0
 17 18  1  0
 18 19  1  0
 18 21  1  0
 20 23  1  0
 22 23  1  0
 27 28  1  0
 28 29  1  0
 28 30  1  0
 30 31  2  3
 31 32  1  0
  9 10  1  0
 19 20  1  0
 21 24  2  0
 24 25  1  0
 25 26  2  0
 26 27  1  0
 27 22  2  0
 22 21  1  0
  1  2  2  0
  2  7  1  0
  7  6  2  0
  6  5  1  0
  5  4  2  0
  4  1  1  0
 10 12  2  0
 12 13  1  0
 13 14  2  0
 14 15  1  0
 15 16  2  0
 16 10  1  0
M  END
$$$$
