No_4827-complexes_sdf/6BKW-FPZ/2024-09-17-14-21-01/
     RDKit          3D

 17 19  0  0  0  0  0  0  0  0999 V2000
   -7.7129    4.2099   27.0854 C   0  0  0  0  0  0  0  0  0  0  0  0
   -8.2112    3.0637   26.9225 C   0  0  0  0  0  0  0  0  0  0  0  0
   -9.4446    2.8304   26.1868 C   0  0  0  0  0  0  0  0  0  0  0  0
   -8.4697    5.3956   26.7238 C   0  0  0  0  0  0  0  0  0  0  0  0
   -9.6172    5.2111   25.9513 C   0  0  0  0  0  0  0  0  0  0  0  0
  -10.0424    3.9782   25.6873 C   0  0  0  0  0  0  0  0  0  0  0  0
   -7.9321    6.5759   26.9449 F   0  0  0  0  0  0  0  0  0  0  0  0
   -9.8969    1.4744   25.9401 C   0  0  0  0  0  0  0  0  0  0  0  0
   -9.1831    0.5114   26.0828 C   0  0  0  0  0  0  0  0  0  0  0  0
   -7.8938    0.6726   26.8508 C   0  0  0  0  0  0  0  0  0  0  0  0
   -7.4387    1.9158   27.2151 C   0  0  0  0  0  0  0  0  0  0  0  0
   -7.1284   -0.5694   27.2643 C   0  0  0  0  0  0  0  0  0  0  0  0
   -7.5483   -1.6558   27.3546 C   0  0  0  0  0  0  0  0  0  0  0  0
   -6.7822   -2.8103   27.7458 C   0  0  0  0  0  0  0  0  0  0  0  0
   -5.7284   -0.3130   27.6275 C   0  0  0  0  0  0  0  0  0  0  0  0
   -4.9619   -1.3517   28.0961 C   0  0  0  0  0  0  0  0  0  0  0  0
   -5.4826   -2.6072   28.1639 C   0  0  0  0  0  0  0  0  0  0  0  0
  4  7  1  0
 10 12  1  0
 12 13  2  0
 13 14  1  0
 14 17  2  0
 17 16  1  0
 16 15  2  0
 15 12  1  0
  1  2  2  0
  3  6  2  0
  6  5  1  0
  5  4  2  0
  4  1  1  0
  2  3  1  0
  3  8  1  0
  8  9  2  0
  9 10  1  0
 10 11  2  0
 11  2  1  0
M  END
$$$$
