No_4277-complexes_sdf/6BKW-FPZ/2024-09-17-14-21-01/
     RDKit          3D

 15 16  0  0  0  0  0  0  0  0999 V2000
   -7.9040    3.9820   27.1177 C   0  0  0  0  0  0  0  0  0  0  0  0
   -7.8663    4.8694   27.9238 C   0  0  0  0  0  0  0  0  0  0  0  0
   -9.0491    3.8523   26.2542 C   0  0  0  0  0  0  0  0  0  0  0  0
   -9.7161    4.8785   25.9890 C   0  0  0  0  0  0  0  0  0  0  0  0
   -8.5086    6.0982   27.7096 C   0  0  0  0  0  0  0  0  0  0  0  0
   -9.5239    6.1123   26.7949 C   0  0  0  0  0  0  0  0  0  0  0  0
   -7.1424    2.6573   27.4270 C   0  0  0  0  0  0  0  0  0  0  0  0
   -5.8938    2.7106   28.0299 C   0  0  0  0  0  0  0  0  0  0  0  0
   -5.1093    1.5373   28.1385 C   0  0  0  0  0  0  0  0  0  0  0  0
   -5.6406    0.3279   27.7506 C   0  0  0  0  0  0  0  0  0  0  0  0
   -7.5809    1.4097   26.9885 C   0  0  0  0  0  0  0  0  0  0  0  0
   -6.9239    0.2909   27.2052 C   0  0  0  0  0  0  0  0  0  0  0  0
   -4.8533   -0.8779   28.0026 C   0  0  0  0  0  0  0  0  0  0  0  0
   -5.2094   -1.9087   27.7629 C   0  0  0  0  0  0  0  0  0  0  0  0
   -4.4243   -3.1510   27.9640 C   0  0  0  0  0  0  0  0  0  0  0  0
  1  7  1  0
 10 13  1  0
 13 14  2  3
 14 15  1  0
  7  8  2  0
  8  9  1  0
  9 10  2  0
 10 12  1  0
 12 11  2  0
 11  7  1  0
  1  2  2  0
  2  5  1  0
  5  6  2  0
  6  4  1  0
  4  3  2  0
  3  1  1  0
M  END
$$$$
