No_432-complexes_sdf/6BKW-FPZ/2024-09-17-14-21-01/
     RDKit          3D

 19 21  0  0  0  0  0  0  0  0999 V2000
   -7.9040    3.9820   27.1177 C   0  0  0  0  0  0  0  0  0  0  0  0
   -9.0711    4.3164   27.0630 C   0  0  0  0  0  0  0  0  0  0  0  0
   -9.5294    5.4517   27.7215 C   0  0  0  0  0  0  0  0  0  0  0  0
   -6.9328    4.7309   27.8881 C   0  0  0  0  0  0  0  0  0  0  0  0
   -7.3377    5.8421   28.5537 C   0  0  0  0  0  0  0  0  0  0  0  0
   -8.6411    6.2609   28.3972 C   0  0  0  0  0  0  0  0  0  0  0  0
  -10.0467    3.4917   26.2630 C   0  0  0  0  0  0  0  0  0  0  0  0
   -9.5472    2.5898   25.4413 C   0  0  0  0  0  0  0  0  0  0  0  0
  -10.1940    2.2424   24.2992 C   0  0  0  0  0  0  0  0  0  0  0  0
  -11.4809    2.7447   24.0368 C   0  0  0  0  0  0  0  0  0  0  0  0
  -11.9818    3.7418   24.8850 C   0  0  0  0  0  0  0  0  0  0  0  0
  -11.2095    4.2355   25.9024 C   0  0  0  0  0  0  0  0  0  0  0  0
   -9.7280    1.0806   23.4355 C   0  0  0  0  0  0  0  0  0  0  0  0
   -8.6976    0.3634   23.8222 C   0  0  0  0  0  0  0  0  0  0  0  0
   -8.0172    0.6813   25.0739 C   0  0  0  0  0  0  0  0  0  0  0  0
   -8.4129    1.7543   25.8025 N   0  0  0  0  0  0  0  0  0  0  0  0
  -12.2591    2.3680   22.8776 C   0  0  0  0  0  0  0  0  0  0  0  0
  -13.2560    3.1886   22.4290 C   0  0  0  0  0  0  0  0  0  0  0  0
  -13.7795    4.1289   23.3699 C   0  0  0  0  0  0  0  0  0  0  0  0
  2  7  1  0
 10 17  1  0
 17 18  2  3
 18 19  1  0
  9 13  1  0
 13 14  2  0
 14 15  1  0
 15 16  2  0
 16  8  1  0
  1  2  2  0
  2  3  1  0
  3  6  2  0
  6  5  1  0
  5  4  2  0
  4  1  1  0
  7  8  2  0
  8  9  1  0
  9 10  2  0
 10 11  1  0
 11 12  2  0
 12  7  1  0
M  END
$$$$
