No_4973-complexes_sdf/6BKW-FPZ/2024-09-17-14-21-01/
     RDKit          3D

 40 45  0  0  0  0  0  0  0  0999 V2000
   -7.7129    4.2099   27.0854 C   0  0  0  0  0  0  0  0  0  0  0  0
   -8.2112    3.0637   26.9225 C   0  0  0  0  0  0  0  0  0  0  0  0
   -7.0021    4.5281   28.2396 C   0  0  0  0  0  0  0  0  0  0  0  0
   -9.4237    2.7810   26.2714 C   0  0  0  0  0  0  0  0  0  0  0  0
   -9.8781    3.7859   25.4663 C   0  0  0  0  0  0  0  0  0  0  0  0
   -9.3216    5.0929   25.5901 C   0  0  0  0  0  0  0  0  0  0  0  0
   -8.4485    5.3451   26.5217 C   0  0  0  0  0  0  0  0  0  0  0  0
  -10.9762    3.5523   24.5115 C   0  0  0  0  0  0  0  0  0  0  0  0
  -12.1663    3.2167   24.9313 C   0  0  0  0  0  0  0  0  0  0  0  0
  -10.7203    3.7246   23.1279 C   0  0  0  0  0  0  0  0  0  0  0  0
  -11.6800    3.5855   22.1663 C   0  0  0  0  0  0  0  0  0  0  0  0
  -13.2317    3.0439   23.9764 C   0  0  0  0  0  0  0  0  0  0  0  0
  -12.9631    3.2330   22.6018 C   0  0  0  0  0  0  0  0  0  0  0  0
   -7.5590    1.6293   27.7756 Cl  0  0  0  0  0  0  0  0  0  0  0  0
   -8.0125    6.6909   26.8649 C   0  0  0  0  0  0  0  0  0  0  0  0
   -6.7967    5.8631   28.7527 C   0  0  0  0  0  0  0  0  0  0  0  0
   -7.2361    6.8528   28.0110 N   0  0  0  0  0  0  0  0  0  0  0  0
   -8.5077    7.9241   26.4334 N   0  0  0  0  0  0  0  0  0  0  0  0
  -11.4002    3.7989   20.7736 C   0  0  0  0  0  0  0  0  0  0  0  0
  -10.7407    2.7376   20.1682 C   0  0  0  0  0  0  0  0  0  0  0  0
  -10.0008    2.0388   21.1101 C   0  0  0  0  0  0  0  0  0  0  0  0
  -10.4974    0.7872   21.7484 C   0  0  0  0  0  0  0  0  0  0  0  0
   -9.6516    0.0661   22.5840 C   0  0  0  0  0  0  0  0  0  0  0  0
  -10.1423   -1.0619   23.2955 C   0  0  0  0  0  0  0  0  0  0  0  0
  -11.4905   -1.4078   23.0748 C   0  0  0  0  0  0  0  0  0  0  0  0
  -12.2689   -0.6972   22.1652 C   0  0  0  0  0  0  0  0  0  0  0  0
  -11.7873    0.4204   21.5178 C   0  0  0  0  0  0  0  0  0  0  0  0
  -13.6695   -1.0981   21.9478 C   0  0  0  0  0  0  0  0  0  0  0  0
  -14.4072   -1.4359   22.7424 C   0  0  0  0  0  0  0  0  0  0  0  0
  -14.1106   -0.9977   20.5663 C   0  0  0  0  0  0  0  0  0  0  0  0
  -15.7707   -1.8093   22.5750 C   0  0  0  0  0  0  0  0  0  0  0  0
  -13.2872   -0.6045   19.5087 C   0  0  0  0  0  0  0  0  0  0  0  0
  -16.1732   -1.7334   21.2500 C   0  0  0  0  0  0  0  0  0  0  0  0
  -15.3886   -1.3306   20.2564 C   0  0  0  0  0  0  0  0  0  0  0  0
  -13.6507    0.3532   18.6368 C   0  0  0  0  0  0  0  0  0  0  0  0
  -12.1052   -1.3842   19.1535 C   0  0  0  0  0  0  0  0  0  0  0  0
  -12.9592    0.7775   17.5203 C   0  0  0  0  0  0  0  0  0  0  0  0
  -11.3454   -1.0104   18.0007 C   0  0  0  0  0  0  0  0  0  0  0  0
  -11.7769    0.0549   17.1897 C   0  0  0  0  0  0  0  0  0  0  0  0
  -10.1003   -1.7072   17.6813 C   0  0  0  0  0  0  0  0  0  0  0  0
  5  8  1  0
  2 14  1  0
 15 18  1  0
 11 19  1  0
 19 20  1  0
 20 21  1  0
 26 28  1  0
 30 32  1  0
 38 40  1  0
 21 22  1  0
  1  3  1  0
  3 16  2  0
 16 17  1  0
 17 15  2  0
 15  7  1  0
 32 35  2  0
 35 37  1  0
 37 39  2  0
 39 38  1  0
 38 36  2  0
 36 32  1  0
 22 23  2  0
 23 24  1  0
 24 25  2  0
 25 26  1  0
 26 27  2  0
 27 22  1  0
 28 29  2  0
 29 31  1  0
 31 33  2  0
 33 34  1  0
 34 30  2  0
 30 28  1  0
  8  9  2  0
  9 12  1  0
 12 13  2  0
 13 11  1  0
 11 10  2  0
 10  8  1  0
  1  2  2  0
  2  4  1  0
  4  5  2  0
  5  6  1  0
  6  7  2  0
  7  1  1  0
M  END
$$$$
