No_4720-complexes_sdf/6BKW-FPZ/2024-09-17-14-21-01/
     RDKit          3D

 10 10  0  0  0  0  0  0  0  0999 V2000
   -7.2496    3.8871   27.4508 C   0  0  0  0  0  0  0  0  0  0  0  0
   -8.5096    4.0291   27.2770 C   0  0  0  0  0  0  0  0  0  0  0  0
   -9.2677    5.1714   27.5773 C   0  0  0  0  0  0  0  0  0  0  0  0
   -6.5550    4.9883   28.1029 C   0  0  0  0  0  0  0  0  0  0  0  0
   -8.5395    6.2425   28.0724 C   0  0  0  0  0  0  0  0  0  0  0  0
   -7.1794    6.1173   28.2629 C   0  0  0  0  0  0  0  0  0  0  0  0
   -9.3001    2.8163   26.7852 C   0  0  0  0  0  0  0  0  0  0  0  0
   -8.7065    2.0866   25.8104 C   0  0  0  0  0  0  0  0  0  0  0  0
   -9.2976    0.9979   25.2854 C   0  0  0  0  0  0  0  0  0  0  0  0
   -8.6631    0.2528   24.2519 C   0  0  0  0  0  0  0  0  0  0  0  0
  2  7  1  0
  7  8  2  3
  8  9  1  0
  9 10  2  0
  1  2  2  0
  2  3  1  0
  3  5  2  0
  5  6  1  0
  6  4  2  0
  4  1  1  0
M  END
$$$$
