No_4925-complexes_sdf/6BKW-FPZ/2024-09-17-14-21-01/
     RDKit          3D

 30 34  0  0  0  0  0  0  0  0999 V2000
   -7.9040    3.9820   27.1177 C   0  0  0  0  0  0  0  0  0  0  0  0
   -7.8663    4.8694   27.9238 C   0  0  0  0  0  0  0  0  0  0  0  0
   -7.4698    2.6989   27.4277 C   0  0  0  0  0  0  0  0  0  0  0  0
   -7.9683    1.5964   26.8266 C   0  0  0  0  0  0  0  0  0  0  0  0
   -7.5288    0.3101   27.1202 C   0  0  0  0  0  0  0  0  0  0  0  0
   -8.3245   -0.7895   26.7699 C   0  0  0  0  0  0  0  0  0  0  0  0
   -8.6045    6.0684   27.7548 C   0  0  0  0  0  0  0  0  0  0  0  0
   -9.3997   -0.5474   25.8960 C   0  0  0  0  0  0  0  0  0  0  0  0
   -9.7656    0.7058   25.5279 C   0  0  0  0  0  0  0  0  0  0  0  0
   -9.0247    1.8010   26.0175 C   0  0  0  0  0  0  0  0  0  0  0  0
   -9.0740    6.4441   26.4035 C   0  0  0  0  0  0  0  0  0  0  0  0
   -8.7979    4.2648   25.9942 C   0  0  0  0  0  0  0  0  0  0  0  0
   -9.2784    5.4698   25.7074 C   0  0  0  0  0  0  0  0  0  0  0  0
   -9.3537    3.0065   25.3741 C   0  0  0  0  0  0  0  0  0  0  0  0
  -10.8703    0.8409   24.5459 C   0  0  0  0  0  0  0  0  0  0  0  0
  -12.0075    1.2018   25.0420 C   0  0  0  0  0  0  0  0  0  0  0  0
  -12.9833    1.7458   24.2876 C   0  0  0  0  0  0  0  0  0  0  0  0
  -12.8307    1.7949   22.9187 C   0  0  0  0  0  0  0  0  0  0  0  0
  -10.5530    0.9891   23.1674 C   0  0  0  0  0  0  0  0  0  0  0  0
  -11.5694    1.4938   22.3202 C   0  0  0  0  0  0  0  0  0  0  0  0
   -6.3770    0.1254   28.0650 C   0  0  0  0  0  0  0  0  0  0  0  0
   -5.2005    0.9051   27.8624 C   0  0  0  0  0  0  0  0  0  0  0  0
   -4.0771    0.7124   28.7149 C   0  0  0  0  0  0  0  0  0  0  0  0
   -3.8656   -0.5382   29.0322 C   0  0  0  0  0  0  0  0  0  0  0  0
   -2.7497   -0.7960   29.9383 C   0  0  0  0  0  0  0  0  0  0  0  0
   -6.1426   -1.0424   28.7964 C   0  0  0  0  0  0  0  0  0  0  0  0
   -4.9934   -1.3062   29.4383 C   0  0  0  0  0  0  0  0  0  0  0  0
   -1.7894   -1.1706   29.1860 F   0  0  0  0  0  0  0  0  0  0  0  0
   -2.2399    0.3506   30.5823 F   0  0  0  0  0  0  0  0  0  0  0  0
   -2.8881   -1.7497   30.8442 F   0  0  0  0  0  0  0  0  0  0  0  0
  1  3  1  0
  3  4  1  0
 10 14  1  0
 12 14  1  0
  9 15  1  0
  5 21  1  0
 24 25  1  0
 25 28  1  0
 25 29  1  0
 25 30  1  0
  4  5  2  0
  5  6  1  0
  6  8  2  0
  8  9  1  0
  9 10  2  0
 10  4  1  0
  1  2  2  0
  2  7  1  0
  7 11  2  0
 11 13  1  0
 13 12  2  0
 12  1  1  0
 21 22  2  0
 22 23  1  0
 23 24  2  0
 24 27  1  0
 27 26  2  0
 26 21  1  0
 15 16  2  0
 16 17  1  0
 17 18  2  0
 18 20  1  0
 20 19  2  0
 19 15  1  0
M  END
$$$$
