No_438-complexes_sdf/6BKW-FPZ/2024-09-17-14-21-01/
     RDKit          3D

 32 37  0  0  0  0  0  0  0  0999 V2000
   -7.7129    4.2099   27.0854 C   0  0  0  0  0  0  0  0  0  0  0  0
   -7.7814    5.1722   27.8972 C   0  0  0  0  0  0  0  0  0  0  0  0
   -8.8998    3.8713   26.3707 C   0  0  0  0  0  0  0  0  0  0  0  0
   -9.7416    3.2213   26.9591 C   0  0  0  0  0  0  0  0  0  0  0  0
  -10.0326    3.7911   28.3648 C   0  0  0  0  0  0  0  0  0  0  0  0
   -8.9883    5.6119   28.3672 C   0  0  0  0  0  0  0  0  0  0  0  0
   -9.9416    4.7701   28.8031 C   0  0  0  0  0  0  0  0  0  0  0  0
  -10.5085    2.1036   26.4307 C   0  0  2  0  0  0  0  0  0  0  0  0
  -10.2230    0.8742   26.9624 C   0  0  0  0  0  0  0  0  0  0  0  0
   -9.1385    0.4076   27.3574 C   0  0  0  0  0  0  0  0  0  0  0  0
   -8.9381   -0.9030   27.9779 C   0  0  0  0  0  0  0  0  0  0  0  0
  -10.0927   -1.6323   28.2704 C   0  0  0  0  0  0  0  0  0  0  0  0
  -11.4852    0.0480   27.2562 C   0  0  0  0  0  0  0  0  0  0  0  0
  -11.3240   -1.1791   27.8878 C   0  0  0  0  0  0  0  0  0  0  0  0
  -11.1849    2.2714   25.2885 C   0  0  0  0  0  0  0  0  0  0  0  0
  -12.4773    2.8923   25.3990 C   0  0  0  0  0  0  0  0  0  0  0  0
  -13.0512    3.4313   24.3333 C   0  0  0  0  0  0  0  0  0  0  0  0
  -10.8107    1.7398   24.1047 C   0  0  0  0  0  0  0  0  0  0  0  0
  -11.4737    2.1066   22.9262 C   0  0  0  0  0  0  0  0  0  0  0  0
  -12.6080    2.9474   23.0573 C   0  0  0  0  0  0  0  0  0  0  0  0
   -7.6079   -1.3703   28.4069 C   0  0  0  0  0  0  0  0  0  0  0  0
   -7.4185   -2.3126   29.3793 C   0  0  0  0  0  0  0  0  0  0  0  0
   -6.1134   -2.6276   29.8146 C   0  0  0  0  0  0  0  0  0  0  0  0
   -5.0345   -1.9208   29.2976 C   0  0  0  0  0  0  0  0  0  0  0  0
   -5.2199   -0.8890   28.3454 C   0  0  0  0  0  0  0  0  0  0  0  0
   -6.5159   -0.5435   27.9650 C   0  0  0  0  0  0  0  0  0  0  0  0
   -4.0858   -0.0557   27.8602 C   0  0  0  0  0  0  0  0  0  0  0  0
   -4.2931    0.9041   26.8934 C   0  0  0  0  0  0  0  0  0  0  0  0
   -5.6306    1.2921   26.7251 C   0  0  0  0  0  0  0  0  0  0  0  0
   -6.6654    0.5559   27.1003 C   0  0  0  0  0  0  0  0  0  0  0  0
   -7.9451    1.0280   26.8586 C   0  0  0  0  0  0  0  0  0  0  0  0
   -2.8521   -0.9885   27.6413 C   0  0  0  0  0  0  0  0  0  0  0  0
  1  2  1  0
  1  3  1  0
  3  4  2  0
  4  5  1  0
  2  6  2  0
  5  7  2  0
  6  7  1  0
  8  4  1  6
  8  9  1  0
  8 15  1  0
 11 21  1  0
 10 31  1  0
 30 31  1  0
 27 32  1  0
 15 16  2  0
 16 17  1  0
 17 20  2  0
 20 19  1  0
 19 18  2  0
 18 15  1  0
 26 30  2  0
 30 29  1  0
 29 28  2  0
 28 27  1  0
 27 25  2  0
  9 10  2  0
 10 11  1  0
 11 12  2  0
 12 14  1  0
 14 13  2  0
 13  9  1  0
 21 22  2  0
 22 23  1  0
 23 24  2  0
 24 25  1  0
 25 26  1  0
 26 21  1  0
M  END
$$$$
