No_4347-complexes_sdf/6BKW-FPZ/2024-09-17-14-21-01/
     RDKit          3D

 23 25  0  0  0  0  0  0  0  0999 V2000
   -7.2496    3.8871   27.4508 C   0  0  0  0  0  0  0  0  0  0  0  0
   -7.9379    4.9063   27.8518 C   0  0  0  0  0  0  0  0  0  0  0  0
   -7.5112    6.1898   27.6280 C   0  0  0  0  0  0  0  0  0  0  0  0
   -7.8078    2.6331   27.2522 C   0  0  0  0  0  0  0  0  0  0  0  0
   -9.1846    2.4724   27.5426 C   0  0  0  0  0  0  0  0  0  0  0  0
   -9.9168    3.5155   28.0405 C   0  0  0  0  0  0  0  0  0  0  0  0
   -9.3366    4.7963   28.1727 C   0  0  0  0  0  0  0  0  0  0  0  0
  -11.3249    3.2653   28.4083 C   0  0  0  0  0  0  0  0  0  0  0  0
  -11.8069    2.0065   28.6522 C   0  0  0  0  0  0  0  0  0  0  0  0
  -10.9643    0.9782   28.1020 C   0  0  0  0  0  0  0  0  0  0  0  0
   -9.7059    1.1566   27.6391 C   0  0  0  0  0  0  0  0  0  0  0  0
   -7.0179    1.4786   26.8592 C   0  0  0  0  0  0  0  0  0  0  0  0
   -6.3335    1.0034   27.8678 F   0  0  0  0  0  0  0  0  0  0  0  0
   -6.1857    1.7229   25.8417 F   0  0  0  0  0  0  0  0  0  0  0  0
   -7.7607    0.4358   26.2865 F   0  0  0  0  0  0  0  0  0  0  0  0
   -7.4461    6.5628   26.5400 F   0  0  0  0  0  0  0  0  0  0  0  0
  -13.1427    1.7374   29.0824 C   0  0  0  0  0  0  0  0  0  0  0  0
  -13.6898    0.5641   29.1978 C   0  0  0  0  0  0  0  0  0  0  0  0
  -14.9934    0.3329   29.7284 C   0  0  0  0  0  0  0  0  0  0  0  0
  -15.7028    1.4765   30.1433 C   0  0  0  0  0  0  0  0  0  0  0  0
  -15.1838    2.7289   30.0839 C   0  0  0  0  0  0  0  0  0  0  0  0
  -13.9016    2.9446   29.6021 C   0  0  0  0  0  0  0  0  0  0  0  0
   -6.1947    6.3425   28.1975 F   0  0  0  0  0  0  0  0  0  0  0  0
  4 12  1  0
 12 13  1  0
 12 14  1  0
 12 15  1  0
  3 16  1  0
  9 17  1  0
  3 23  1  0
  3  2  1  0
  6  8  1  0
  8  9  2  0
  9 10  1  0
 10 11  2  0
 11  5  1  0
 17 18  2  0
 18 19  1  0
 19 20  2  0
 20 21  1  0
 21 22  2  0
 22 17  1  0
  1  2  2  0
  2  7  1  0
  7  6  2  0
  6  5  1  0
  5  4  2  0
  4  1  1  0
M  END
$$$$
