No_423-complexes_sdf/6BKW-FPZ/2024-09-17-14-21-01/
     RDKit          3D

 40 44  0  0  0  0  0  0  0  0999 V2000
   -7.2496    3.8871   27.4508 C   0  0  0  0  0  0  0  0  0  0  0  0
   -7.6161    2.7143   27.1523 C   0  0  0  0  0  0  0  0  0  0  0  0
   -8.6007    2.2754   27.5344 C   0  0  0  0  0  0  0  0  0  0  0  0
   -8.1723    4.9077   27.9308 C   0  0  0  0  0  0  0  0  0  0  0  0
   -9.4278    4.3838   28.2178 C   0  0  0  0  0  0  0  0  0  0  0  0
   -9.7104    3.0651   28.0405 C   0  0  0  0  0  0  0  0  0  0  0  0
   -7.8415    6.1151   28.1650 F   0  0  0  0  0  0  0  0  0  0  0  0
   -9.0805    0.8828   27.3222 N   0  0  0  0  0  0  0  0  0  0  0  0
   -9.5948    0.3577   26.3658 C   0  0  2  0  0  0  0  0  0  0  0  0
   -9.9240    0.9384   25.3515 C   0  0  0  0  0  0  0  0  0  0  0  0
  -10.5400    1.8811   25.0656 C   0  0  0  0  0  0  0  0  0  0  0  0
  -10.7744    2.5238   23.7185 C   0  0  0  0  0  0  0  0  0  0  0  0
  -10.2478    1.8712   22.6693 C   0  0  0  0  0  0  0  0  0  0  0  0
   -9.3113    0.3673   23.9382 C   0  0  0  0  0  0  0  0  0  0  0  0
   -9.4954    0.8061   22.7512 C   0  0  0  0  0  0  0  0  0  0  0  0
  -10.4985   -1.0526   26.6528 Cl  0  0  0  0  0  0  0  0  0  0  0  0
  -10.4693    2.4791   21.2538 C   0  0  0  0  0  0  0  0  0  0  0  0
  -10.5847    1.6737   20.4339 F   0  0  0  0  0  0  0  0  0  0  0  0
   -9.4445    3.3623   21.0408 F   0  0  0  0  0  0  0  0  0  0  0  0
  -11.5398    3.3372   21.2277 F   0  0  0  0  0  0  0  0  0  0  0  0
   -8.4122   -0.8888   24.1766 C   0  0  0  0  0  0  0  0  0  0  0  0
   -7.7885   -1.3367   23.1680 C   0  0  0  0  0  0  0  0  0  0  0  0
   -6.9577   -2.0612   23.1710 C   0  0  0  0  0  0  0  0  0  0  0  0
   -6.3299   -2.5997   24.4088 C   0  0  0  0  0  0  0  0  0  0  0  0
   -6.8969   -2.0671   25.5870 C   0  0  0  0  0  0  0  0  0  0  0  0
   -7.8034   -1.1488   25.4693 C   0  0  0  0  0  0  0  0  0  0  0  0
   -6.2565   -2.4796   26.8709 C   0  0  0  0  0  0  0  0  0  0  0  0
   -6.8920   -2.1170   28.0365 C   0  0  0  0  0  0  0  0  0  0  0  0
   -5.0626   -3.1537   26.9440 C   0  0  0  0  0  0  0  0  0  0  0  0
   -6.6259   -2.6331   29.2816 C   0  0  0  0  0  0  0  0  0  0  0  0
   -5.4281   -3.1831   29.4552 C   0  0  0  0  0  0  0  0  0  0  0  0
   -4.6912   -3.6510   28.2894 C   0  0  0  0  0  0  0  0  0  0  0  0
   -5.0660   -3.6714   30.6771 O   0  0  0  0  0  0  0  0  0  0  0  0
   -5.1796   -2.9097   31.7570 C   0  0  0  0  0  0  0  0  0  0  0  0
   -6.3395   -3.0175   32.5350 C   0  0  0  0  0  0  0  0  0  0  0  0
   -6.6735   -1.9475   33.3338 C   0  0  0  0  0  0  0  0  0  0  0  0
   -5.7837   -0.8834   33.6292 C   0  0  0  0  0  0  0  0  0  0  0  0
   -4.6037   -0.8129   32.8724 C   0  0  0  0  0  0  0  0  0  0  0  0
   -4.3893   -1.7521   31.9123 C   0  0  0  0  0  0  0  0  0  0  0  0
   -3.1661   -1.6134   31.0783 C   0  0  0  0  0  0  0  0  0  0  0  0
  4  7  1  0
  3  8  1  0
  8  9  1  0
  9 10  1  0
  9 16  1  1
 13 17  1  0
 17 18  1  0
 17 19  1  0
 17 20  1  0
 14 21  1  0
 25 27  1  0
 31 33  1  0
 33 34  1  0
 39 40  1  0
  1  2  2  0
  2  3  1  0
  3  6  2  0
  6  5  1  0
  5  4  2  0
  4  1  1  0
 10 11  2  0
 11 12  1  0
 12 13  2  0
 13 15  1  0
 15 14  2  0
 14 10  1  0
 34 35  2  0
 35 36  1  0
 36 37  2  0
 37 38  1  0
 38 39  2  0
 39 34  1  0
 27 28  2  0
 28 30  1  0
 30 31  2  0
 31 32  1  0
 32 29  2  0
 29 27  1  0
 21 22  2  0
 22 23  1  0
 23 24  2  0
 24 25  1  0
 25 26  2  0
 26 21  1  0
M  END
$$$$
