No_4864-complexes_sdf/6BKW-FPZ/2024-09-17-14-21-01/
     RDKit          3D

 14 15  0  0  0  0  0  0  0  0999 V2000
   -7.9040    3.9820   27.1177 C   0  0  0  0  0  0  0  0  0  0  0  0
   -8.2057    2.8231   26.8733 C   0  0  0  0  0  0  0  0  0  0  0  0
   -9.2962    2.4021   26.1155 C   0  0  0  0  0  0  0  0  0  0  0  0
   -8.7358    5.0662   26.5917 C   0  0  0  0  0  0  0  0  0  0  0  0
   -9.7618    4.7023   25.7546 C   0  0  0  0  0  0  0  0  0  0  0  0
  -10.0066    3.4105   25.4922 C   0  0  0  0  0  0  0  0  0  0  0  0
   -8.4388    6.3309   26.8587 F   0  0  0  0  0  0  0  0  0  0  0  0
   -9.7424    1.0344   25.8081 C   0  0  0  0  0  0  0  0  0  0  0  0
   -9.0305    0.1685   25.6428 C   0  0  0  0  0  0  0  0  0  0  0  0
   -9.4132   -1.2514   25.4551 C   0  0  0  0  0  0  0  0  0  0  0  0
  -10.7843   -1.4549   25.4442 C   0  0  0  0  0  0  0  0  0  0  0  0
  -11.1178    0.5838   25.8456 C   0  0  0  0  0  0  0  0  0  0  0  0
  -11.5814   -0.5410   25.7256 C   0  0  0  0  0  0  0  0  0  0  0  0
   -6.8583    4.4246   27.9331 O   0  0  0  0  0  0  0  0  0  0  0  0
  4  7  1  0
  3  8  1  0
  1 14  1  0
  1  2  2  0
  2  3  1  0
  3  6  2  0
  6  5  1  0
  5  4  2  0
  4  1  1  0
  8  9  2  0
  9 10  1  0
 10 11  2  0
 11 13  1  0
 13 12  2  0
 12  8  1  0
M  END
$$$$
