No_4710-complexes_sdf/6BKW-FPZ/2024-09-17-14-21-01/
     RDKit          3D

 20 22  0  0  0  0  0  0  0  0999 V2000
   -7.9040    3.9820   27.1177 C   0  0  0  0  0  0  0  0  0  0  0  0
   -8.2057    2.8231   26.8733 C   0  0  0  0  0  0  0  0  0  0  0  0
   -8.7695    5.0740   26.7916 C   0  0  2  0  0  0  0  0  0  0  0  0
   -9.7106    4.8936   25.8755 C   0  0  0  0  0  0  0  0  0  0  0  0
   -9.2219    2.4558   25.9830 C   0  0  0  0  0  0  0  0  0  0  0  0
   -9.9766    3.5921   25.5076 C   0  0  0  0  0  0  0  0  0  0  0  0
   -8.3582    6.4873   27.1330 C   0  0  0  0  0  0  0  0  0  0  0  0
   -8.9339    7.4625   26.7227 O   0  0  0  0  0  0  0  0  0  0  0  0
   -7.0794    6.5517   27.6977 O   0  0  0  0  0  0  0  0  0  0  0  0
   -7.3605    1.6310   27.3612 C   0  0  0  0  0  0  0  0  0  0  0  0
   -6.1415    1.8608   27.8199 N   0  0  0  0  0  0  0  0  0  0  0  0
   -5.3744    0.7811   28.2722 C   0  0  0  0  0  0  0  0  0  0  0  0
   -4.0194    0.9877   28.7840 C   0  0  0  0  0  0  0  0  0  0  0  0
   -5.9613   -0.5079   28.1570 C   0  0  0  0  0  0  0  0  0  0  0  0
   -7.8524    0.3970   27.3437 N   0  0  0  0  0  0  0  0  0  0  0  0
   -9.1677    0.2401   26.9279 C   0  0  0  0  0  0  0  0  0  0  0  0
   -9.8055    1.2091   26.1046 C   0  0  0  0  0  0  0  0  0  0  0  0
   -5.2321   -1.6055   28.6688 C   0  0  0  0  0  0  0  0  0  0  0  0
   -3.3341   -0.1116   29.2951 C   0  0  0  0  0  0  0  0  0  0  0  0
   -3.9242   -1.3701   29.2429 C   0  0  0  0  0  0  0  0  0  0  0  0
  1  2  1  0
  1  3  1  0
  3  4  1  0
  4  6  1  0
  5  6  1  0
  3  7  1  6
  7  8  2  0
  7  9  1  0
 10 11  1  0
 11 12  1  0
  2  5  2  0
  5 17  1  0
 17 16  2  0
 16 15  1  0
 15 10  2  0
 10  2  1  0
 12 13  2  0
 13 19  1  0
 19 20  2  0
 20 18  1  0
 18 14  2  0
 14 12  1  0
M  END
$$$$
