No_4081-complexes_sdf/6BKW-FPZ/2024-09-17-14-21-01/
     RDKit          3D

 21 22  0  0  0  0  0  0  0  0999 V2000
   -7.9040    3.9820   27.1177 C   0  0  0  0  0  0  0  0  0  0  0  0
   -8.2057    2.8231   26.8733 C   0  0  0  0  0  0  0  0  0  0  0  0
   -8.7695    5.0740   26.7916 C   0  0  0  0  0  0  0  0  0  0  0  0
   -9.9618    4.7598   26.1630 C   0  0  0  0  0  0  0  0  0  0  0  0
   -9.4200    2.4524   26.2849 C   0  0  0  0  0  0  0  0  0  0  0  0
  -10.2590    3.4815   25.9250 C   0  0  0  0  0  0  0  0  0  0  0  0
   -8.4080    6.3773   27.0676 N   0  0  0  0  0  0  0  0  0  0  0  0
   -8.1552    7.3524   26.2381 C   0  0  0  0  0  0  0  0  0  0  0  0
   -7.2738    1.6595   27.2911 C   0  0  0  0  0  0  0  0  0  0  0  0
   -6.5997    0.9606   26.6648 C   0  0  0  0  0  0  0  0  0  0  0  0
   -5.7096   -0.0143   27.3311 C   0  0  0  0  0  0  0  0  0  0  0  0
   -5.6624   -1.2069   27.1867 C   0  0  0  0  0  0  0  0  0  0  0  0
   -6.7145   -1.8912   26.9656 C   0  0  0  0  0  0  0  0  0  0  0  0
   -6.7078   -3.2505   26.8142 C   0  0  0  0  0  0  0  0  0  0  0  0
   -7.8769   -4.0139   26.5415 C   0  0  0  0  0  0  0  0  0  0  0  0
   -9.0877   -3.2981   26.4706 C   0  0  0  0  0  0  0  0  0  0  0  0
   -9.1569   -1.9327   26.6646 C   0  0  0  0  0  0  0  0  0  0  0  0
   -8.0462   -1.2358   26.9301 C   0  0  0  0  0  0  0  0  0  0  0  0
  -10.5239   -1.2951   26.6694 C   0  0  0  0  0  0  0  0  0  0  0  0
  -11.1264   -0.8636   25.7754 C   0  0  0  0  0  0  0  0  0  0  0  0
  -12.3998   -0.2614   25.8621 C   0  0  0  0  0  0  0  0  0  0  0  0
  3  7  1  0
  7  8  1  0
  2  9  1  0
  9 10  2  3
 10 11  1  0
 11 12  2  3
 12 13  1  0
 17 19  1  0
 19 20  2  3
 20 21  1  0
 13 14  2  0
 14 15  1  0
 15 16  2  0
 16 17  1  0
 17 18  2  0
 18 13  1  0
  1  2  2  0
  2  5  1  0
  5  6  2  0
  6  4  1  0
  4  3  2  0
  3  1  1  0
M  END
$$$$
