No_4884-complexes_sdf/6BKW-FPZ/2024-09-17-14-21-01/
     RDKit          3D

 19 20  0  0  0  0  0  0  0  0999 V2000
   -7.9040    3.9820   27.1177 C   0  0  0  0  0  0  0  0  0  0  0  0
   -9.0711    4.3164   27.0630 C   0  0  0  0  0  0  0  0  0  0  0  0
   -9.9692    3.7224   26.1073 C   0  0  0  0  0  0  0  0  0  0  0  0
   -6.9787    4.6761   28.1003 C   0  0  0  0  0  0  0  0  0  0  0  0
   -9.4538    2.6801   25.3673 C   0  0  0  0  0  0  0  0  0  0  0  0
   -8.1927    2.1957   25.6621 C   0  0  0  0  0  0  0  0  0  0  0  0
   -7.4333    2.8255   26.6299 C   0  0  0  0  0  0  0  0  0  0  0  0
  -10.3066    1.9975   24.3777 C   0  0  1  0  0  0  0  0  0  0  0  0
  -10.6559    2.6408   23.2832 C   0  0  0  0  0  0  0  0  0  0  0  0
  -10.3430    4.0877   23.1288 C   0  0  0  0  0  0  0  0  0  0  0  0
  -10.7089    4.7827   21.9427 C   0  0  0  0  0  0  0  0  0  0  0  0
  -11.5198    2.2064   22.2520 C   0  0  0  0  0  0  0  0  0  0  0  0
  -11.9191    2.8962   21.1216 C   0  0  0  0  0  0  0  0  0  0  0  0
  -11.5343    4.2358   21.0192 C   0  0  0  0  0  0  0  0  0  0  0  0
   -9.5415    0.6827   23.9280 C   0  0  0  0  0  0  0  0  0  0  0  0
   -9.9617   -0.4655   24.6602 C   0  0  0  0  0  0  0  0  0  0  0  0
  -11.0072   -0.4495   25.5598 C   0  0  0  0  0  0  0  0  0  0  0  0
  -11.7197    0.7363   25.7821 C   0  0  0  0  0  0  0  0  0  0  0  0
  -12.8170    0.7940   26.6791 C   0  0  0  0  0  0  0  0  0  0  0  0
  1  4  1  0
  8  5  1  1
  8 15  1  0
 15 16  2  3
 16 17  1  0
 17 18  2  3
 18 19  1  0
  8  9  1  0
  9 10  2  0
 10 11  1  0
 11 14  2  0
 14 13  1  0
 13 12  2  0
 12  9  1  0
  1  2  2  0
  2  3  1  0
  3  5  2  0
  5  6  1  0
  6  7  2  0
  7  1  1  0
M  END
$$$$
