No_4202-complexes_sdf/6BKW-FPZ/2024-09-17-14-21-01/
     RDKit          3D

 40 44  0  0  0  0  0  0  0  0999 V2000
   -7.9040    3.9820   27.1177 C   0  0  0  0  0  0  0  0  0  0  0  0
   -8.2057    2.8231   26.8733 C   0  0  0  0  0  0  0  0  0  0  0  0
   -9.2962    2.4021   26.1155 C   0  0  0  0  0  0  0  0  0  0  0  0
   -8.7358    5.0662   26.5917 C   0  0  0  0  0  0  0  0  0  0  0  0
   -9.7618    4.7023   25.7546 C   0  0  0  0  0  0  0  0  0  0  0  0
  -10.0066    3.4105   25.4922 C   0  0  0  0  0  0  0  0  0  0  0  0
   -8.3943    6.4760   26.8801 C   0  0  0  0  0  0  0  0  0  0  0  0
   -8.3483    7.4622   26.0291 C   0  0  0  0  0  0  0  0  0  0  0  0
   -8.0263    8.7347   26.7220 C   0  0  0  0  0  0  0  0  0  0  0  0
   -8.0330    6.4163   27.9558 C   0  0  0  0  0  0  0  0  0  0  0  0
   -7.8995    5.2659   28.8618 C   0  0  0  0  0  0  0  0  0  0  0  0
   -7.5956    4.0628   28.3854 C   0  0  0  0  0  0  0  0  0  0  0  0
   -7.4787    1.5985   27.4430 C   0  0  0  0  0  0  0  0  0  0  0  0
   -6.0554    1.6438   27.5478 C   0  0  0  0  0  0  0  0  0  0  0  0
   -5.3218    0.5638   28.0748 C   0  0  0  0  0  0  0  0  0  0  0  0
   -3.9979    0.8129   28.5239 C   0  0  0  0  0  0  0  0  0  0  0  0
   -3.3287   -0.2787   29.0939 C   0  0  0  0  0  0  0  0  0  0  0  0
   -3.8680   -1.4959   29.2482 C   0  0  0  0  0  0  0  0  0  0  0  0
   -5.7984   -0.7241   28.3609 C   0  0  0  0  0  0  0  0  0  0  0  0
   -5.1667   -1.7049   28.9077 C   0  0  0  0  0  0  0  0  0  0  0  0
  -11.0034    3.1196   24.3874 C   0  0  0  0  0  0  0  0  0  0  0  0
  -10.8988    3.6890   23.2199 C   0  0  0  0  0  0  0  0  0  0  0  0
  -11.6090    3.3964   22.0759 C   0  0  0  0  0  0  0  0  0  0  0  0
  -12.5051    2.3285   22.1748 C   0  0  0  0  0  0  0  0  0  0  0  0
  -11.7956    1.9742   24.4396 C   0  0  0  0  0  0  0  0  0  0  0  0
  -12.5679    1.6350   23.3394 C   0  0  0  0  0  0  0  0  0  0  0  0
   -3.0314   -2.5713   29.9298 C   0  0  0  0  0  0  0  0  0  0  0  0
   -3.3352   -3.1354   30.8890 C   0  0  0  0  0  0  0  0  0  0  0  0
   -2.5809   -4.1648   31.4753 C   0  0  0  0  0  0  0  0  0  0  0  0
   -1.7865   -2.8405   29.2590 C   0  0  0  0  0  0  0  0  0  0  0  0
   -0.9610   -3.8239   29.7718 C   0  0  0  0  0  0  0  0  0  0  0  0
   -1.3395   -4.4689   30.9105 C   0  0  0  0  0  0  0  0  0  0  0  0
   -0.5996   -5.4388   31.4324 F   0  0  0  0  0  0  0  0  0  0  0  0
   -5.7756   -2.9448   29.1738 C   0  0  0  0  0  0  0  0  0  0  0  0
   -6.5380   -3.5153   28.2953 N   0  0  0  0  0  0  0  0  0  0  0  0
   -6.8241   -3.2653   27.2319 C   0  0  0  0  0  0  0  0  0  0  0  0
   -6.4064   -3.8154   26.2111 C   0  0  0  0  0  0  0  0  0  0  0  0
   -5.9136   -4.9068   26.1198 C   0  0  0  0  0  0  0  0  0  0  0  0
   -6.9784   -4.9015   28.6303 C   0  0  0  0  0  0  0  0  0  0  0  0
   -5.3688   -5.5690   25.0325 C   0  0  0  0  0  0  0  0  0  0  0  0
  8  9  1  0
  2 13  1  0
 13 14  2  3
 14 15  1  0
  6 21  1  0
 18 27  1  0
 32 33  1  0
 20 34  1  0
 34 35  1  0
 35 36  1  0
 36 37  2  3
 37 38  1  0
 35 39  1  0
 38 40  1  0
  8  7  1  0
  1  2  1  0
  2  3  2  0
  3  6  1  0
  6  5  2  0
  5  4  1  0
 21 22  2  0
 22 23  1  0
 23 24  2  0
 24 26  1  0
 26 25  2  0
 25 21  1  0
  1  4  2  0
  4  7  1  0
  7 10  2  0
 10 11  1  0
 11 12  2  0
 12  1  1  0
 15 16  2  0
 16 17  1  0
 17 18  2  0
 18 20  1  0
 20 19  2  0
 19 15  1  0
 27 28  2  0
 28 29  1  0
 29 32  2  0
 32 31  1  0
 31 30  2  0
 30 27  1  0
M  END
$$$$
