No_4274-complexes_sdf/6BKW-FPZ/2024-09-17-14-21-01/
     RDKit          3D

 16 18  0  0  0  0  0  0  0  0999 V2000
   -7.9040    3.9820   27.1177 C   0  0  0  0  0  0  0  0  0  0  0  0
   -9.0711    4.3164   27.0630 C   0  0  0  0  0  0  0  0  0  0  0  0
  -10.0395    3.8218   27.1938 C   0  0  0  0  0  0  0  0  0  0  0  0
   -7.6424    2.5858   27.3610 C   0  0  0  0  0  0  0  0  0  0  0  0
   -8.7646    1.7754   27.4263 C   0  0  0  0  0  0  0  0  0  0  0  0
   -9.9966    2.3406   27.3957 C   0  0  0  0  0  0  0  0  0  0  0  0
   -6.3885    2.0891   27.3684 N   0  0  0  0  0  0  0  0  0  0  0  0
   -6.0810    0.7993   27.3425 C   0  0  0  0  0  0  0  0  0  0  0  0
   -6.9722   -0.0717   27.4094 C   0  0  0  0  0  0  0  0  0  0  0  0
   -8.4268    0.3525   27.5351 C   0  0  0  0  0  0  0  0  0  0  0  0
   -4.7634    0.4827   27.4168 N   0  0  0  0  0  0  0  0  0  0  0  0
   -4.1994   -0.6240   26.9187 C   0  0  0  0  0  0  0  0  0  0  0  0
   -5.1821   -1.6784   26.8013 C   0  0  0  0  0  0  0  0  0  0  0  0
   -6.5963   -1.4255   27.0644 C   0  0  0  0  0  0  0  0  0  0  0  0
   -9.1733    5.9987   26.8846 C   0  0  0  0  0  0  0  0  0  0  0  0
   -8.5187    6.6448   25.7858 C   0  0  0  0  0  0  0  0  0  0  0  0
  2 15  1  0
 15 16  1  0
  5 10  2  0
 10  9  1  0
  8  7  1  0
  7  4  2  0
  8  9  2  0
  9 14  1  0
 14 13  2  0
 13 12  1  0
 12 11  2  0
 11  8  1  0
  1  2  2  0
  2  3  1  0
  3  6  2  0
  6  5  1  0
  5  4  1  0
  4  1  1  0
M  END
$$$$
