No_4929-complexes_sdf/6BKW-FPZ/2024-09-17-14-21-01/
     RDKit          3D

 40 44  0  0  0  0  0  0  0  0999 V2000
   -7.9040    3.9820   27.1177 C   0  0  0  0  0  0  0  0  0  0  0  0
   -8.2057    2.8231   26.8733 C   0  0  0  0  0  0  0  0  0  0  0  0
   -9.2962    2.4021   26.1155 C   0  0  0  0  0  0  0  0  0  0  0  0
   -8.7358    5.0662   26.5917 C   0  0  0  0  0  0  0  0  0  0  0  0
   -9.7618    4.7022   25.7546 C   0  0  0  0  0  0  0  0  0  0  0  0
  -10.0066    3.4105   25.4922 C   0  0  0  0  0  0  0  0  0  0  0  0
   -8.3936    6.4769   26.8843 C   0  0  0  0  0  0  0  0  0  0  0  0
   -8.1939    6.7736   28.0729 O   0  0  0  0  0  0  0  0  0  0  0  0
   -8.2189    7.3295   25.9449 O   0  0  0  0  0  0  0  0  0  0  0  0
   -7.3536    1.6702   27.5006 C   0  0  0  0  0  0  0  0  0  0  0  0
   -5.9865    1.9271   27.7988 C   0  0  0  0  0  0  0  0  0  0  0  0
   -5.1857    0.8763   28.3128 C   0  0  0  0  0  0  0  0  0  0  0  0
   -5.6862   -0.3972   28.4824 C   0  0  0  0  0  0  0  0  0  0  0  0
   -7.7769    0.3554   27.5622 C   0  0  0  0  0  0  0  0  0  0  0  0
   -4.8695   -1.4173   29.0224 C   0  0  0  0  0  0  0  0  0  0  0  0
   -7.0038   -0.6449   28.1243 C   0  0  0  0  0  0  0  0  0  0  0  0
   -5.0950   -2.1119   29.9457 C   0  0  0  0  0  0  0  0  0  0  0  0
   -4.1921   -3.0957   30.5639 C   0  0  0  0  0  0  0  0  0  0  0  0
   -2.9215   -3.1784   29.9826 C   0  0  0  0  0  0  0  0  0  0  0  0
   -3.4300   -1.4881   28.6349 C   0  0  0  0  0  0  0  0  0  0  0  0
   -2.5445   -2.3250   29.0473 C   0  0  0  0  0  0  0  0  0  0  0  0
  -11.0983    3.0852   24.5584 C   0  0  0  0  0  0  0  0  0  0  0  0
  -10.8307    2.2726   23.5728 C   0  0  0  0  0  0  0  0  0  0  0  0
  -10.5285    1.1272   23.6279 C   0  0  0  0  0  0  0  0  0  0  0  0
  -10.1640    0.3045   22.8401 C   0  0  0  0  0  0  0  0  0  0  0  0
  -10.2165    0.7401   21.3919 C   0  0  0  0  0  0  0  0  0  0  0  0
  -10.5272    2.0412   21.1812 C   0  0  0  0  0  0  0  0  0  0  0  0
  -10.7915    2.8526   22.2150 C   0  0  0  0  0  0  0  0  0  0  0  0
  -12.3731    3.6797   24.7493 C   0  0  2  0  0  0  0  0  0  0  0  0
  -12.9381    3.7190   26.0371 C   0  0  0  0  0  0  0  0  0  0  0  0
  -13.1183    4.1828   23.6695 C   0  0  0  0  0  0  0  0  0  0  0  0
  -12.3333    3.5926   27.2288 C   0  0  0  0  0  0  0  0  0  0  0  0
  -13.0019    3.7491   28.4690 C   0  0  0  0  0  0  0  0  0  0  0  0
  -14.3007    4.2126   28.5425 C   0  0  0  0  0  0  0  0  0  0  0  0
  -14.3355    4.1499   26.1219 C   0  0  0  0  0  0  0  0  0  0  0  0
  -14.9728    4.4046   27.3462 C   0  0  0  0  0  0  0  0  0  0  0  0
  -13.9000    3.5511   22.9213 C   0  0  0  0  0  0  0  0  0  0  0  0
  -14.9670    3.9026   22.7200 C   0  0  0  0  0  0  0  0  0  0  0  0
  -15.1949    5.2954   22.5881 C   0  0  0  0  0  0  0  0  0  0  0  0
  -14.3513    6.1559   23.2853 C   0  0  0  0  0  0  0  0  0  0  0  0
  4  7  1  0
  7  8  2  0
  7  9  1  0
  2 10  1  0
 13 15  1  0
  6 22  1  0
 22 23  1  0
 22 29  1  0
 29 30  1  0
 29 31  1  6
 31 37  1  0
 37 38  1  0
 38 39  2  3
 39 40  1  0
 10 11  2  0
 11 12  1  0
 12 13  2  0
 13 16  1  0
 16 14  2  0
 14 10  1  0
 15 17  2  0
 17 18  1  0
 18 19  2  0
 19 21  1  0
 21 20  2  0
 20 15  1  0
  1  2  2  0
  2  3  1  0
  3  6  2  0
  6  5  1  0
  5  4  2  0
  4  1  1  0
 23 24  2  0
 24 25  1  0
 25 26  2  0
 26 27  1  0
 27 28  2  0
 28 23  1  0
 30 32  2  0
 32 33  1  0
 33 34  2  0
 34 36  1  0
 36 35  2  0
 35 30  1  0
M  END
$$$$
