No_4737-complexes_sdf/6BKW-FPZ/2024-09-17-14-21-01/
     RDKit          3D

 12 12  0  0  0  0  0  0  0  0999 V2000
   -7.2496    3.8871   27.4508 C   0  0  0  0  0  0  0  0  0  0  0  0
   -7.6161    2.7143   27.1523 C   0  0  0  0  0  0  0  0  0  0  0  0
   -7.1618    1.8631   27.5232 C   0  0  0  0  0  0  0  0  0  0  0  0
   -8.0036    5.1085   27.2100 C   0  0  0  0  0  0  0  0  0  0  0  0
   -7.6739    6.3858   27.8565 C   0  0  0  0  0  0  0  0  0  0  0  0
   -9.1299    5.0820   26.3730 C   0  0  0  0  0  0  0  0  0  0  0  0
   -9.5383    3.9035   25.7505 C   0  0  0  0  0  0  0  0  0  0  0  0
   -8.8363    2.6722   26.2434 C   0  0  0  0  0  0  0  0  0  0  0  0
   -5.7888    1.8024   28.0669 C   0  0  0  0  0  0  0  0  0  0  0  0
   -4.6882    1.0123   27.6835 C   0  0  0  0  0  0  0  0  0  0  0  0
   -4.8842   -0.1556   26.9635 C   0  0  0  0  0  0  0  0  0  0  0  0
   -6.2050   -0.4386   26.5354 C   0  0  0  0  0  0  0  0  0  0  0  0
  4  5  1  0
  3  9  1  0
  9 10  2  3
 10 11  1  0
 11 12  2  0
  3  2  1  0
  1  2  2  0
  2  8  1  0
  8  7  2  0
  7  6  1  0
  6  4  2  0
  4  1  1  0
M  END
$$$$
