No_455-complexes_sdf/6BKW-FPZ/2024-09-17-14-21-01/
     RDKit          3D

 40 43  0  0  0  0  0  0  0  0999 V2000
   -7.2496    3.8871   27.4508 C   0  0  0  0  0  0  0  0  0  0  0  0
   -7.9379    4.9063   27.8518 C   0  0  0  0  0  0  0  0  0  0  0  0
   -9.3460    4.8223   27.8695 C   0  0  0  0  0  0  0  0  0  0  0  0
   -7.8628    2.6163   27.1065 C   0  0  0  0  0  0  0  0  0  0  0  0
   -9.2787    2.5744   27.1970 C   0  0  0  0  0  0  0  0  0  0  0  0
  -10.0108    3.6770   27.6340 C   0  0  0  0  0  0  0  0  0  0  0  0
  -11.4990    3.7612   27.7469 C   0  0  0  0  0  0  0  0  0  0  0  0
  -12.2061    2.8674   27.1520 C   0  0  0  0  0  0  0  0  0  0  0  0
  -13.6513    2.8832   27.3344 C   0  0  0  0  0  0  0  0  0  0  0  0
  -14.2000    3.8930   28.1361 C   0  0  0  0  0  0  0  0  0  0  0  0
  -13.4374    4.8324   28.7256 C   0  0  0  0  0  0  0  0  0  0  0  0
  -12.0388    4.8149   28.5620 C   0  0  0  0  0  0  0  0  0  0  0  0
   -7.1208    1.4627   26.7613 C   0  0  0  0  0  0  0  0  0  0  0  0
   -6.0906    1.1487   27.4916 O   0  0  0  0  0  0  0  0  0  0  0  0
   -7.3939    0.8596   25.6635 O   0  0  0  0  0  0  0  0  0  0  0  0
   -7.1380    6.0139   28.0805 N   0  0  0  0  0  0  0  0  0  0  0  0
   -5.5748   -0.1312   27.5655 C   0  0  0  0  0  0  0  0  0  0  0  0
   -4.5554   -0.3668   28.5818 C   0  0  0  0  0  0  0  0  0  0  0  0
   -4.7354   -0.7280   29.6320 C   0  0  0  0  0  0  0  0  0  0  0  0
   -3.6554   -0.8409   30.6941 C   0  0  0  0  0  0  0  0  0  0  0  0
   -3.1946    0.1692   28.1988 C   0  0  0  0  0  0  0  0  0  0  0  0
   -2.1083   -0.0606   29.0911 C   0  0  0  0  0  0  0  0  0  0  0  0
   -2.3887   -0.5159   30.3569 C   0  0  0  0  0  0  0  0  0  0  0  0
   -4.0213   -1.3367   32.0756 C   0  0  0  0  0  0  0  0  0  0  0  0
   -3.3595   -1.0306   32.9592 O   0  0  0  0  0  0  0  0  0  0  0  0
   -5.1531   -2.0734   32.1838 O   0  0  0  0  0  0  0  0  0  0  0  0
   -2.8977    0.6310   26.8060 C   0  0  0  0  0  0  0  0  0  0  0  0
   -5.8950   -1.8941   33.3197 C   0  0  0  0  0  0  0  0  0  0  0  0
   -7.2825   -2.2149   33.1208 C   0  0  0  0  0  0  0  0  0  0  0  0
   -7.7314   -3.3087   33.9300 C   0  0  0  0  0  0  0  0  0  0  0  0
   -8.0702   -4.3964   33.1089 C   0  0  0  0  0  0  0  0  0  0  0  0
   -7.6318   -5.4029   32.9778 C   0  0  0  0  0  0  0  0  0  0  0  0
   -8.1338   -6.5039   32.1082 C   0  0  0  0  0  0  0  0  0  0  0  0
   -9.2537   -6.2209   31.3692 C   0  0  0  0  0  0  0  0  0  0  0  0
   -9.8568   -4.9873   31.4737 C   0  0  0  0  0  0  0  0  0  0  0  0
   -9.3667   -4.0026   32.3109 C   0  0  0  0  0  0  0  0  0  0  0  0
  -11.0951   -4.6949   30.6613 C   0  0  0  0  0  0  0  0  0  0  0  0
  -12.0539   -4.0235   31.1396 C   0  0  0  0  0  0  0  0  0  0  0  0
  -12.0557   -3.5039   32.3905 C   0  0  0  0  0  0  0  0  0  0  0  0
  -13.1353   -2.6543   32.9134 C   0  0  0  0  0  0  0  0  0  0  0  0
  6  7  1  0
  4 13  1  0
 13 14  1  0
 13 15  2  0
  2 16  1  0
 14 17  1  0
 17 18  1  0
 20 24  1  0
 24 25  2  0
 24 26  1  0
 21 27  1  0
 26 28  1  0
 28 29  1  0
 29 30  1  0
 30 31  1  0
 35 37  1  0
 37 38  2  3
 38 39  1  0
 39 40  2  0
 31 32  2  0
 32 33  1  0
 33 34  2  0
 34 35  1  0
 35 36  2  0
 36 31  1  0
  1  2  2  0
  2  3  1  0
  3  6  2  0
  6  5  1  0
  5  4  2  0
  4  1  1  0
  7  8  2  0
  8  9  1  0
  9 10  2  0
 10 11  1  0
 11 12  2  0
 12  7  1  0
 18 19  2  0
 19 20  1  0
 20 23  2  0
 23 22  1  0
 22 21  2  0
 21 18  1  0
M  END
$$$$
