No_4337-complexes_sdf/6BKW-FPZ/2024-09-17-14-21-01/
     RDKit          3D

 27 30  0  0  0  0  0  0  0  0999 V2000
   -7.2496    3.8871   27.4508 C   0  0  0  0  0  0  0  0  0  0  0  0
   -7.9379    4.9063   27.8518 C   0  0  0  0  0  0  0  0  0  0  0  0
   -7.5112    6.1898   27.6280 C   0  0  0  0  0  0  0  0  0  0  0  0
   -7.8078    2.6331   27.2522 C   0  0  2  0  0  0  0  0  0  0  0  0
   -9.1846    2.4724   27.5426 C   0  0  0  0  0  0  0  0  0  0  0  0
   -9.9168    3.5155   28.0405 C   0  0  1  0  0  0  0  0  0  0  0  0
   -9.3366    4.7962   28.1727 C   0  0  0  0  0  0  0  0  0  0  0  0
  -11.3576    3.4491   28.3421 C   0  0  0  0  0  0  0  0  0  0  0  0
  -12.2221    4.2673   27.9128 C   0  0  0  0  0  0  0  0  0  0  0  0
  -13.6084    4.2692   28.1929 C   0  0  0  0  0  0  0  0  0  0  0  0
  -14.0518    3.3409   29.1109 C   0  0  0  0  0  0  0  0  0  0  0  0
  -13.1694    2.3912   29.6195 C   0  0  0  0  0  0  0  0  0  0  0  0
  -11.8422    2.4308   29.2936 C   0  0  0  0  0  0  0  0  0  0  0  0
   -6.9269    1.2363   26.8417 Cl  0  0  0  0  0  0  0  0  0  0  0  0
  -15.5030    3.3037   29.4395 C   0  0  0  0  0  0  0  0  0  0  0  0
  -15.9879    2.7631   30.3631 C   0  0  0  0  0  0  0  0  0  0  0  0
  -17.4104    2.7734   30.6997 C   0  0  0  0  0  0  0  0  0  0  0  0
  -17.9526    2.1570   31.8083 C   0  0  0  0  0  0  0  0  0  0  0  0
  -17.0772    1.4448   32.6586 C   0  0  0  0  0  0  0  0  0  0  0  0
  -15.7489    1.3321   32.4495 C   0  0  0  0  0  0  0  0  0  0  0  0
  -15.1614    1.9690   31.4084 C   0  0  0  0  0  0  0  0  0  0  0  0
  -15.7695    4.8317   29.3817 C   0  0  0  0  0  0  0  0  0  0  0  0
  -16.9485    5.2428   28.8705 C   0  0  0  0  0  0  0  0  0  0  0  0
  -17.3105    6.6011   28.8165 C   0  0  0  0  0  0  0  0  0  0  0  0
  -16.3554    7.5788   29.1871 C   0  0  0  0  0  0  0  0  0  0  0  0
  -15.1144    7.1194   29.6381 C   0  0  0  0  0  0  0  0  0  0  0  0
  -14.8409    5.8504   29.7239 C   0  0  0  0  0  0  0  0  0  0  0  0
  1  2  1  0
  2  3  2  0
  1  4  1  0
  4  5  1  0
  5  6  1  0
  2  7  1  0
  6  7  1  0
  6  8  1  6
  4 14  1  1
 11 15  1  0
 15 22  1  0
 15 16  1  0
 22 23  2  0
 23 24  1  0
 24 25  2  0
 25 26  1  0
 26 27  2  0
 27 22  1  0
  8  9  2  0
  9 10  1  0
 10 11  2  0
 11 12  1  0
 12 13  2  0
 13  8  1  0
 16 17  2  0
 17 18  1  0
 18 19  2  0
 19 20  1  0
 20 21  2  0
 21 16  1  0
M  END
$$$$
