No_4256-complexes_sdf/6BKW-FPZ/2024-09-17-14-21-01/
     RDKit          3D

 15 16  0  0  0  0  0  0  0  0999 V2000
   -7.9040    3.9820   27.1177 C   0  0  0  0  0  0  0  0  0  0  0  0
   -7.8663    4.8694   27.9238 C   0  0  0  0  0  0  0  0  0  0  0  0
   -7.4698    2.6989   27.4277 C   0  0  0  0  0  0  0  0  0  0  0  0
   -6.1691    2.6024   27.7920 C   0  0  0  0  0  0  0  0  0  0  0  0
   -8.5251    6.1376   27.6596 C   0  0  0  0  0  0  0  0  0  0  0  0
   -8.8057    4.1423   26.0061 C   0  0  0  0  0  0  0  0  0  0  0  0
   -9.4671    5.3801   25.7173 C   0  0  0  0  0  0  0  0  0  0  0  0
   -9.2586    6.4381   26.6201 C   0  0  0  0  0  0  0  0  0  0  0  0
   -5.4973    1.3237   28.0153 C   0  0  0  0  0  0  0  0  0  0  0  0
   -4.1813    1.2220   28.5237 C   0  0  0  0  0  0  0  0  0  0  0  0
   -6.2110    0.1477   27.6749 C   0  0  0  0  0  0  0  0  0  0  0  0
   -7.5047    0.2021   27.1886 C   0  0  0  0  0  0  0  0  0  0  0  0
   -8.1171    1.5112   27.0208 C   0  0  0  0  0  0  0  0  0  0  0  0
   -3.7311    0.0438   29.0970 C   0  0  0  0  0  0  0  0  0  0  0  0
   -4.4181   -1.1293   28.8827 C   0  0  0  0  0  0  0  0  0  0  0  0
  1  3  1  0
  9 10  1  0
 10 14  2  3
 14 15  1  0
  1  2  2  0
  2  5  1  0
  5  8  2  0
  8  7  1  0
  7  6  2  0
  6  1  1  0
  3  4  2  0
  4  9  1  0
  9 11  2  0
 11 12  1  0
 12 13  2  0
 13  3  1  0
M  END
$$$$
