No_4776-complexes_sdf/6BKW-FPZ/2024-09-17-14-21-01/
     RDKit          3D

 14 14  0  0  0  0  0  0  0  0999 V2000
   -7.9040    3.9820   27.1177 C   0  0  0  0  0  0  0  0  0  0  0  0
   -7.8663    4.8694   27.9238 C   0  0  0  0  0  0  0  0  0  0  0  0
   -9.0491    3.8523   26.2542 C   0  0  0  0  0  0  0  0  0  0  0  0
   -8.7661    5.9491   27.9690 C   0  0  0  0  0  0  0  0  0  0  0  0
   -9.9295    4.8502   26.2323 C   0  0  0  0  0  0  0  0  0  0  0  0
   -9.8077    5.9288   27.0933 C   0  0  0  0  0  0  0  0  0  0  0  0
   -9.2993    2.7337   25.3516 C   0  0  1  0  0  0  0  0  0  0  0  0
   -8.7734    1.4728   25.7119 C   0  0  0  0  0  0  0  0  0  0  0  0
  -10.5574    2.6718   24.7326 C   0  0  0  0  0  0  0  0  0  0  0  0
  -10.6282    2.6096   23.7111 C   0  0  0  0  0  0  0  0  0  0  0  0
  -11.3846    2.6712   22.7379 C   0  0  0  0  0  0  0  0  0  0  0  0
  -11.1866    2.5272   21.2837 C   0  0  0  0  0  0  0  0  0  0  0  0
   -9.9034    1.9458   20.9844 C   0  0  0  0  0  0  0  0  0  0  0  0
   -8.9902    1.6784   21.9282 C   0  0  0  0  0  0  0  0  0  0  0  0
  3  7  1  0
  7  8  1  1
  7  9  1  0
  9 10  2  3
 10 11  1  0
 11 12  2  3
 12 13  1  0
 13 14  2  0
  1  2  2  0
  2  4  1  0
  4  6  2  0
  6  5  1  0
  5  3  2  0
  3  1  1  0
M  END
$$$$
