No_479-complexes_sdf/6BKW-FPZ/2024-09-17-14-21-01/
     RDKit          3D

 11 11  0  0  0  0  0  0  0  0999 V2000
   -7.9040    3.9820   27.1177 C   0  0  0  0  0  0  0  0  0  0  0  0
   -7.8663    4.8694   27.9238 C   0  0  0  0  0  0  0  0  0  0  0  0
   -9.0806    3.1428   27.1220 C   0  0  0  0  0  0  0  0  0  0  0  0
  -10.1072    3.3606   27.8219 C   0  0  0  0  0  0  0  0  0  0  0  0
   -8.4719    6.0392   27.5882 C   0  0  0  0  0  0  0  0  0  0  0  0
  -11.2351    3.1800   27.4026 C   0  0  0  0  0  0  0  0  0  0  0  0
  -11.5193    2.1833   26.4708 C   0  0  0  0  0  0  0  0  0  0  0  0
   -9.1888    2.2109   26.0093 C   0  0  0  0  0  0  0  0  0  0  0  0
  -10.4491    1.8260   25.6349 C   0  0  0  0  0  0  0  0  0  0  0  0
   -7.7925    7.1674   26.8871 C   0  0  0  0  0  0  0  0  0  0  0  0
   -9.9160    6.1841   27.5638 C   0  0  0  0  0  0  0  0  0  0  0  0
  1  2  1  0
  1  3  1  0
  2  5  1  0
  5 10  1  0
  5 11  1  0
  3  4  2  0
  4  6  1  0
  6  7  2  0
  7  9  1  0
  9  8  2  0
  8  3  1  0
M  END
$$$$
