No_4348-complexes_sdf/6BKW-FPZ/2024-09-17-14-21-01/
     RDKit          3D

 26 28  0  0  0  0  0  0  0  0999 V2000
   -7.9040    3.9820   27.1177 C   0  0  0  0  0  0  0  0  0  0  0  0
   -7.8663    4.8694   27.9238 C   0  0  0  0  0  0  0  0  0  0  0  0
   -9.0501    3.8017   26.2617 C   0  0  0  0  0  0  0  0  0  0  0  0
  -10.0189    4.7608   26.3707 C   0  0  0  0  0  0  0  0  0  0  0  0
   -8.6770    5.9780   27.9222 C   0  0  0  0  0  0  0  0  0  0  0  0
   -9.8040    5.8752   27.0958 C   0  0  0  0  0  0  0  0  0  0  0  0
   -9.1317    2.6414   25.4147 C   0  0  0  0  0  0  0  0  0  0  0  0
   -9.9416    2.7613   24.3677 N   0  0  0  0  0  0  0  0  0  0  0  0
  -10.0054    1.6977   23.5180 C   0  0  0  0  0  0  0  0  0  0  0  0
   -8.4822    1.5389   25.6340 C   0  0  0  0  0  0  0  0  0  0  0  0
   -8.5025    0.4668   24.7899 C   0  0  0  0  0  0  0  0  0  0  0  0
   -9.2907    0.5885   23.6785 C   0  0  0  0  0  0  0  0  0  0  0  0
  -10.8937    2.0600   22.3656 C   0  0  2  0  0  0  0  0  0  0  0  0
  -12.1638    2.1785   22.5891 C   0  0  0  0  0  0  0  0  0  0  0  0
  -12.7834    2.0624   23.4733 C   0  0  0  0  0  0  0  0  0  0  0  0
  -14.2175    2.3570   23.6699 C   0  0  0  0  0  0  0  0  0  0  0  0
  -14.9859    2.2954   24.8573 C   0  0  0  0  0  0  0  0  0  0  0  0
  -14.2683    1.8666   26.0066 C   0  0  0  0  0  0  0  0  0  0  0  0
  -12.9163    1.5697   25.9868 C   0  0  0  0  0  0  0  0  0  0  0  0
  -12.2484    1.6944   24.9193 C   0  0  0  0  0  0  0  0  0  0  0  0
  -10.1416    2.0835   21.1115 C   0  0  0  0  0  0  0  0  0  0  0  0
  -12.7744    2.8037   21.5256 O   0  0  0  0  0  0  0  0  0  0  0  0
   -9.4246   -0.5189   22.7415 C   0  0  0  0  0  0  0  0  0  0  0  0
   -8.5428   -1.4269   22.6650 C   0  0  0  0  0  0  0  0  0  0  0  0
   -7.6335   -1.5861   23.8210 C   0  0  0  0  0  0  0  0  0  0  0  0
   -7.5654   -0.6607   24.8833 C   0  0  0  0  0  0  0  0  0  0  0  0
  3  7  1  0
  9 13  1  0
 13 14  1  0
 14 15  1  0
 13 21  1  6
 14 22  2  0
 12 23  1  0
 23 24  2  3
 24 25  1  0
 25 26  2  0
 15 16  2  0
 16 17  1  0
 17 18  2  0
 18 19  1  0
 19 20  2  0
 20 15  1  0
  1  2  2  0
  2  5  1  0
  5  6  2  0
  6  4  1  0
  4  3  2  0
  3  1  1  0
  7  8  2  0
  8  9  1  0
  9 12  2  0
 12 11  1  0
 11 10  2  0
 10  7  1  0
M  END
$$$$
