No_4096-complexes_sdf/6BKW-FPZ/2024-09-17-14-21-01/
     RDKit          3D

 19 21  0  0  0  0  0  0  0  0999 V2000
   -7.2496    3.8871   27.4508 C   0  0  0  0  0  0  0  0  0  0  0  0
   -7.6161    2.7143   27.1523 C   0  0  0  0  0  0  0  0  0  0  0  0
   -8.8302    2.4659   26.5056 C   0  0  0  0  0  0  0  0  0  0  0  0
   -8.1584    5.0090   27.3234 C   0  0  0  0  0  0  0  0  0  0  0  0
   -9.3788    4.7965   26.7695 C   0  0  0  0  0  0  0  0  0  0  0  0
   -9.7028    3.5649   26.3276 C   0  0  0  0  0  0  0  0  0  0  0  0
   -6.9181    1.4461   27.3185 C   0  0  0  0  0  0  0  0  0  0  0  0
   -7.3229    0.1920   27.1907 C   0  0  0  0  0  0  0  0  0  0  0  0
   -8.6622    0.1161   26.6357 C   0  0  0  0  0  0  0  0  0  0  0  0
   -9.4033    1.2061   26.2798 C   0  0  0  0  0  0  0  0  0  0  0  0
   -7.5790    6.5584   27.8759 Cl  0  0  0  0  0  0  0  0  0  0  0  0
  -10.8675    3.4502   25.6896 F   0  0  0  0  0  0  0  0  0  0  0  0
   -6.5399   -0.9363   27.5205 C   0  0  0  0  0  0  0  0  0  0  0  0
   -5.2243   -0.7702   27.7183 C   0  0  0  0  0  0  0  0  0  0  0  0
   -4.3860   -1.8199   28.2175 C   0  0  0  0  0  0  0  0  0  0  0  0
   -3.0335   -1.4919   28.5644 C   0  0  0  0  0  0  0  0  0  0  0  0
   -2.5059   -0.2119   28.3839 C   0  0  0  0  0  0  0  0  0  0  0  0
   -3.3351    0.7983   27.8663 C   0  0  0  0  0  0  0  0  0  0  0  0
   -4.6262    0.5696   27.6507 C   0  0  0  0  0  0  0  0  0  0  0  0
  4 11  1  0
  6 12  1  0
  8 13  1  0
 13 14  1  0
 14 15  2  0
 15 16  1  0
 16 17  2  0
 17 18  1  0
 18 19  2  0
 19 14  1  0
  1  2  2  0
  3  6  2  0
  6  5  1  0
  5  4  2  0
  4  1  1  0
  2  3  1  0
  3 10  1  0
 10  9  2  0
  9  8  1  0
  8  7  2  0
  7  2  1  0
M  END
$$$$
