No_437-complexes_sdf/6BKW-FPZ/2024-09-17-14-21-01/
     RDKit          3D

 22 24  0  0  0  0  0  0  0  0999 V2000
   -7.9040    3.9820   27.1177 C   0  0  0  0  0  0  0  0  0  0  0  0
   -7.8663    4.8694   27.9238 C   0  0  0  0  0  0  0  0  0  0  0  0
   -9.0501    3.8017   26.2617 C   0  0  0  0  0  0  0  0  0  0  0  0
  -10.0189    4.7608   26.3707 C   0  0  0  0  0  0  0  0  0  0  0  0
   -8.6770    5.9780   27.9222 C   0  0  0  0  0  0  0  0  0  0  0  0
   -9.8040    5.8752   27.0958 C   0  0  0  0  0  0  0  0  0  0  0  0
   -9.1317    2.6414   25.4147 C   0  0  0  0  0  0  0  0  0  0  0  0
   -8.6458    1.4431   25.8429 C   0  0  0  0  0  0  0  0  0  0  0  0
   -9.9889    2.6976   24.2334 C   0  0  0  0  0  0  0  0  0  0  0  0
   -8.7366    0.3555   25.0080 C   0  0  0  0  0  0  0  0  0  0  0  0
  -10.0165    1.5999   23.4349 C   0  0  0  0  0  0  0  0  0  0  0  0
   -9.4075    0.4088   23.8291 C   0  0  0  0  0  0  0  0  0  0  0  0
   -9.5464   -0.7808   22.9331 C   0  0  2  0  0  0  0  0  0  0  0  0
   -8.2877   -1.7389   22.5427 Cl  0  0  0  0  0  0  0  0  0  0  0  0
  -10.8116   -1.0926   22.3115 C   0  0  0  0  0  0  0  0  0  0  0  0
  -11.8053   -0.7052   22.4638 C   0  0  0  0  0  0  0  0  0  0  0  0
  -12.9826   -0.7586   22.1975 C   0  0  0  0  0  0  0  0  0  0  0  0
  -14.0969   -0.0791   22.7123 C   0  0  0  0  0  0  0  0  0  0  0  0
  -13.7823    0.8948   23.6315 C   0  0  0  0  0  0  0  0  0  0  0  0
  -12.5741    1.1497   24.0944 C   0  0  0  0  0  0  0  0  0  0  0  0
  -11.6109    0.4946   23.6210 C   0  0  0  0  0  0  0  0  0  0  0  0
  -11.6342   -0.3868   25.0049 C   0  0  0  0  0  0  0  0  0  0  0  0
  3  7  1  0
 12 13  1  0
 13 14  1  6
 13 15  1  0
 21 22  1  0
 15 16  1  0
  1  2  2  0
  2  5  1  0
  5  6  2  0
  6  4  1  0
  4  3  2  0
  3  1  1  0
  7  8  2  0
  8 10  1  0
 10 12  2  0
 12 11  1  0
 11  9  2  0
  9  7  1  0
 16 17  2  0
 17 18  1  0
 18 19  2  0
 19 20  1  0
 20 21  2  0
 21 16  1  0
M  END
$$$$
