No_477-complexes_sdf/6BKW-FPZ/2024-09-17-14-21-01/
     RDKit          3D

 40 44  0  0  0  0  0  0  0  0999 V2000
   -7.7129    4.2099   27.0854 C   0  0  0  0  0  0  0  0  0  0  0  0
   -8.2112    3.0637   26.9225 C   0  0  0  0  0  0  0  0  0  0  0  0
   -9.5629    2.7997   27.0678 C   0  0  0  0  0  0  0  0  0  0  0  0
   -8.5911    5.3704   27.2036 C   0  0  0  0  0  0  0  0  0  0  0  0
   -9.9544    5.1489   27.1401 C   0  0  0  0  0  0  0  0  0  0  0  0
  -10.4577    3.9280   27.0818 C   0  0  0  0  0  0  0  0  0  0  0  0
   -8.0077    6.7251   27.2943 C   0  0  0  0  0  0  0  0  0  0  0  0
  -10.0661    1.3994   26.9567 C   0  0  0  0  0  0  0  0  0  0  0  0
   -9.1571    0.4433   27.1436 C   0  0  0  0  0  0  0  0  0  0  0  0
   -7.7571    0.6925   27.0915 C   0  0  0  0  0  0  0  0  0  0  0  0
   -7.3088    1.9658   27.0260 N   0  0  0  0  0  0  0  0  0  0  0  0
   -6.8172   -0.2665   27.0632 N   0  0  0  0  0  0  0  0  0  0  0  0
   -5.5143    0.0590   27.2554 C   0  0  0  0  0  0  0  0  0  0  0  0
   -4.8746   -0.7163   28.3311 C   0  0  0  0  0  0  0  0  0  0  0  0
   -3.8599   -0.0376   29.0376 C   0  0  0  0  0  0  0  0  0  0  0  0
   -3.2736   -0.6023   30.2176 C   0  0  0  0  0  0  0  0  0  0  0  0
   -3.7832   -1.7671   30.7148 C   0  0  0  0  0  0  0  0  0  0  0  0
   -4.8620   -2.3548   30.0197 C   0  0  0  0  0  0  0  0  0  0  0  0
   -5.4232   -1.7814   28.9249 C   0  0  0  0  0  0  0  0  0  0  0  0
   -8.6838    7.7673   26.8369 N   0  0  0  0  0  0  0  0  0  0  0  0
   -7.0652    6.9350   28.1573 O   0  0  0  0  0  0  0  0  0  0  0  0
   -6.9086   -1.2050   25.9211 C   0  0  0  0  0  0  0  0  0  0  0  0
   -6.1082   -1.0266   25.0298 C   0  0  0  0  0  0  0  0  0  0  0  0
   -6.3185   -1.6169   23.7312 C   0  0  0  0  0  0  0  0  0  0  0  0
   -7.5118   -2.2364   23.5317 C   0  0  0  0  0  0  0  0  0  0  0  0
   -8.4067   -2.3439   24.5779 C   0  0  0  0  0  0  0  0  0  0  0  0
   -8.1226   -1.8222   25.7812 C   0  0  0  0  0  0  0  0  0  0  0  0
   -9.6781   -3.0570   24.2769 C   0  0  0  0  0  0  0  0  0  0  0  0
  -10.6925   -2.6883   24.7293 O   0  0  0  0  0  0  0  0  0  0  0  0
   -9.6037   -4.3081   23.9302 O   0  0  0  0  0  0  0  0  0  0  0  0
   -4.7963    0.8522   26.6938 O   0  0  0  0  0  0  0  0  0  0  0  0
   -3.1868   -2.3271   31.9450 C   0  0  0  0  0  0  0  0  0  0  0  0
   -3.4113   -1.7194   33.1122 C   0  0  1  0  0  0  0  0  0  0  0  0
   -4.3370   -0.9154   33.4408 C   0  0  0  0  0  0  0  0  0  0  0  0
   -4.5067   -0.5728   34.7846 N   0  0  0  0  0  0  0  0  0  0  0  0
   -3.4326   -1.1481   35.4202 C   0  0  2  0  0  0  0  0  0  0  0  0
   -2.7126   -1.8712   34.5009 C   0  0  0  0  0  0  0  0  0  0  0  0
   -3.2977   -1.0152   36.8466 C   0  0  0  0  0  0  0  0  0  0  0  0
   -2.4425   -1.5370   37.4238 O   0  0  0  0  0  0  0  0  0  0  0  0
   -3.9636    0.0840   37.4072 N   0  0  0  0  0  0  0  0  0  0  0  0
  4  7  1  0
 10 12  1  0
 12 13  1  0
 13 14  1  0
  7 20  1  0
  7 21  2  0
 12 22  1  0
 26 28  1  0
 28 29  1  0
 28 30  2  0
 13 31  2  0
 17 32  1  0
 33 32  1  1
 33 34  1  0
 34 35  2  0
 35 36  1  0
 33 37  1  0
 36 37  1  0
 36 38  1  1
 38 39  2  0
 38 40  1  0
 14 15  2  0
 15 16  1  0
 16 17  2  0
 17 18  1  0
 18 19  2  0
 19 14  1  0
 22 23  2  0
 23 24  1  0
 24 25  2  0
 25 26  1  0
 26 27  2  0
 27 22  1  0
  1  2  2  0
  3  6  2  0
  6  5  1  0
  5  4  2  0
  4  1  1  0
  2  3  1  0
  3  8  1  0
  8  9  2  0
  9 10  1  0
 10 11  2  0
 11  2  1  0
M  END
$$$$
