No_472-complexes_sdf/6BKW-FPZ/2024-09-17-14-21-01/
     RDKit          3D

 40 45  0  0  0  0  0  0  0  0999 V2000
   -7.9040    3.9820   27.1177 C   0  0  0  0  0  0  0  0  0  0  0  0
   -8.2057    2.8231   26.8733 C   0  0  0  0  0  0  0  0  0  0  0  0
   -7.0130    4.3706   28.1140 C   0  0  0  0  0  0  0  0  0  0  0  0
   -7.4093    1.7370   27.3857 C   0  0  0  0  0  0  0  0  0  0  0  0
   -7.7256    0.3814   27.1250 C   0  0  0  0  0  0  0  0  0  0  0  0
   -9.0139    0.1894   26.6369 C   0  0  0  0  0  0  0  0  0  0  0  0
   -9.8348    1.1679   26.1763 C   0  0  0  0  0  0  0  0  0  0  0  0
   -9.4322    2.4831   26.2877 C   0  0  0  0  0  0  0  0  0  0  0  0
   -8.5802    5.1252   26.4419 C   0  0  0  0  0  0  0  0  0  0  0  0
   -6.8289    5.7851   28.5247 C   0  0  0  0  0  0  0  0  0  0  0  0
   -8.4310    6.4945   26.8025 C   0  0  0  0  0  0  0  0  0  0  0  0
   -7.5200    6.7470   27.8281 C   0  0  0  0  0  0  0  0  0  0  0  0
   -7.0657   -0.7609   27.6270 C   0  0  0  0  0  0  0  0  0  0  0  0
   -5.6981   -0.5382   28.0313 C   0  0  0  0  0  0  0  0  0  0  0  0
   -5.0357   -1.4601   28.8545 C   0  0  0  0  0  0  0  0  0  0  0  0
   -5.7254   -2.6298   29.1416 C   0  0  0  0  0  0  0  0  0  0  0  0
   -7.5987   -1.8829   28.1945 C   0  0  0  0  0  0  0  0  0  0  0  0
   -6.9932   -2.8198   28.9084 C   0  0  0  0  0  0  0  0  0  0  0  0
   -3.5914   -1.2401   29.1561 C   0  0  2  0  0  0  0  0  0  0  0  0
   -3.3825   -0.6231   30.3976 C   0  0  0  0  0  0  0  0  0  0  0  0
   -2.5508   -1.4388   28.2855 C   0  0  0  0  0  0  0  0  0  0  0  0
   -3.4876   -1.0276   31.6056 C   0  0  0  0  0  0  0  0  0  0  0  0
   -3.3959   -0.6352   32.7046 C   0  0  0  0  0  0  0  0  0  0  0  0
   -3.7248   -1.2577   33.9449 C   0  0  0  0  0  0  0  0  0  0  0  0
   -4.3731   -2.4215   33.8677 C   0  0  0  0  0  0  0  0  0  0  0  0
   -4.6200   -2.9522   32.6474 C   0  0  0  0  0  0  0  0  0  0  0  0
   -4.2601   -2.3195   31.5604 C   0  0  0  0  0  0  0  0  0  0  0  0
   -1.6825   -2.3231   28.5461 C   0  0  0  0  0  0  0  0  0  0  0  0
   -0.5954   -2.5662   27.6756 C   0  0  0  0  0  0  0  0  0  0  0  0
   -2.6386   -1.0169   26.9331 C   0  0  0  0  0  0  0  0  0  0  0  0
   -1.6399   -1.2192   25.9420 C   0  0  0  0  0  0  0  0  0  0  0  0
   -0.6508   -2.0713   26.3505 C   0  0  0  0  0  0  0  0  0  0  0  0
   -5.3917   -4.2302   32.5545 C   0  0  0  0  0  0  0  0  0  0  0  0
   -6.6264   -4.3191   32.9317 C   0  0  0  0  0  0  0  0  0  0  0  0
   -4.7313   -5.3582   31.9879 C   0  0  0  0  0  0  0  0  0  0  0  0
   -7.3899   -5.4892   32.7849 C   0  0  0  0  0  0  0  0  0  0  0  0
   -5.4739   -6.5444   31.8616 C   0  0  0  0  0  0  0  0  0  0  0  0
   -6.7681   -6.5910   32.2665 C   0  0  0  0  0  0  0  0  0  0  0  0
   -4.3455   -3.0075   30.4492 O   0  0  0  0  0  0  0  0  0  0  0  0
   -3.2982   -3.4215   29.5783 C   0  0  0  0  0  0  0  0  0  0  0  0
  1  2  1  0
  5 13  1  0
 15 19  1  0
 19 20  1  6
 19 21  1  0
 26 33  1  0
 27 39  1  0
 39 40  1  0
 20 22  1  0
  1  3  2  0
  3 10  1  0
 10 12  2  0
 12 11  1  0
 11  9  2  0
  9  1  1  0
 22 23  2  0
 23 24  1  0
 24 25  2  0
 25 26  1  0
 26 27  2  0
 27 22  1  0
 33 34  2  0
 34 36  1  0
 36 38  2  0
 38 37  1  0
 37 35  2  0
 35 33  1  0
 13 14  2  0
 14 15  1  0
 15 16  2  0
 16 18  1  0
 18 17  2  0
 17 13  1  0
  2  4  2  0
  4  5  1  0
  5  6  2  0
  6  7  1  0
  7  8  2  0
  8  2  1  0
 21 28  2  0
 28 29  1  0
 29 32  2  0
 32 31  1  0
 31 30  2  0
 30 21  1  0
M  END
$$$$
