No_4928-complexes_sdf/6BKW-FPZ/2024-09-17-14-21-01/
     RDKit          3D

 19 21  0  0  0  0  0  0  0  0999 V2000
   -7.2496    3.8871   27.4508 C   0  0  0  0  0  0  0  0  0  0  0  0
   -8.5096    4.0291   27.2770 C   0  0  0  0  0  0  0  0  0  0  0  0
   -9.2677    5.1714   27.5773 C   0  0  0  0  0  0  0  0  0  0  0  0
   -6.5550    4.9883   28.1029 C   0  0  0  0  0  0  0  0  0  0  0  0
   -7.2821    6.1172   28.4246 C   0  0  0  0  0  0  0  0  0  0  0  0
   -8.5921    6.2192   28.1135 C   0  0  0  0  0  0  0  0  0  0  0  0
   -9.2678    2.8330   26.7069 C   0  0  0  0  0  0  0  0  0  0  0  0
  -10.0548    3.0791   25.6611 C   0  0  0  0  0  0  0  0  0  0  0  0
  -10.3000    2.2137   24.6434 C   0  0  0  0  0  0  0  0  0  0  0  0
   -9.7143    1.0530   24.7686 C   0  0  0  0  0  0  0  0  0  0  0  0
   -8.2800    1.7734   26.1558 C   0  0  0  0  0  0  0  0  0  0  0  0
   -8.6474    0.8256   25.4364 C   0  0  0  0  0  0  0  0  0  0  0  0
  -10.0557    2.1301   27.8388 C   0  0  0  0  0  0  0  0  0  0  0  0
  -10.6570    1.0078   27.7917 C   0  0  0  0  0  0  0  0  0  0  0  0
  -11.7384    0.7396   28.6438 C   0  0  0  0  0  0  0  0  0  0  0  0
  -12.4232   -0.4800   28.5051 C   0  0  0  0  0  0  0  0  0  0  0  0
  -11.9646   -1.3873   27.5368 C   0  0  0  0  0  0  0  0  0  0  0  0
  -10.9190   -1.1623   26.7960 C   0  0  0  0  0  0  0  0  0  0  0  0
  -10.2047    0.0434   26.9421 C   0  0  0  0  0  0  0  0  0  0  0  0
  2  7  1  0
  7  8  1  0
  9 10  1  0
  7 11  1  0
  7 13  1  0
 13 14  1  0
  8  9  1  0
 10 12  1  0
 12 11  1  0
 14 15  2  0
 15 16  1  0
 16 17  2  0
 17 18  1  0
 18 19  2  0
 19 14  1  0
  1  2  2  0
  2  3  1  0
  3  6  2  0
  6  5  1  0
  5  4  2  0
  4  1  1  0
M  END
$$$$
