No_4262-complexes_sdf/6BKW-FPZ/2024-09-17-14-21-01/
     RDKit          3D

 30 32  0  0  0  0  0  0  0  0999 V2000
   -7.7129    4.2099   27.0854 C   0  0  0  0  0  0  0  0  0  0  0  0
   -8.2112    3.0637   26.9225 C   0  0  0  0  0  0  0  0  0  0  0  0
   -9.4446    2.8304   26.1868 C   0  0  0  0  0  0  0  0  0  0  0  0
   -8.4697    5.3956   26.7238 C   0  0  0  0  0  0  0  0  0  0  0  0
   -9.6172    5.2111   25.9513 C   0  0  0  0  0  0  0  0  0  0  0  0
  -10.0424    3.9782   25.6873 C   0  0  0  0  0  0  0  0  0  0  0  0
   -7.9172    6.7181   27.0124 C   0  0  0  0  0  0  0  0  0  0  0  0
   -8.4157    7.7972   26.4523 N   0  0  0  0  0  0  0  0  0  0  0  0
   -6.8515    6.7159   27.7414 O   0  0  0  0  0  0  0  0  0  0  0  0
   -7.5764    1.9243   27.3791 F   0  0  0  0  0  0  0  0  0  0  0  0
  -11.4793    3.7973   24.7503 Cl  0  0  0  0  0  0  0  0  0  0  0  0
   -9.8896    1.4863   25.8653 C   0  0  1  0  0  0  0  0  0  0  0  0
   -9.4392    0.8064   24.7366 C   0  0  0  0  0  0  0  0  0  0  0  0
   -9.8120   -0.3305   24.3370 C   0  0  0  0  0  0  0  0  0  0  0  0
   -9.3999   -0.8466   23.0272 C   0  0  0  0  0  0  0  0  0  0  0  0
   -8.4704   -0.0940   22.2261 C   0  0  0  0  0  0  0  0  0  0  0  0
   -8.1548    1.1472   22.6553 C   0  0  0  0  0  0  0  0  0  0  0  0
   -8.5672    1.6725   23.7976 C   0  0  0  0  0  0  0  0  0  0  0  0
   -9.6898    0.6754   27.1269 C   0  0  0  0  0  0  0  0  0  0  0  0
  -10.9250    0.4695   27.8581 C   0  0  1  0  0  0  0  0  0  0  0  0
  -11.8028    1.5277   28.0492 C   0  0  0  0  0  0  0  0  0  0  0  0
  -12.9204    1.4007   28.9227 C   0  0  0  0  0  0  0  0  0  0  0  0
  -13.6746    2.5337   29.3111 C   0  0  0  0  0  0  0  0  0  0  0  0
  -13.3441    3.7697   28.6914 C   0  0  0  0  0  0  0  0  0  0  0  0
  -12.1835    3.8984   27.9382 C   0  0  0  0  0  0  0  0  0  0  0  0
  -11.4181    2.8507   27.7037 C   0  0  0  0  0  0  0  0  0  0  0  0
  -11.3310   -0.8496   28.3483 C   0  0  0  0  0  0  0  0  0  0  0  0
  -10.4222   -1.3210   29.2994 C   0  0  0  0  0  0  0  0  0  0  0  0
  -10.7201   -2.5847   29.9395 C   0  0  0  0  0  0  0  0  0  0  0  0
  -11.9085   -3.1863   29.5540 C   0  0  0  0  0  0  0  0  0  0  0  0
  4  7  1  0
  7  8  1  0
  7  9  2  0
  2 10  1  0
  6 11  1  0
  3 12  1  0
 12 13  1  0
 12 19  1  1
 20 19  1  6
 20 21  1  0
 20 27  1  0
 27 28  1  0
 28 29  2  3
 29 30  1  0
 13 14  2  0
 14 15  1  0
 15 16  2  0
 16 17  1  0
 17 18  2  0
 18 13  1  0
  1  2  2  0
  2  3  1  0
  3  6  2  0
  6  5  1  0
  5  4  2  0
  4  1  1  0
 21 22  2  0
 22 23  1  0
 23 24  2  0
 24 25  1  0
 25 26  2  0
 26 21  1  0
M  END
$$$$
