No_4428-complexes_sdf/6BKW-FPZ/2024-09-17-14-21-01/
     RDKit          3D

 26 28  0  0  0  0  0  0  0  0999 V2000
   -7.7129    4.2099   27.0854 C   0  0  0  0  0  0  0  0  0  0  0  0
   -8.2112    3.0637   26.9225 C   0  0  0  0  0  0  0  0  0  0  0  0
   -9.4446    2.8304   26.1868 C   0  0  0  0  0  0  0  0  0  0  0  0
   -8.4697    5.3956   26.7238 C   0  0  0  0  0  0  0  0  0  0  0  0
   -9.6172    5.2111   25.9513 C   0  0  0  0  0  0  0  0  0  0  0  0
  -10.0424    3.9782   25.6873 C   0  0  0  0  0  0  0  0  0  0  0  0
   -7.5056    1.8167   27.4088 C   0  0  0  0  0  0  0  0  0  0  0  0
   -6.1365    1.8782   27.7502 C   0  0  0  0  0  0  0  0  0  0  0  0
   -5.4402    0.7398   28.2080 C   0  0  0  0  0  0  0  0  0  0  0  0
   -6.0836   -0.4843   28.1647 C   0  0  0  0  0  0  0  0  0  0  0  0
   -8.0402    0.5377   27.3754 C   0  0  0  0  0  0  0  0  0  0  0  0
   -7.4090   -0.5410   27.8089 C   0  0  0  0  0  0  0  0  0  0  0  0
   -7.9636    6.7380   27.0471 C   0  0  0  0  0  0  0  0  0  0  0  0
   -8.5239    7.7413   26.7066 F   0  0  0  0  0  0  0  0  0  0  0  0
   -7.9180    6.7418   28.5312 F   0  0  0  0  0  0  0  0  0  0  0  0
   -4.0166    0.8990   28.6237 C   0  0  0  0  0  0  0  0  0  0  0  0
   -3.3506    0.1082   28.4199 O   0  0  0  0  0  0  0  0  0  0  0  0
   -3.8690    1.7139   29.7249 O   0  0  0  0  0  0  0  0  0  0  0  0
   -6.6539    6.8869   26.8127 F   0  0  0  0  0  0  0  0  0  0  0  0
  -11.2446    3.8620   24.8503 C   0  0  0  0  0  0  0  0  0  0  0  0
  -11.1208    3.1501   23.6980 C   0  0  0  0  0  0  0  0  0  0  0  0
  -11.8747    3.2806   22.6698 C   0  0  0  0  0  0  0  0  0  0  0  0
  -11.6639    2.5219   21.4311 C   0  0  0  0  0  0  0  0  0  0  0  0
  -10.5905    1.5799   21.3833 C   0  0  0  0  0  0  0  0  0  0  0  0
   -9.7636    1.4700   22.4944 C   0  0  0  0  0  0  0  0  0  0  0  0
   -9.9448    2.2003   23.5906 C   0  0  0  0  0  0  0  0  0  0  0  0
  2  7  1  0
  4 13  1  0
 13 14  1  0
 13 15  1  0
  9 16  1  0
 16 17  2  0
 16 18  1  0
 13 19  1  0
  6 20  1  0
 20 21  1  0
  7  8  2  0
  8  9  1  0
  9 10  2  0
 10 12  1  0
 12 11  2  0
 11  7  1  0
  1  2  2  0
  2  3  1  0
  3  6  2  0
  6  5  1  0
  5  4  2  0
  4  1  1  0
 21 22  2  0
 22 23  1  0
 23 24  2  0
 24 25  1  0
 25 26  2  0
 26 21  1  0
M  END
$$$$
