No_4469-complexes_sdf/6BKW-FPZ/2024-09-17-14-21-01/
     RDKit          3D

 16 18  0  0  0  0  0  0  0  0999 V2000
   -7.9040    3.9820   27.1177 C   0  0  0  0  0  0  0  0  0  0  0  0
   -7.8663    4.8694   27.9238 C   0  0  0  0  0  0  0  0  0  0  0  0
   -9.0501    3.8017   26.2617 C   0  0  0  0  0  0  0  0  0  0  0  0
  -10.0189    4.7608   26.3707 C   0  0  0  0  0  0  0  0  0  0  0  0
   -8.6973    5.9722   27.8968 C   0  0  0  0  0  0  0  0  0  0  0  0
   -9.8216    5.8946   27.1241 C   0  0  0  0  0  0  0  0  0  0  0  0
   -9.1437    2.6293   25.4175 C   0  0  0  0  0  0  0  0  0  0  0  0
   -8.6100    1.5009   25.7781 N   0  0  0  0  0  0  0  0  0  0  0  0
   -8.5030    0.4530   24.9505 C   0  0  0  0  0  0  0  0  0  0  0  0
   -9.8441    2.7299   24.2293 C   0  0  0  0  0  0  0  0  0  0  0  0
   -9.8439    1.6541   23.3645 C   0  0  0  0  0  0  0  0  0  0  0  0
   -9.1736    0.5039   23.7426 C   0  0  0  0  0  0  0  0  0  0  0  0
   -9.1242   -0.6544   22.8059 C   0  0  0  0  0  0  0  0  0  0  0  0
   -9.8116   -0.6355   21.6738 C   0  0  0  0  0  0  0  0  0  0  0  0
  -10.4643    0.6139   21.3153 C   0  0  0  0  0  0  0  0  0  0  0  0
  -10.5025    1.7368   22.1283 C   0  0  0  0  0  0  0  0  0  0  0  0
  3  7  1  0
 12 13  1  0
 13 14  2  0
 14 15  1  0
 15 16  2  0
 16 11  1  0
  1  2  2  0
  2  5  1  0
  5  6  2  0
  6  4  1  0
  4  3  2  0
  3  1  1  0
  7  8  2  0
  8  9  1  0
  9 12  2  0
 12 11  1  0
 11 10  2  0
 10  7  1  0
M  END
$$$$
