No_4395-complexes_sdf/6BKW-FPZ/2024-09-17-14-21-01/
     RDKit          3D

 20 22  0  0  0  0  0  0  0  0999 V2000
   -7.9040    3.9820   27.1177 C   0  0  0  0  0  0  0  0  0  0  0  0
   -9.0711    4.3164   27.0630 C   0  0  0  0  0  0  0  0  0  0  0  0
   -9.8698    3.9665   25.9494 C   0  0  0  0  0  0  0  0  0  0  0  0
   -7.4046    2.7946   26.4568 C   0  0  0  0  0  0  0  0  0  0  0  0
   -8.3645    2.1023   25.7152 C   0  0  0  0  0  0  0  0  0  0  0  0
  -11.1282    4.5710   25.7144 C   0  0  0  0  0  0  0  0  0  0  0  0
   -9.5827    2.7475   25.3307 C   0  0  0  0  0  0  0  0  0  0  0  0
   -6.9042    4.5688   28.1418 C   0  0  0  0  0  0  0  0  0  0  0  0
   -7.3249    5.6029   28.8051 O   0  0  0  0  0  0  0  0  0  0  0  0
   -5.7183    4.0919   28.2933 O   0  0  0  0  0  0  0  0  0  0  0  0
  -11.7975    4.3321   24.4759 C   0  0  0  0  0  0  0  0  0  0  0  0
  -11.3307    3.1984   23.7072 C   0  0  0  0  0  0  0  0  0  0  0  0
  -10.2466    2.3916   24.1261 C   0  0  0  0  0  0  0  0  0  0  0  0
  -12.1145    2.8746   22.5222 C   0  0  0  0  0  0  0  0  0  0  0  0
  -11.9720    2.0745   21.7832 C   0  0  0  0  0  0  0  0  0  0  0  0
  -12.7417    1.7515   20.5417 C   0  0  0  0  0  0  0  0  0  0  0  0
  -13.7640    2.6641   20.3020 C   0  0  0  0  0  0  0  0  0  0  0  0
  -13.2442    3.8498   22.1272 C   0  0  0  0  0  0  0  0  0  0  0  0
  -13.9992    3.6913   21.1112 C   0  0  0  0  0  0  0  0  0  0  0  0
   -7.8895    0.6325   24.9918 Cl  0  0  0  0  0  0  0  0  0  0  0  0
  1  8  1  0
  8  9  2  0
  8 10  1  0
 12 14  1  0
  5 20  1  0
  3  6  2  0
  6 11  1  0
 11 12  2  0
 12 13  1  0
 13  7  2  0
 14 15  2  0
 15 16  1  0
 16 17  2  0
 17 19  1  0
 19 18  2  0
 18 14  1  0
  1  2  2  0
  2  3  1  0
  3  7  1  0
  7  5  1  0
  5  4  2  0
  4  1  1  0
M  END
$$$$
