No_4243-complexes_sdf/6BKW-FPZ/2024-09-17-14-21-01/
     RDKit          3D

 23 25  0  0  0  0  0  0  0  0999 V2000
   -7.9040    3.9820   27.1177 C   0  0  0  0  0  0  0  0  0  0  0  0
   -9.0711    4.3164   27.0630 C   0  0  0  0  0  0  0  0  0  0  0  0
   -9.8698    3.9665   25.9494 C   0  0  0  0  0  0  0  0  0  0  0  0
   -7.0332    4.5030   28.2025 C   0  0  0  0  0  0  0  0  0  0  0  0
  -10.9909    4.7237   25.5958 C   0  0  0  0  0  0  0  0  0  0  0  0
   -7.5840    5.4918   28.9036 N   0  0  0  0  0  0  0  0  0  0  0  0
  -11.7865    4.4111   26.2861 C   0  0  0  0  0  0  0  0  0  0  0  0
  -11.4819    4.5053   27.8081 C   0  0  0  0  0  0  0  0  0  0  0  0
  -10.0674    4.2328   28.0813 C   0  0  0  0  0  0  0  0  0  0  0  0
   -5.7550    4.1579   28.2224 N   0  0  0  0  0  0  0  0  0  0  0  0
  -13.2827    4.7872   26.1793 C   0  0  2  0  0  0  0  0  0  0  0  0
  -14.0919    4.7901   27.1983 N   0  0  0  0  0  0  0  0  0  0  0  0
  -15.3342    5.4458   27.1028 C   0  0  0  0  0  0  0  0  0  0  0  0
  -14.0134    4.1192   25.1462 C   0  0  0  0  0  0  0  0  0  0  0  0
  -16.0512    5.6778   28.3272 C   0  0  0  0  0  0  0  0  0  0  0  0
  -15.8769    5.8733   25.9120 C   0  0  0  0  0  0  0  0  0  0  0  0
  -15.0852    5.1358   24.6862 C   0  0  0  0  0  0  0  0  0  0  0  0
  -16.1523    6.9086   28.7655 C   0  0  0  0  0  0  0  0  0  0  0  0
  -15.6631    7.9955   28.3067 C   0  0  0  0  0  0  0  0  0  0  0  0
  -15.8418    9.3315   28.9398 C   0  0  0  0  0  0  0  0  0  0  0  0
  -16.7695    9.3765   29.9540 C   0  0  0  0  0  0  0  0  0  0  0  0
  -17.0653    7.1227   29.9847 C   0  0  0  0  0  0  0  0  0  0  0  0
  -17.3096    8.3170   30.4649 N   0  0  0  0  0  0  0  0  0  0  0  0
  1  2  1  0
  1  4  1  0
  4  6  2  0
  4 10  1  0
 11  7  1  1
 11 12  1  0
 12 13  1  0
 11 14  1  0
 13 15  2  3
 13 16  1  0
 14 17  1  0
 16 17  1  0
 15 18  1  0
  2  3  2  0
  3  5  1  0
  5  7  2  0
  7  8  1  0
  8  9  2  0
  9  2  1  0
 18 19  2  0
 19 20  1  0
 20 21  2  0
 21 23  1  0
 23 22  2  0
 22 18  1  0
M  END
$$$$
