No_4779-complexes_sdf/6BKW-FPZ/2024-09-17-14-21-01/
     RDKit          3D

 40 43  0  0  0  0  0  0  0  0999 V2000
   -7.7129    4.2099   27.0854 C   0  0  0  0  0  0  0  0  0  0  0  0
   -8.2112    3.0637   26.9225 C   0  0  0  0  0  0  0  0  0  0  0  0
   -7.5138    1.9223   27.4249 C   0  0  2  0  0  0  0  0  0  0  0  0
   -8.5309    5.4147   26.8151 C   0  0  0  0  0  0  0  0  0  0  0  0
   -9.6817    5.2393   26.1100 C   0  0  0  0  0  0  0  0  0  0  0  0
  -10.1032    3.9957   25.8534 C   0  0  0  0  0  0  0  0  0  0  0  0
   -9.4034    2.8430   26.2573 C   0  0  0  0  0  0  0  0  0  0  0  0
   -6.2445    2.0060   27.8662 N   0  0  0  0  0  0  0  0  0  0  0  0
   -5.5344    0.8568   28.2200 C   0  0  0  0  0  0  0  0  0  0  0  0
   -4.1737    0.9460   28.7265 C   0  0  0  0  0  0  0  0  0  0  0  0
   -6.2652   -0.3759   28.2459 C   0  0  0  0  0  0  0  0  0  0  0  0
   -8.1229    0.6987   27.2473 F   0  0  0  0  0  0  0  0  0  0  0  0
   -3.5677   -0.1300   29.2996 C   0  0  0  0  0  0  0  0  0  0  0  0
   -5.4784   -1.4845   28.9196 C   0  0  0  0  0  0  0  0  0  0  0  0
   -4.2184   -1.3330   29.3783 C   0  0  0  0  0  0  0  0  0  0  0  0
   -7.8135    6.6876   27.1328 C   0  0  0  0  0  0  0  0  0  0  0  0
   -8.0410    7.8103   26.9032 N   0  0  0  0  0  0  0  0  0  0  0  0
   -6.8206    6.5148   28.1293 N   0  0  0  0  0  0  0  0  0  0  0  0
   -3.5486   -2.4917   30.0111 C   0  0  0  0  0  0  0  0  0  0  0  0
   -3.0353   -2.6723   30.8511 C   0  0  0  0  0  0  0  0  0  0  0  0
   -2.9139   -1.5006   31.9351 C   0  0  0  0  0  0  0  0  0  0  0  0
   -3.5147   -0.6491   32.1694 N   0  0  0  0  0  0  0  0  0  0  0  0
   -4.0159   -0.3797   33.1554 C   0  0  0  0  0  0  0  0  0  0  0  0
   -4.4756   -1.5001   33.9504 C   0  0  0  0  0  0  0  0  0  0  0  0
   -4.6748   -1.1508   35.2995 C   0  0  0  0  0  0  0  0  0  0  0  0
   -3.9977   -1.7825   36.3151 C   0  0  0  0  0  0  0  0  0  0  0  0
   -3.1575   -2.8046   35.9978 C   0  0  0  0  0  0  0  0  0  0  0  0
   -2.5620   -3.5102   37.0011 C   0  0  0  0  0  0  0  0  0  0  0  0
   -2.6930   -3.1228   38.3165 C   0  0  0  0  0  0  0  0  0  0  0  0
   -3.4851   -2.0562   38.6825 C   0  0  0  0  0  0  0  0  0  0  0  0
   -4.1931   -1.3081   37.6563 C   0  0  0  0  0  0  0  0  0  0  0  0
   -1.4889   -1.5996   32.6933 C   0  0  0  0  0  0  0  0  0  0  0  0
   -0.7609   -2.6198   32.8950 C   0  0  0  0  0  0  0  0  0  0  0  0
    0.3427   -2.5597   33.7146 C   0  0  0  0  0  0  0  0  0  0  0  0
    0.6182   -1.3626   34.4026 C   0  0  0  0  0  0  0  0  0  0  0  0
   -0.2470   -0.2703   34.2995 C   0  0  0  0  0  0  0  0  0  0  0  0
   -1.3550   -0.3569   33.5004 C   0  0  0  0  0  0  0  0  0  0  0  0
   -3.6500   -3.6897   29.0022 C   0  0  0  0  0  0  0  0  0  0  0  0
   -3.1037   -4.7623   29.4492 C   0  0  0  0  0  0  0  0  0  0  0  0
   -2.4372   -4.9557   30.5953 C   0  0  0  0  0  0  0  0  0  0  0  0
  2  3  1  0
  3  8  1  0
  3 12  1  6
  4 16  1  0
 16 17  2  0
 16 18  1  0
 15 19  1  0
 19 20  2  3
 20 21  1  0
 21 22  2  3
 22 23  1  0
 23 24  1  0
 24 25  1  0
 21 32  1  0
 19 38  1  0
 38 39  2  3
 39 40  1  0
 25 26  1  0
  8  9  1  0
  9 10  2  0
 10 13  1  0
 13 15  2  0
 15 14  1  0
 14 11  2  0
 11  9  1  0
 32 33  2  0
 33 34  1  0
 34 35  2  0
 35 36  1  0
 36 37  2  0
 37 32  1  0
  1  2  2  0
  2  7  1  0
  7  6  2  0
  6  5  1  0
  5  4  2  0
  4  1  1  0
 26 27  2  0
 27 28  1  0
 28 29  2  0
 29 30  1  0
 30 31  2  0
 31 26  1  0
M  END
$$$$
