No_4540-complexes_sdf/6BKW-FPZ/2024-09-17-14-21-01/
     RDKit          3D

 18 19  0  0  0  0  0  0  0  0999 V2000
   -7.9040    3.9820   27.1177 C   0  0  0  0  0  0  0  0  0  0  0  0
   -7.8663    4.8694   27.9238 C   0  0  0  0  0  0  0  0  0  0  0  0
   -9.0501    3.8017   26.2617 C   0  0  0  0  0  0  0  0  0  0  0  0
   -9.1826    2.7026   25.3575 C   0  0  0  0  0  0  0  0  0  0  0  0
   -8.6940    6.0131   27.8614 C   0  0  0  0  0  0  0  0  0  0  0  0
   -9.9755    4.8547   26.2361 C   0  0  0  0  0  0  0  0  0  0  0  0
   -9.7463    5.9398   27.0364 C   0  0  0  0  0  0  0  0  0  0  0  0
  -10.1245    1.8871   25.7330 C   0  0  0  0  0  0  0  0  0  0  0  0
  -10.1275    0.7205   25.0793 C   0  0  0  0  0  0  0  0  0  0  0  0
  -10.6687   -0.3473   25.7208 C   0  0  0  0  0  0  0  0  0  0  0  0
  -10.9230    1.9252   26.8840 C   0  0  0  0  0  0  0  0  0  0  0  0
  -11.5588    0.8684   27.5123 C   0  0  0  0  0  0  0  0  0  0  0  0
  -11.4619   -0.3406   26.8455 C   0  0  0  0  0  0  0  0  0  0  0  0
   -7.0535    2.9476   27.2122 F   0  0  0  0  0  0  0  0  0  0  0  0
  -12.2830    0.9510   28.8070 C   0  0  0  0  0  0  0  0  0  0  0  0
  -12.6227    2.3092   29.1439 C   0  0  0  0  0  0  0  0  0  0  0  0
  -13.4061    2.5576   30.2654 C   0  0  0  0  0  0  0  0  0  0  0  0
  -13.5842    3.9016   30.6996 C   0  0  0  0  0  0  0  0  0  0  0  0
  3  4  1  0
  4  8  1  0
  1 14  1  0
 12 15  1  0
 15 16  1  0
 16 17  2  3
 17 18  1  0
  8  9  2  0
  9 10  1  0
 10 13  2  0
 13 12  1  0
 12 11  2  0
 11  8  1  0
  1  2  2  0
  2  5  1  0
  5  7  2  0
  7  6  1  0
  6  3  2  0
  3  1  1  0
M  END
$$$$
