No_4852-complexes_sdf/6BKW-FPZ/2024-09-17-14-21-01/
     RDKit          3D

 18 21  0  0  0  0  0  0  0  0999 V2000
   -7.2496    3.8871   27.4508 C   0  0  0  0  0  0  0  0  0  0  0  0
   -7.6161    2.7143   27.1523 C   0  0  0  0  0  0  0  0  0  0  0  0
   -7.1618    1.8631   27.5232 C   0  0  0  0  0  0  0  0  0  0  0  0
   -8.0036    5.1085   27.2100 C   0  0  2  0  0  0  0  0  0  0  0  0
   -9.0765    5.1561   26.4023 C   0  0  0  0  0  0  0  0  0  0  0  0
   -9.5423    3.9740   25.8512 C   0  0  1  0  0  0  0  0  0  0  0  0
   -8.8464    2.7352   26.2620 C   0  0  0  0  0  0  0  0  0  0  0  0
   -7.5924    0.4293   27.3762 C   0  0  0  0  0  0  0  0  0  0  0  0
   -8.8064    0.3083   26.6948 C   0  0  0  0  0  0  0  0  0  0  0  0
   -9.4560    1.4925   26.0294 C   0  0  0  0  0  0  0  0  0  0  0  0
   -7.3491    6.6140   27.9249 Cl  0  0  0  0  0  0  0  0  0  0  0  0
  -10.5971    1.2827   25.2434 C   0  0  0  0  0  0  0  0  0  0  0  0
  -10.8933    0.1396   24.6882 C   0  0  0  0  0  0  0  0  0  0  0  0
  -11.9945   -0.0223   23.8483 C   0  0  0  0  0  0  0  0  0  0  0  0
  -12.5210    0.8169   23.4461 C   0  0  0  0  0  0  0  0  0  0  0  0
  -12.2891    2.2322   23.7979 C   0  0  0  0  0  0  0  0  0  0  0  0
  -11.2693    2.4772   24.7071 C   0  0  0  0  0  0  0  0  0  0  0  0
  -10.7123    3.7419   25.0552 C   0  0  0  0  0  0  0  0  0  0  0  0
  1  2  1  0
  1  4  1  0
  4  5  1  0
  6  5  1  1
  6  7  1  0
  4 11  1  6
 10 12  1  0
  6 18  1  0
 17 18  1  0
 12 13  2  0
 13 14  1  0
 14 15  2  0
 15 16  1  0
 16 17  2  0
 17 12  1  0
  2  3  2  0
  3  8  1  0
  8  9  2  0
  9 10  1  0
 10  7  2  0
  7  2  1  0
M  END
$$$$
