No_4977-complexes_sdf/6BKW-FPZ/2024-09-17-14-21-01/
     RDKit          3D

 26 30  0  0  0  0  0  0  0  0999 V2000
   -7.9040    3.9820   27.1177 C   0  0  0  0  0  0  0  0  0  0  0  0
   -7.8663    4.8694   27.9238 C   0  0  0  0  0  0  0  0  0  0  0  0
   -9.0501    3.8017   26.2617 C   0  0  0  0  0  0  0  0  0  0  0  0
  -10.0189    4.7608   26.3707 C   0  0  0  0  0  0  0  0  0  0  0  0
   -8.6973    5.9722   27.8968 C   0  0  0  0  0  0  0  0  0  0  0  0
   -9.8216    5.8946   27.1241 C   0  0  0  0  0  0  0  0  0  0  0  0
   -9.1437    2.6293   25.4175 C   0  0  0  0  0  0  0  0  0  0  0  0
   -8.6100    1.5009   25.7781 N   0  0  0  0  0  0  0  0  0  0  0  0
  -10.1334    2.5286   24.4230 C   0  0  0  0  0  0  0  0  0  0  0  0
   -8.7663    0.4888   24.9445 C   0  0  0  0  0  0  0  0  0  0  0  0
  -10.8571    3.6607   23.9212 C   0  0  0  0  0  0  0  0  0  0  0  0
  -10.0489    1.3109   23.7635 C   0  0  0  0  0  0  0  0  0  0  0  0
  -11.3699    3.5165   22.7454 C   0  0  0  0  0  0  0  0  0  0  0  0
  -12.1326    4.6411   22.1729 C   0  0  0  0  0  0  0  0  0  0  0  0
  -12.7384    4.5130   20.9837 C   0  0  0  0  0  0  0  0  0  0  0  0
  -12.5515    3.3138   20.1908 C   0  0  0  0  0  0  0  0  0  0  0  0
  -11.7920    2.3092   20.7017 C   0  0  0  0  0  0  0  0  0  0  0  0
  -11.2369    2.4044   21.9079 C   0  0  0  0  0  0  0  0  0  0  0  0
  -10.3542    0.8908   22.6138 C   0  0  0  0  0  0  0  0  0  0  0  0
  -10.1586   -0.1536   21.8676 C   0  0  0  0  0  0  0  0  0  0  0  0
  -10.6301   -1.3532   22.4255 C   0  0  0  0  0  0  0  0  0  0  0  0
  -10.3559   -2.5616   21.7486 C   0  0  0  0  0  0  0  0  0  0  0  0
   -9.7586   -2.5155   20.4785 C   0  0  0  0  0  0  0  0  0  0  0  0
   -9.3506   -1.3052   19.8859 C   0  0  0  0  0  0  0  0  0  0  0  0
   -9.5446   -0.0912   20.6137 C   0  0  0  0  0  0  0  0  0  0  0  0
   -8.4876   -0.5780   24.7325 O   0  0  0  0  0  0  0  0  0  0  0  0
  3  7  1  0
  7  8  2  0
  7  9  1  0
  8 10  1  0
 10 12  1  0
 19 20  1  0
 10 26  2  0
  9 11  2  0
 11 13  1  0
 18 19  1  0
 19 12  2  0
 12  9  1  0
 13 14  2  0
 14 15  1  0
 15 16  2  0
 16 17  1  0
 17 18  2  0
 18 13  1  0
  1  2  2  0
  2  5  1  0
  5  6  2  0
  6  4  1  0
  4  3  2  0
  3  1  1  0
 20 21  2  0
 21 22  1  0
 22 23  2  0
 23 24  1  0
 24 25  2  0
 25 20  1  0
M  END
$$$$
