No_4935-complexes_sdf/6BKW-FPZ/2024-09-17-14-21-01/
     RDKit          3D

 15 16  0  0  0  0  0  0  0  0999 V2000
   -7.9040    3.9820   27.1177 C   0  0  0  0  0  0  0  0  0  0  0  0
   -7.8663    4.8694   27.9238 C   0  0  1  0  0  0  0  0  0  0  0  0
   -9.0491    3.8523   26.2542 C   0  0  0  0  0  0  0  0  0  0  0  0
   -9.9827    3.2456   26.6451 C   0  0  0  0  0  0  0  0  0  0  0  0
   -9.1410    5.3568   28.4612 C   0  0  0  0  0  0  0  0  0  0  0  0
  -10.5003    4.9280   28.1786 C   0  0  0  0  0  0  0  0  0  0  0  0
  -10.9514    4.0584   27.4519 C   0  0  0  0  0  0  0  0  0  0  0  0
  -10.5885    2.1002   25.8435 C   0  0  0  0  0  0  0  0  0  0  0  0
  -11.0121    1.2127   26.4771 C   0  0  0  0  0  0  0  0  0  0  0  0
  -10.8897    1.1857   27.9477 C   0  0  0  0  0  0  0  0  0  0  0  0
  -11.6469   -0.0229   25.9516 C   0  0  0  0  0  0  0  0  0  0  0  0
   -6.8483    5.3807   28.4889 F   0  0  0  0  0  0  0  0  0  0  0  0
  -11.8591   -1.0514   26.5070 C   0  0  0  0  0  0  0  0  0  0  0  0
  -11.3233   -0.0320   28.7006 C   0  0  0  0  0  0  0  0  0  0  0  0
  -11.7869   -1.1025   28.0367 C   0  0  0  0  0  0  0  0  0  0  0  0
  1  2  1  0
  1  3  1  0
  3  4  2  0
  2  5  1  0
  5  6  3  0
  4  7  1  0
  6  7  1  0
  4  8  1  0
  2 12  1  1
  8  9  1  0
  9 10  2  0
 10 14  1  0
 14 15  2  0
 15 13  1  0
 13 11  2  0
 11  9  1  0
M  END
$$$$
