No_4113-complexes_sdf/6BKW-FPZ/2024-09-17-14-21-01/
     RDKit          3D

 35 40  0  0  0  0  0  0  0  0999 V2000
   -7.7129    4.2099   27.0854 C   0  0  0  0  0  0  0  0  0  0  0  0
   -8.2112    3.0637   26.9225 C   0  0  0  0  0  0  0  0  0  0  0  0
   -7.0021    4.5281   28.2396 C   0  0  0  0  0  0  0  0  0  0  0  0
   -7.5497    1.9016   27.4549 C   0  0  0  0  0  0  0  0  0  0  0  0
   -8.0700    0.6173   27.2932 C   0  0  0  0  0  0  0  0  0  0  0  0
   -7.5026   -0.4661   27.9187 C   0  0  0  0  0  0  0  0  0  0  0  0
   -6.2089   -0.3261   28.3966 C   0  0  0  0  0  0  0  0  0  0  0  0
   -5.5555    0.9234   28.4077 C   0  0  0  0  0  0  0  0  0  0  0  0
   -6.1577    2.0106   27.8954 C   0  0  0  0  0  0  0  0  0  0  0  0
   -9.1964    2.8670   25.9382 C   0  0  0  0  0  0  0  0  0  0  0  0
   -9.8606    3.9696   25.4130 C   0  0  0  0  0  0  0  0  0  0  0  0
   -9.4100    5.2870   25.7932 C   0  0  0  0  0  0  0  0  0  0  0  0
   -8.4676    5.4047   26.5239 C   0  0  0  0  0  0  0  0  0  0  0  0
   -4.1696    0.9689   28.9800 C   0  0  0  0  0  0  0  0  0  0  0  0
   -3.7149   -0.0244   29.8171 C   0  0  0  0  0  0  0  0  0  0  0  0
   -4.4078   -1.2600   29.8461 C   0  0  0  0  0  0  0  0  0  0  0  0
   -5.6302   -1.4214   29.1777 C   0  0  0  0  0  0  0  0  0  0  0  0
   -3.8622   -2.3698   30.6428 C   0  0  0  0  0  0  0  0  0  0  0  0
   -4.2903   -3.2825   30.7882 C   0  0  0  0  0  0  0  0  0  0  0  0
   -3.7525   -4.4336   31.5618 C   0  0  0  0  0  0  0  0  0  0  0  0
   -2.4955   -4.2326   32.1384 C   0  0  0  0  0  0  0  0  0  0  0  0
   -1.8549   -3.0042   31.9817 C   0  0  0  0  0  0  0  0  0  0  0  0
   -2.4801   -2.0007   31.2610 C   0  0  0  0  0  0  0  0  0  0  0  0
  -10.8655    3.8092   24.3487 C   0  0  0  0  0  0  0  0  0  0  0  0
  -10.6992    4.1453   23.1581 N   0  0  0  0  0  0  0  0  0  0  0  0
  -11.5489    4.0997   22.1387 C   0  0  0  0  0  0  0  0  0  0  0  0
  -12.1526    3.3559   24.7305 C   0  0  0  0  0  0  0  0  0  0  0  0
  -13.1313    3.2325   23.7495 C   0  0  0  0  0  0  0  0  0  0  0  0
  -12.8091    3.6595   22.4262 C   0  0  0  0  0  0  0  0  0  0  0  0
  -12.5000    3.0162   26.1312 C   0  0  0  0  0  0  0  0  0  0  0  0
  -12.5550    3.6958   27.0146 C   0  0  0  0  0  0  0  0  0  0  0  0
  -12.7505    3.3393   28.4261 C   0  0  0  0  0  0  0  0  0  0  0  0
  -12.7905    1.9628   28.6966 C   0  0  0  0  0  0  0  0  0  0  0  0
  -12.4925    1.5840   26.3888 C   0  0  0  0  0  0  0  0  0  0  0  0
  -12.6237    1.0941   27.6446 C   0  0  0  0  0  0  0  0  0  0  0  0
 16 18  1  0
 11 24  1  0
 27 30  1  0
  4  2  1  0
  3  1  1  0
 18 19  2  0
 19 20  1  0
 20 21  2  0
 21 22  1  0
 22 23  2  0
 23 18  1  0
  8 14  1  0
 14 15  2  0
 15 16  1  0
 16 17  2  0
 17  7  1  0
 30 31  2  0
 31 32  1  0
 32 33  2  0
 33 35  1  0
 35 34  2  0
 34 30  1  0
 24 25  2  0
 25 26  1  0
 26 29  2  0
 29 28  1  0
 28 27  2  0
 27 24  1  0
  1  2  2  0
  2 10  1  0
 10 11  2  0
 11 12  1  0
 12 13  2  0
 13  1  1  0
  4  5  2  0
  5  6  1  0
  6  7  2  0
  7  8  1  0
  8  9  2  0
  9  4  1  0
M  END
$$$$
