No_4919-complexes_sdf/6BKW-FPZ/2024-09-17-14-21-01/
     RDKit          3D

 20 21  0  0  0  0  0  0  0  0999 V2000
   -7.7129    4.2099   27.0854 C   0  0  0  0  0  0  0  0  0  0  0  0
   -8.9133    4.4736   27.0998 C   0  0  2  0  0  0  0  0  0  0  0  0
   -9.7135    3.9633   26.0300 C   0  0  0  0  0  0  0  0  0  0  0  0
   -6.8655    4.8824   28.1822 C   0  0  0  0  0  0  0  0  0  0  0  0
  -10.8856    4.5824   25.6430 C   0  0  0  0  0  0  0  0  0  0  0  0
   -7.6664    5.7849   28.7962 N   0  0  0  0  0  0  0  0  0  0  0  0
   -8.8934    5.5511   27.9459 C   0  0  0  0  0  0  0  0  0  0  0  0
  -11.7566    4.0566   24.6254 C   0  0  0  0  0  0  0  0  0  0  0  0
  -11.3747    3.2310   24.0038 C   0  0  0  0  0  0  0  0  0  0  0  0
  -10.1753    2.4701   24.1800 C   0  0  0  0  0  0  0  0  0  0  0  0
   -9.3324    2.9434   25.2055 C   0  0  0  0  0  0  0  0  0  0  0  0
   -9.7685    1.3837   23.4420 N   0  0  0  0  0  0  0  0  0  0  0  0
   -8.8913    0.5149   23.8385 C   0  0  0  0  0  0  0  0  0  0  0  0
  -10.1660    1.2714   22.0460 C   0  0  0  0  0  0  0  0  0  0  0  0
   -8.6304    0.2347   25.0492 C   0  0  0  0  0  0  0  0  0  0  0  0
   -8.1724   -0.2635   22.8108 C   0  0  0  0  0  0  0  0  0  0  0  0
   -7.7207   -0.7974   25.4403 C   0  0  0  0  0  0  0  0  0  0  0  0
   -7.4424   -1.0020   26.8438 C   0  0  0  0  0  0  0  0  0  0  0  0
   -8.1752   -0.2170   27.7818 C   0  0  0  0  0  0  0  0  0  0  0  0
   -9.0219    0.7855   27.4286 C   0  0  0  0  0  0  0  0  0  0  0  0
  1  2  1  0
  1  4  1  0
  4  6  2  0
  2  7  1  0
  6  7  1  0
 10 12  1  0
 12 13  1  0
 12 14  1  0
 13 15  2  3
 13 16  1  0
 15 17  1  0
 17 18  2  3
 18 19  1  0
 19 20  2  0
  2  3  1  6
  3  5  2  0
  5  8  1  0
  8  9  2  0
  9 10  1  0
 10 11  2  0
 11  3  1  0
M  END
$$$$
