No_4545-complexes_sdf/6BKW-FPZ/2024-09-17-14-21-01/
     RDKit          3D

 22 24  0  0  0  0  0  0  0  0999 V2000
   -7.7129    4.2099   27.0854 C   0  0  0  0  0  0  0  0  0  0  0  0
   -7.7814    5.1722   27.8972 C   0  0  0  0  0  0  0  0  0  0  0  0
   -8.8776    3.8408   26.3416 C   0  0  0  0  0  0  0  0  0  0  0  0
   -9.9844    4.6492   26.4743 C   0  0  0  0  0  0  0  0  0  0  0  0
   -8.8033    6.1375   27.8728 C   0  0  0  0  0  0  0  0  0  0  0  0
   -9.9554    5.8280   27.1736 C   0  0  0  0  0  0  0  0  0  0  0  0
   -8.8740    2.6184   25.5584 C   0  0  0  0  0  0  0  0  0  0  0  0
   -9.7481    2.4811   24.4970 C   0  0  0  0  0  0  0  0  0  0  0  0
  -10.7300    3.5278   24.3501 C   0  0  0  0  0  0  0  0  0  0  0  0
  -10.9451    4.5014   25.3632 C   0  0  0  0  0  0  0  0  0  0  0  0
  -11.7004    3.2973   23.4210 O   0  0  0  0  0  0  0  0  0  0  0  0
  -11.4037    3.3750   22.1786 C   0  0  0  0  0  0  0  0  0  0  0  0
   -6.7272    5.5585   28.6751 F   0  0  0  0  0  0  0  0  0  0  0  0
  -11.6603    4.4079   21.5370 C   0  0  0  0  0  0  0  0  0  0  0  0
  -10.8260    2.2532   21.5018 C   0  0  0  0  0  0  0  0  0  0  0  0
  -10.5347    1.0066   22.1334 C   0  0  0  0  0  0  0  0  0  0  0  0
  -10.4691    0.0896   21.6972 C   0  0  0  0  0  0  0  0  0  0  0  0
  -10.4634   -0.0968   20.1756 C   0  0  0  0  0  0  0  0  0  0  0  0
  -10.9027    0.9868   19.4957 C   0  0  0  0  0  0  0  0  0  0  0  0
  -11.0843    2.1765   20.1222 C   0  0  0  0  0  0  0  0  0  0  0  0
  -11.8965    5.6136   22.3659 C   0  0  0  0  0  0  0  0  0  0  0  0
  -10.6601    4.9376   20.5658 C   0  0  0  0  0  0  0  0  0  0  0  0
  9 11  1  0
 11 12  1  0
  2 13  1  0
 12 14  2  3
 12 15  1  0
 14 21  1  0
 14 22  1  0
 15 16  2  0
 16 17  1  0
 17 18  2  0
 18 19  1  0
 19 20  2  0
 20 15  1  0
  4 10  2  0
 10  9  1  0
  9  8  2  0
  8  7  1  0
  7  3  2  0
  1  2  2  0
  2  5  1  0
  5  6  2  0
  6  4  1  0
  4  3  1  0
  3  1  1  0
M  END
$$$$
