No_4895-complexes_sdf/6BKW-FPZ/2024-09-17-14-21-01/
     RDKit          3D

 23 25  0  0  0  0  0  0  0  0999 V2000
   -7.9040    3.9820   27.1177 C   0  0  0  0  0  0  0  0  0  0  0  0
   -9.0711    4.3164   27.0630 C   0  0  0  0  0  0  0  0  0  0  0  0
   -9.8698    3.9665   25.9494 C   0  0  0  0  0  0  0  0  0  0  0  0
   -7.0332    4.5030   28.2025 C   0  0  0  0  0  0  0  0  0  0  0  0
  -10.9909    4.7237   25.5958 C   0  0  0  0  0  0  0  0  0  0  0  0
   -7.4989    5.5572   28.9524 C   0  0  0  0  0  0  0  0  0  0  0  0
  -11.7350    4.2316   24.5284 C   0  0  0  0  0  0  0  0  0  0  0  0
  -11.2912    3.1970   23.7185 C   0  0  0  0  0  0  0  0  0  0  0  0
  -10.1586    2.5464   24.0389 C   0  0  0  0  0  0  0  0  0  0  0  0
   -9.3966    2.9844   25.1500 C   0  0  0  0  0  0  0  0  0  0  0  0
   -9.6481    4.6491   28.2583 C   0  0  0  0  0  0  0  0  0  0  0  0
   -8.8772    5.4026   29.2142 C   0  0  0  0  0  0  0  0  0  0  0  0
   -9.6542    1.4142   23.2079 C   0  0  0  0  0  0  0  0  0  0  0  0
  -10.0790    0.2459   23.4515 C   0  0  0  0  0  0  0  0  0  0  0  0
   -9.5808   -0.8672   22.6161 C   0  0  0  0  0  0  0  0  0  0  0  0
   -8.6418   -0.5710   21.6184 C   0  0  0  0  0  0  0  0  0  0  0  0
   -8.2315    0.7339   21.5110 C   0  0  0  0  0  0  0  0  0  0  0  0
   -8.7254    1.7535   22.3088 C   0  0  0  0  0  0  0  0  0  0  0  0
   -7.9963   -1.7749   20.6359 Cl  0  0  0  0  0  0  0  0  0  0  0  0
  -12.1020    2.8445   22.5643 C   0  0  1  0  0  0  0  0  0  0  0  0
  -13.2427    2.3926   22.6065 C   0  0  0  0  0  0  0  0  0  0  0  0
  -11.5109    3.2048   21.2742 C   0  0  0  0  0  0  0  0  0  0  0  0
  -10.5834    4.2099   21.0729 C   0  0  0  0  0  0  0  0  0  0  0  0
  9 13  1  0
 16 19  1  0
  8 20  1  0
 20 21  1  1
 20 22  1  0
 22 23  2  0
  3  2  1  0
  1  2  2  0
  2 11  1  0
 11 12  2  0
 12  6  1  0
  6  4  2  0
  4  1  1  0
 13 14  2  0
 14 15  1  0
 15 16  2  0
 16 17  1  0
 17 18  2  0
 18 13  1  0
  3  5  2  0
  5  7  1  0
  7  8  2  0
  8  9  1  0
  9 10  2  0
 10  3  1  0
M  END
$$$$
