No_4983-complexes_sdf/6BKW-FPZ/2024-09-17-14-21-01/
     RDKit          3D

 12 13  0  0  0  0  0  0  0  0999 V2000
   -7.9040    3.9820   27.1177 C   0  0  0  0  0  0  0  0  0  0  0  0
   -9.0711    4.3164   27.0630 C   0  0  0  0  0  0  0  0  0  0  0  0
   -9.8698    3.9665   25.9495 C   0  0  0  0  0  0  0  0  0  0  0  0
   -7.4087    3.0336   26.9775 C   0  0  0  0  0  0  0  0  0  0  0  0
   -8.2596    2.0289   26.1563 C   0  0  0  0  0  0  0  0  0  0  0  0
   -9.4312    2.5756   25.7013 C   0  0  0  0  0  0  0  0  0  0  0  0
  -10.2281    1.7736   24.7499 C   0  0  0  0  0  0  0  0  0  0  0  0
  -10.6905    2.1819   23.6958 C   0  0  0  0  0  0  0  0  0  0  0  0
  -10.4580    3.6385   23.2826 C   0  0  0  0  0  0  0  0  0  0  0  0
  -10.2315    4.5048   24.5324 C   0  0  0  0  0  0  0  0  0  0  0  0
   -5.8770    2.1753   27.8315 Br  0  0  0  0  0  0  0  0  0  0  0  0
   -9.6446    5.7799   27.3790 C   0  0  0  0  0  0  0  0  0  0  0  0
  4 11  1  0
  2 12  1  0
  6  7  2  0
  7  8  1  0
  8  9  2  0
  9 10  1  0
 10  3  2  0
  1  2  2  0
  2  3  1  0
  3  6  1  0
  6  5  1  0
  5  4  2  0
  4  1  1  0
M  END
$$$$
