No_4950-complexes_sdf/6BKW-FPZ/2024-09-17-14-21-01/
     RDKit          3D

 23 24  0  0  0  0  0  0  0  0999 V2000
   -7.9040    3.9820   27.1177 C   0  0  0  0  0  0  0  0  0  0  0  0
   -8.2057    2.8231   26.8733 C   0  0  0  0  0  0  0  0  0  0  0  0
   -8.7695    5.0740   26.7916 C   0  0  0  0  0  0  0  0  0  0  0  0
   -9.9618    4.7598   26.1630 C   0  0  0  0  0  0  0  0  0  0  0  0
   -9.4200    2.4524   26.2850 C   0  0  0  0  0  0  0  0  0  0  0  0
  -10.2590    3.4815   25.9250 C   0  0  0  0  0  0  0  0  0  0  0  0
   -8.3837    6.4702   27.0872 C   0  0  0  0  0  0  0  0  0  0  0  0
   -7.4020    6.7193   26.8450 F   0  0  0  0  0  0  0  0  0  0  0  0
   -9.3485    7.2911   26.4201 F   0  0  0  0  0  0  0  0  0  0  0  0
   -7.2649    1.6836   27.2985 C   0  0  0  0  0  0  0  0  0  0  0  0
   -7.5805    0.0918   27.2890 Cl  0  0  0  0  0  0  0  0  0  0  0  0
   -6.0457    2.0651   27.7155 O   0  0  0  0  0  0  0  0  0  0  0  0
   -8.7229    6.6103   28.4448 F   0  0  0  0  0  0  0  0  0  0  0  0
  -11.5044    3.2084   25.1788 C   0  0  0  0  0  0  0  0  0  0  0  0
  -11.6504    3.6976   23.9480 C   0  0  0  0  0  0  0  0  0  0  0  0
  -10.5804    3.9063   23.1114 C   0  0  0  0  0  0  0  0  0  0  0  0
  -10.6653    4.4508   21.8173 C   0  0  0  0  0  0  0  0  0  0  0  0
  -12.8864    3.9261   23.3314 C   0  0  0  0  0  0  0  0  0  0  0  0
  -13.0704    4.4729   22.0588 C   0  0  0  0  0  0  0  0  0  0  0  0
  -11.8696    4.7087   21.2879 C   0  0  0  0  0  0  0  0  0  0  0  0
  -12.5177    2.4564   25.8550 C   0  0  0  0  0  0  0  0  0  0  0  0
  -13.2614    2.7511   26.7554 C   0  0  0  0  0  0  0  0  0  0  0  0
  -14.2204    1.9408   27.4001 C   0  0  0  0  0  0  0  0  0  0  0  0
  3  7  1  0
  7  8  1  0
  7  9  1  0
  2 10  1  0
 10 11  1  0
 10 12  2  0
  7 13  1  0
  6 14  1  0
 14 15  1  0
 14 21  1  0
 21 22  2  3
 22 23  1  0
 15 16  2  0
 16 17  1  0
 17 20  2  0
 20 19  1  0
 19 18  2  0
 18 15  1  0
  1  2  2  0
  2  5  1  0
  5  6  2  0
  6  4  1  0
  4  3  2  0
  3  1  1  0
M  END
$$$$
