No_4982-complexes_sdf/6BKW-FPZ/2024-09-17-14-21-01/
     RDKit          3D

 25 27  0  0  0  0  0  0  0  0999 V2000
   -7.9040    3.9820   27.1177 C   0  0  0  0  0  0  0  0  0  0  0  0
   -7.8663    4.8694   27.9238 C   0  0  0  0  0  0  0  0  0  0  0  0
   -9.0501    3.8017   26.2617 C   0  0  0  0  0  0  0  0  0  0  0  0
  -10.0189    4.7608   26.3707 C   0  0  0  0  0  0  0  0  0  0  0  0
   -8.6770    5.9780   27.9222 C   0  0  0  0  0  0  0  0  0  0  0  0
   -9.8040    5.8752   27.0958 C   0  0  0  0  0  0  0  0  0  0  0  0
   -9.1317    2.6414   25.4147 C   0  0  0  0  0  0  0  0  0  0  0  0
   -8.6458    1.4431   25.8429 C   0  0  0  0  0  0  0  0  0  0  0  0
   -9.8152    2.7444   24.1900 C   0  0  0  0  0  0  0  0  0  0  0  0
   -8.7189    0.3583   25.0028 C   0  0  0  0  0  0  0  0  0  0  0  0
   -9.8603    1.6493   23.3627 C   0  0  0  0  0  0  0  0  0  0  0  0
   -9.2929    0.4527   23.7710 C   0  0  0  0  0  0  0  0  0  0  0  0
   -9.3932   -0.7225   22.8443 C   0  0  0  0  0  0  0  0  0  0  0  0
   -8.2908   -1.3497   22.5396 C   0  0  0  0  0  0  0  0  0  0  0  0
   -7.1281   -1.1403   23.1252 C   0  0  0  0  0  0  0  0  0  0  0  0
   -6.8604   -0.7691   24.4600 C   0  0  0  0  0  0  0  0  0  0  0  0
   -7.5870   -0.6609   25.3614 C   0  0  0  0  0  0  0  0  0  0  0  0
  -10.5605    1.8363   22.1191 C   0  0  2  0  0  0  0  0  0  0  0  0
  -11.6490    1.1298   21.8134 C   0  0  0  0  0  0  0  0  0  0  0  0
  -10.0313    2.7535   21.1676 C   0  0  0  0  0  0  0  0  0  0  0  0
  -12.5058    0.6703   22.5301 C   0  0  0  0  0  0  0  0  0  0  0  0
  -13.6345   -0.1006   22.1543 C   0  0  0  0  0  0  0  0  0  0  0  0
  -13.7308   -0.3819   20.8178 C   0  0  0  0  0  0  0  0  0  0  0  0
  -12.7864    0.0684   19.9113 C   0  0  0  0  0  0  0  0  0  0  0  0
  -11.7494    0.8318   20.3309 C   0  0  0  0  0  0  0  0  0  0  0  0
  3  7  1  0
 12 13  1  0
 13 14  1  0
 14 15  2  0
 15 16  1  0
 10 17  1  0
 16 17  1  0
 11 18  1  0
 18 19  1  0
 18 20  1  6
 19 21  2  3
 21 22  1  0
 22 23  2  3
 23 24  1  0
 24 25  2  0
  1  2  2  0
  2  5  1  0
  5  6  2  0
  6  4  1  0
  4  3  2  0
  3  1  1  0
  7  8  2  0
  8 10  1  0
 10 12  2  0
 12 11  1  0
 11  9  2  0
  9  7  1  0
M  END
$$$$
