No_4313-complexes_sdf/6BKW-FPZ/2024-09-17-14-21-01/
     RDKit          3D

 30 32  0  0  0  0  0  0  0  0999 V2000
   -7.7129    4.2099   27.0854 C   0  0  0  0  0  0  0  0  0  0  0  0
   -8.2112    3.0637   26.9225 C   0  0  0  0  0  0  0  0  0  0  0  0
   -7.5138    1.9223   27.4249 C   0  0  0  0  0  0  0  0  0  0  0  0
   -8.5309    5.4147   26.8151 C   0  0  0  0  0  0  0  0  0  0  0  0
   -9.6817    5.2393   26.1100 C   0  0  0  0  0  0  0  0  0  0  0  0
  -10.1032    3.9957   25.8534 C   0  0  0  0  0  0  0  0  0  0  0  0
   -9.4034    2.8430   26.2573 C   0  0  0  0  0  0  0  0  0  0  0  0
   -6.1481    1.9922   27.8210 C   0  0  0  0  0  0  0  0  0  0  0  0
   -5.4163    0.8353   28.2312 C   0  0  0  0  0  0  0  0  0  0  0  0
   -6.0408   -0.3767   28.1455 C   0  0  0  0  0  0  0  0  0  0  0  0
   -7.9843    0.5770   27.3398 C   0  0  0  0  0  0  0  0  0  0  0  0
   -7.3370   -0.4771   27.7605 C   0  0  0  0  0  0  0  0  0  0  0  0
   -7.9831    6.7640   27.0942 C   0  0  2  0  0  0  0  0  0  0  0  0
   -7.1343    6.8064   28.0333 F   0  0  0  0  0  0  0  0  0  0  0  0
   -8.4010    7.9424   26.5191 C   0  0  0  0  0  0  0  0  0  0  0  0
   -3.7770    1.0830   28.7592 Cl  0  0  0  0  0  0  0  0  0  0  0  0
  -11.3624    3.8428   25.0722 C   0  0  0  0  0  0  0  0  0  0  0  0
  -11.2517    3.3127   23.8331 C   0  0  0  0  0  0  0  0  0  0  0  0
  -12.1462    3.4697   22.9427 C   0  0  0  0  0  0  0  0  0  0  0  0
  -13.3961    4.1430   23.3039 C   0  0  0  0  0  0  0  0  0  0  0  0
  -13.5366    4.6408   24.6142 C   0  0  0  0  0  0  0  0  0  0  0  0
  -12.4870    4.6078   25.4811 C   0  0  0  0  0  0  0  0  0  0  0  0
   -5.2707   -1.5696   28.6844 C   0  0  0  0  0  0  0  0  0  0  0  0
   -4.4012   -1.9942   28.4317 C   0  0  0  0  0  0  0  0  0  0  0  0
   -3.6053   -1.5680   27.2773 C   0  0  0  0  0  0  0  0  0  0  0  0
   -2.2867   -1.9179   27.1799 C   0  0  0  0  0  0  0  0  0  0  0  0
   -1.4880   -1.3911   26.1128 C   0  0  0  0  0  0  0  0  0  0  0  0
   -0.5699   -2.0545   25.6862 C   0  0  0  0  0  0  0  0  0  0  0  0
    0.0392   -3.2175   26.2938 C   0  0  0  0  0  0  0  0  0  0  0  0
   -0.7056   -3.7141   27.3587 C   0  0  0  0  0  0  0  0  0  0  0  0
  2  3  1  0
  4 13  1  0
 13 14  1  0
 13 15  1  1
  9 16  1  0
  6 17  1  0
 10 23  1  0
 23 24  1  0
 24 25  1  0
 25 26  2  3
 26 27  1  0
 27 28  2  3
 28 29  1  0
 29 30  2  0
 17 18  2  0
 18 19  1  0
 19 20  2  0
 20 21  1  0
 21 22  2  0
 22 17  1  0
  3  8  2  0
  8  9  1  0
  9 10  2  0
 10 12  1  0
 12 11  2  0
 11  3  1  0
  1  2  2  0
  2  7  1  0
  7  6  2  0
  6  5  1  0
  5  4  2  0
  4  1  1  0
M  END
$$$$
