No_491-complexes_sdf/6BKW-FPZ/2024-09-17-14-21-01/
     RDKit          3D

 11 11  0  0  0  0  0  0  0  0999 V2000
   -7.2496    3.8871   27.4508 C   0  0  0  0  0  0  0  0  0  0  0  0
   -7.6161    2.7143   27.1523 C   0  0  0  0  0  0  0  0  0  0  0  0
   -7.1618    1.8631   27.5232 C   0  0  0  0  0  0  0  0  0  0  0  0
   -8.0036    5.1085   27.2100 C   0  0  0  0  0  0  0  0  0  0  0  0
   -9.0765    5.1561   26.4023 C   0  0  0  0  0  0  0  0  0  0  0  0
   -9.5423    3.9741   25.8512 C   0  0  0  0  0  0  0  0  0  0  0  0
   -8.8464    2.7352   26.2620 C   0  0  0  0  0  0  0  0  0  0  0  0
   -7.5745    0.4314   27.2995 C   0  0  0  0  0  0  0  0  0  0  0  0
   -6.8079   -0.6627   27.7034 C   0  0  0  0  0  0  0  0  0  0  0  0
   -5.5769   -0.3932   28.3023 C   0  0  0  0  0  0  0  0  0  0  0  0
   -5.0305    0.8695   28.4220 C   0  0  0  0  0  0  0  0  0  0  0  0
  3  8  1  0
  8  9  2  3
  9 10  1  0
 10 11  2  0
  3  2  1  0
  1  2  2  0
  2  7  1  0
  7  6  2  0
  6  5  1  0
  5  4  2  0
  4  1  1  0
M  END
$$$$
