No_424-complexes_sdf/6BKW-FPZ/2024-09-17-14-21-01/
     RDKit          3D

  9  9  0  0  0  0  0  0  0  0999 V2000
   -7.2496    3.8871   27.4508 C   0  0  0  0  0  0  0  0  0  0  0  0
   -8.5096    4.0291   27.2770 C   0  0  0  0  0  0  0  0  0  0  0  0
   -9.2677    5.1714   27.5773 C   0  0  0  0  0  0  0  0  0  0  0  0
   -9.3517    2.7730   27.3663 C   0  0  0  0  0  0  0  0  0  0  0  0
   -8.7152    1.6342   27.3101 C   0  0  0  0  0  0  0  0  0  0  0  0
   -6.5289    2.6644   27.4772 C   0  0  0  0  0  0  0  0  0  0  0  0
   -7.2583    1.5486   27.3729 C   0  0  0  0  0  0  0  0  0  0  0  0
  -10.6224    5.4013   27.3964 C   0  0  0  0  0  0  0  0  0  0  0  0
  -11.4340    4.2122   27.2810 C   0  0  0  0  0  0  0  0  0  0  0  0
  2  3  1  0
  3  8  2  3
  8  9  1  0
  1  2  2  0
  2  4  1  0
  4  5  2  0
  5  7  1  0
  7  6  2  0
  6  1  1  0
M  END
$$$$
