No_4355-complexes_sdf/6BKW-FPZ/2024-09-17-14-21-01/
     RDKit          3D

 22 24  0  0  0  0  0  0  0  0999 V2000
   -7.7129    4.2099   27.0854 C   0  0  0  0  0  0  0  0  0  0  0  0
   -8.2112    3.0637   26.9225 C   0  0  0  0  0  0  0  0  0  0  0  0
   -8.5108    5.3904   26.9436 C   0  0  0  0  0  0  0  0  0  0  0  0
   -9.7256    5.1955   26.3518 C   0  0  0  0  0  0  0  0  0  0  0  0
   -7.4704    1.8386   27.3272 C   0  0  0  0  0  0  0  0  0  0  0  0
   -9.4948    2.8714   26.4765 C   0  0  0  0  0  0  0  0  0  0  0  0
  -10.2383    3.9753   26.1836 C   0  0  0  0  0  0  0  0  0  0  0  0
   -6.0792    1.9843   27.7087 C   0  0  0  0  0  0  0  0  0  0  0  0
   -5.3384    0.8280   28.1105 C   0  0  0  0  0  0  0  0  0  0  0  0
   -5.9431   -0.3975   28.0389 C   0  0  0  0  0  0  0  0  0  0  0  0
   -8.0494    0.5654   27.3752 C   0  0  0  0  0  0  0  0  0  0  0  0
   -7.2968   -0.5134   27.7566 C   0  0  0  0  0  0  0  0  0  0  0  0
   -7.9296    6.7423   27.1650 C   0  0  0  0  0  0  0  0  0  0  0  0
   -6.8774    6.8109   27.8107 O   0  0  0  0  0  0  0  0  0  0  0  0
   -8.4820    7.8567   26.6582 N   0  0  0  0  0  0  0  0  0  0  0  0
   -3.7086    1.0600   28.5288 Cl  0  0  0  0  0  0  0  0  0  0  0  0
  -11.5375    3.7971   25.5360 C   0  0  0  0  0  0  0  0  0  0  0  0
  -12.6704    3.5266   26.3012 C   0  0  0  0  0  0  0  0  0  0  0  0
  -13.9127    3.5715   25.8141 C   0  0  0  0  0  0  0  0  0  0  0  0
  -11.6745    3.8607   24.1361 C   0  0  0  0  0  0  0  0  0  0  0  0
  -12.9238    3.9006   23.5380 C   0  0  0  0  0  0  0  0  0  0  0  0
  -14.0390    3.7664   24.3720 C   0  0  0  0  0  0  0  0  0  0  0  0
  2  5  1  0
  3 13  1  0
 13 14  2  0
 13 15  1  0
  9 16  1  0
  7 17  1  0
 17 18  2  0
 18 19  1  0
 19 22  2  0
 22 21  1  0
 21 20  2  0
 20 17  1  0
  1  2  2  0
  2  6  1  0
  6  7  2  0
  7  4  1  0
  4  3  2  0
  3  1  1  0
  5  8  2  0
  8  9  1  0
  9 10  2  0
 10 12  1  0
 12 11  2  0
 11  5  1  0
M  END
$$$$
