No_4539-complexes_sdf/6BKW-FPZ/2024-09-17-14-21-01/
     RDKit          3D

 19 20  0  0  0  0  0  0  0  0999 V2000
   -7.9040    3.9820   27.1177 C   0  0  0  0  0  0  0  0  0  0  0  0
   -7.8663    4.8694   27.9238 C   0  0  0  0  0  0  0  0  0  0  0  0
   -9.0491    3.8523   26.2542 C   0  0  0  0  0  0  0  0  0  0  0  0
   -8.7661    5.9491   27.9690 C   0  0  0  0  0  0  0  0  0  0  0  0
   -9.9295    4.8502   26.2323 C   0  0  0  0  0  0  0  0  0  0  0  0
   -9.8077    5.9288   27.0933 C   0  0  0  0  0  0  0  0  0  0  0  0
   -6.9606    2.7994   27.1981 C   0  0  1  0  0  0  0  0  0  0  0  0
   -5.8717    2.9147   27.8925 N   0  0  0  0  0  0  0  0  0  0  0  0
   -7.2918    1.6820   26.7158 F   0  0  0  0  0  0  0  0  0  0  0  0
   -4.9685    1.8656   28.0528 C   0  0  0  0  0  0  0  0  0  0  0  0
   -4.8333    1.1450   29.2392 C   0  0  0  0  0  0  0  0  0  0  0  0
   -4.2830   -0.0522   29.1661 C   0  0  0  0  0  0  0  0  0  0  0  0
   -3.6599   -0.5541   27.9916 C   0  0  0  0  0  0  0  0  0  0  0  0
   -3.7732    0.1808   26.8240 C   0  0  0  0  0  0  0  0  0  0  0  0
   -4.4527    1.3247   26.8493 C   0  0  0  0  0  0  0  0  0  0  0  0
   -3.9839   -0.8065   30.4617 C   0  0  1  0  0  0  0  0  0  0  0  0
   -4.7923   -1.5259   31.0781 Cl  0  0  0  0  0  0  0  0  0  0  0  0
   -2.6904   -0.6707   30.8579 F   0  0  0  0  0  0  0  0  0  0  0  0
  -11.1847    4.7627   25.0715 Cl  0  0  0  0  0  0  0  0  0  0  0  0
  1  7  1  0
  7  8  1  0
  7  9  1  1
  8 10  1  0
 12 16  1  0
 16 17  1  0
 16 18  1  6
  5 19  1  0
  1  2  2  0
  2  4  1  0
  4  6  2  0
  6  5  1  0
  5  3  2  0
  3  1  1  0
 10 11  2  0
 11 12  1  0
 12 13  2  0
 13 14  1  0
 14 15  2  0
 15 10  1  0
M  END
$$$$
