No_4458-complexes_sdf/6BKW-FPZ/2024-09-17-14-21-01/
     RDKit          3D

 40 44  0  0  0  0  0  0  0  0999 V2000
   -7.9040    3.9820   27.1177 C   0  0  0  0  0  0  0  0  0  0  0  0
   -8.2057    2.8231   26.8733 C   0  0  0  0  0  0  0  0  0  0  0  0
   -8.7695    5.0740   26.7916 C   0  0  1  0  0  0  0  0  0  0  0  0
   -8.4337    6.4678   27.0913 C   0  0  0  0  0  0  0  0  0  0  0  0
   -7.3775    1.6806   27.3986 C   0  0  0  0  0  0  0  0  0  0  0  0
   -6.0814    2.1205   27.8112 C   0  0  0  0  0  0  0  0  0  0  0  0
   -5.7220    3.4538   27.9612 C   0  0  0  0  0  0  0  0  0  0  0  0
   -6.5839    4.3786   27.6583 C   0  0  0  0  0  0  0  0  0  0  0  0
   -9.8602    4.8270   25.9201 C   0  0  0  0  0  0  0  0  0  0  0  0
   -5.1528    1.0088   28.2419 C   0  0  0  0  0  0  0  0  0  0  0  0
   -5.4729   -0.2731   28.3608 C   0  0  0  0  0  0  0  0  0  0  0  0
   -4.5630   -1.2229   28.9228 C   0  0  0  0  0  0  0  0  0  0  0  0
   -3.2819   -0.7743   29.2919 C   0  0  0  0  0  0  0  0  0  0  0  0
   -2.9442    0.5527   29.1222 C   0  0  0  0  0  0  0  0  0  0  0  0
   -3.7960    1.4272   28.6757 C   0  0  0  0  0  0  0  0  0  0  0  0
   -8.1528    7.6213   27.1086 N   0  0  0  0  0  0  0  0  0  0  0  0
   -9.7471    4.3598   24.6554 C   0  0  0  0  0  0  0  0  0  0  0  0
  -10.8304    4.1797   23.7894 C   0  0  0  0  0  0  0  0  0  0  0  0
  -12.0654    3.9335   24.2747 C   0  0  0  0  0  0  0  0  0  0  0  0
  -12.2417    4.2301   25.7042 C   0  0  0  0  0  0  0  0  0  0  0  0
  -11.1820    4.6906   26.5385 C   0  0  0  0  0  0  0  0  0  0  0  0
   -2.3390   -1.8006   29.8613 C   0  0  0  0  0  0  0  0  0  0  0  0
   -1.2977   -2.0410   29.3097 O   0  0  0  0  0  0  0  0  0  0  0  0
   -2.6995   -2.3315   30.9913 O   0  0  0  0  0  0  0  0  0  0  0  0
  -10.4838    3.8351   22.1444 Cl  0  0  0  0  0  0  0  0  0  0  0  0
  -13.6258    4.2184   26.2221 C   0  0  0  0  0  0  0  0  0  0  0  0
  -13.8051    4.1084   27.6413 C   0  0  0  0  0  0  0  0  0  0  0  0
  -14.1455    2.8913   28.1252 C   0  0  0  0  0  0  0  0  0  0  0  0
  -14.1851    2.7434   29.5941 C   0  0  0  0  0  0  0  0  0  0  0  0
  -13.9430    3.8312   30.4237 C   0  0  0  0  0  0  0  0  0  0  0  0
  -13.9501    3.5994   31.8624 C   0  0  0  0  0  0  0  0  0  0  0  0
  -14.1253    2.3468   32.3782 C   0  0  0  0  0  0  0  0  0  0  0  0
  -14.3627    1.2932   31.5442 C   0  0  0  0  0  0  0  0  0  0  0  0
  -14.3400    1.4732   30.1790 C   0  0  0  0  0  0  0  0  0  0  0  0
  -13.3651    1.9783   27.3672 C   0  0  0  0  0  0  0  0  0  0  0  0
  -13.6674    1.0964   26.6199 C   0  0  0  0  0  0  0  0  0  0  0  0
  -12.8045    0.1635   26.0000 C   0  0  0  0  0  0  0  0  0  0  0  0
  -11.4596    0.2478   26.3825 C   0  0  0  0  0  0  0  0  0  0  0  0
  -11.0407    1.0889   27.3611 C   0  0  0  0  0  0  0  0  0  0  0  0
  -11.9011    1.9636   27.9300 C   0  0  0  0  0  0  0  0  0  0  0  0
  3  4  1  6
  3  9  1  0
  6 10  1  0
  4 16  3  0
 13 22  1  0
 22 23  2  0
 22 24  1  0
 18 25  1  0
 20 26  1  0
 26 27  1  0
 27 28  2  3
 28 29  1  0
 28 35  1  0
  3  1  1  0
 35 36  2  0
 36 37  1  0
 37 38  2  0
 38 39  1  0
 39 40  2  0
 40 35  1  0
  1  2  2  0
  2  5  1  0
  5  6  2  0
  6  7  1  0
  7  8  2  0
  8  1  1  0
 10 11  2  0
 11 12  1  0
 12 13  2  0
 13 14  1  0
 14 15  2  0
 15 10  1  0
 29 30  2  0
 30 31  1  0
 31 32  2  0
 32 33  1  0
 33 34  2  0
 34 29  1  0
  9 17  2  0
 17 18  1  0
 18 19  2  0
 19 20  1  0
 20 21  2  0
 21  9  1  0
M  END
$$$$
