No_4372-complexes_sdf/6BKW-FPZ/2024-09-17-14-21-01/
     RDKit          3D

 17 19  0  0  0  0  0  0  0  0999 V2000
   -7.2496    3.8871   27.4508 C   0  0  0  0  0  0  0  0  0  0  0  0
   -8.5096    4.0291   27.2770 C   0  0  0  0  0  0  0  0  0  0  0  0
   -9.3451    2.8786   26.9046 C   0  0  0  0  0  0  0  0  0  0  0  0
  -10.6709    3.0505   26.6789 C   0  0  0  0  0  0  0  0  0  0  0  0
   -6.3737    5.2636   27.9924 Cl  0  0  0  0  0  0  0  0  0  0  0  0
   -9.1797    5.2707   27.0619 C   0  0  0  0  0  0  0  0  0  0  0  0
  -10.5177    5.4057   26.7454 C   0  0  0  0  0  0  0  0  0  0  0  0
  -11.2839    4.2893   26.6163 C   0  0  0  0  0  0  0  0  0  0  0  0
   -6.5564    2.6100   27.5433 C   0  0  0  0  0  0  0  0  0  0  0  0
   -7.2387    1.5226   27.1634 N   0  0  0  0  0  0  0  0  0  0  0  0
   -8.5989    1.6118   26.9182 C   0  0  0  0  0  0  0  0  0  0  0  0
   -9.2520    0.3739   26.5786 C   0  0  0  0  0  0  0  0  0  0  0  0
   -8.7399   -0.6390   26.5879 C   0  0  0  0  0  0  0  0  0  0  0  0
   -9.4152   -1.9261   26.2619 C   0  0  0  0  0  0  0  0  0  0  0  0
  -10.7514   -1.7862   25.9135 C   0  0  0  0  0  0  0  0  0  0  0  0
  -11.3583   -0.5814   25.9015 C   0  0  0  0  0  0  0  0  0  0  0  0
  -10.6635    0.5324   26.2611 C   0  0  0  0  0  0  0  0  0  0  0  0
  1  5  1  0
 11 12  1  0
 12 13  2  0
 13 14  1  0
 14 15  2  0
 15 16  1  0
 16 17  2  0
 17 12  1  0
  3  4  1  0
  4  8  2  0
  8  7  1  0
  7  6  2  0
  6  2  1  0
  1  2  2  0
  2  3  1  0
  3 11  2  0
 11 10  1  0
 10  9  2  0
  9  1  1  0
M  END
$$$$
