No_4912-complexes_sdf/6BKW-FPZ/2024-09-17-14-21-01/
     RDKit          3D

 15 15  0  0  0  0  0  0  0  0999 V2000
   -7.9040    3.9820   27.1177 C   0  0  0  0  0  0  0  0  0  0  0  0
   -8.2057    2.8231   26.8733 C   0  0  0  0  0  0  0  0  0  0  0  0
   -8.7695    5.0740   26.7916 C   0  0  0  0  0  0  0  0  0  0  0  0
   -8.4337    6.4678   27.0913 C   0  0  0  0  0  0  0  0  0  0  0  0
   -9.3742    2.4311   26.2346 C   0  0  0  0  0  0  0  0  0  0  0  0
  -10.2395    3.4267   25.8887 C   0  0  0  0  0  0  0  0  0  0  0  0
   -9.9567    4.7548   26.1374 C   0  0  0  0  0  0  0  0  0  0  0  0
   -8.0669    6.7878   28.2007 O   0  0  0  0  0  0  0  0  0  0  0  0
   -8.6906    7.3529   26.1598 O   0  0  0  0  0  0  0  0  0  0  0  0
   -7.2469    1.6821   27.2889 C   0  0  1  0  0  0  0  0  0  0  0  0
   -5.9931    2.0099   27.8547 C   0  0  0  0  0  0  0  0  0  0  0  0
   -5.1122    0.9460   28.2107 C   0  0  0  0  0  0  0  0  0  0  0  0
   -5.5201   -0.3338   28.1122 C   0  0  0  0  0  0  0  0  0  0  0  0
   -7.5498    0.3292   27.2493 C   0  0  0  0  0  0  0  0  0  0  0  0
   -8.8935    0.0390   26.7958 C   0  0  0  0  0  0  0  0  0  0  0  0
  3  4  1  0
  4  8  2  0
  4  9  1  0
  2 10  1  0
 10 11  1  0
 11 12  2  3
 12 13  1  0
 10 14  1  1
 14 15  2  0
  1  2  2  0
  2  5  1  0
  5  6  2  0
  6  7  1  0
  7  3  2  0
  3  1  1  0
M  END
$$$$
