No_4920-complexes_sdf/6BKW-FPZ/2024-09-17-14-21-01/
     RDKit          3D

 22 24  0  0  0  0  0  0  0  0999 V2000
   -7.7129    4.2099   27.0854 C   0  0  0  0  0  0  0  0  0  0  0  0
   -7.7814    5.1722   27.8972 C   0  0  0  0  0  0  0  0  0  0  0  0
   -7.3155    2.9699   27.6145 C   0  0  0  0  0  0  0  0  0  0  0  0
   -6.0554    2.7539   27.5147 C   0  0  0  0  0  0  0  0  0  0  0  0
   -5.4642    1.4850   27.9980 C   0  0  0  0  0  0  0  0  0  0  0  0
   -8.2273    6.5427   27.4044 C   0  0  0  0  0  0  0  0  0  0  0  0
   -6.2219    0.3468   28.0080 C   0  0  0  0  0  0  0  0  0  0  0  0
   -9.0185    6.6234   26.4219 C   0  0  0  0  0  0  0  0  0  0  0  0
   -8.6384    4.2694   25.9616 C   0  0  0  0  0  0  0  0  0  0  0  0
   -9.2607    5.4661   25.6449 C   0  0  0  0  0  0  0  0  0  0  0  0
   -8.1176    1.7864   27.4737 C   0  0  0  0  0  0  0  0  0  0  0  0
   -5.7024   -0.9010   28.1980 C   0  0  0  0  0  0  0  0  0  0  0  0
   -7.5816    0.5272   27.7226 C   0  0  0  0  0  0  0  0  0  0  0  0
   -4.4940   -1.0356   28.6722 N   0  0  0  0  0  0  0  0  0  0  0  0
   -6.3870   -1.9422   28.0716 O   0  0  0  0  0  0  0  0  0  0  0  0
   -3.8371   -1.7323   29.1201 C   0  0  0  0  0  0  0  0  0  0  0  0
   -2.4205   -1.5352   29.2542 C   0  0  0  0  0  0  0  0  0  0  0  0
   -2.0110   -0.2805   28.7199 C   0  0  0  0  0  0  0  0  0  0  0  0
   -2.6952    0.6388   28.1316 C   0  0  0  0  0  0  0  0  0  0  0  0
   -3.9147    0.3050   28.0664 C   0  0  1  0  0  0  0  0  0  0  0  0
   -5.2228    1.9884   29.0205 O   0  0  0  0  0  0  0  0  0  0  0  0
   -3.8936    0.0614   26.3849 C   0  0  0  0  0  0  0  0  0  0  0  0
  1  3  1  0
  7 12  1  0
 12 14  1  0
 12 15  2  0
 14 16  1  0
 17 18  1  0
 14 20  1  0
 19 20  1  0
  5 21  1  0
 20 22  1  6
 16 17  1  0
 18 19  1  0
  3  4  2  0
  4  5  1  0
  5  7  2  0
  7 13  1  0
 13 11  2  0
 11  3  1  0
  1  2  2  0
  2  6  1  0
  6  8  2  0
  8 10  1  0
 10  9  2  0
  9  1  1  0
M  END
$$$$
