No_476-complexes_sdf/6BKW-FPZ/2024-09-17-14-21-01/
     RDKit          3D

 14 15  0  0  0  0  0  0  0  0999 V2000
   -7.9040    3.9820   27.1177 C   0  0  0  0  0  0  0  0  0  0  0  0
   -7.8663    4.8694   27.9238 C   0  0  0  0  0  0  0  0  0  0  0  0
   -9.0491    3.8523   26.2542 C   0  0  0  0  0  0  0  0  0  0  0  0
   -8.7661    5.9491   27.9690 C   0  0  0  0  0  0  0  0  0  0  0  0
   -9.9295    4.8502   26.2323 C   0  0  0  0  0  0  0  0  0  0  0  0
   -9.8077    5.9288   27.0933 C   0  0  0  0  0  0  0  0  0  0  0  0
   -6.7232    2.6940   27.3813 Cl  0  0  0  0  0  0  0  0  0  0  0  0
   -8.9106    2.6001   25.3520 C   0  0  0  0  0  0  0  0  0  0  0  0
   -9.8215    2.6664   24.3261 N   0  0  0  0  0  0  0  0  0  0  0  0
  -10.5093    3.6482   23.8991 C   0  0  0  0  0  0  0  0  0  0  0  0
  -10.8106    4.7667   24.9028 C   0  0  0  0  0  0  0  0  0  0  0  0
   -9.7485    1.4709   23.4560 C   0  0  0  0  0  0  0  0  0  0  0  0
   -9.0358    0.5839   23.6691 O   0  0  0  0  0  0  0  0  0  0  0  0
  -10.1101    1.7426   22.1411 F   0  0  0  0  0  0  0  0  0  0  0  0
  1  7  1  0
  3  8  1  0
  8  9  1  0
  9 10  1  0
  5 11  1  0
  9 12  1  0
 12 13  2  0
 12 14  1  0
 11 10  1  0
  1  2  2  0
  2  4  1  0
  4  6  2  0
  6  5  1  0
  5  3  2  0
  3  1  1  0
M  END
$$$$
