No_4598-complexes_sdf/6BKW-FPZ/2024-09-17-14-21-01/
     RDKit          3D

 20 22  0  0  0  0  0  0  0  0999 V2000
   -7.7129    4.2099   27.0854 C   0  0  0  0  0  0  0  0  0  0  0  0
   -8.2112    3.0637   26.9225 C   0  0  0  0  0  0  0  0  0  0  0  0
   -8.5108    5.3904   26.9436 C   0  0  0  0  0  0  0  0  0  0  0  0
   -9.7256    5.1955   26.3518 C   0  0  0  0  0  0  0  0  0  0  0  0
   -9.4995    2.8258   26.4878 C   0  0  0  0  0  0  0  0  0  0  0  0
  -10.2542    3.9691   26.2055 C   0  0  0  0  0  0  0  0  0  0  0  0
   -7.9168    6.7086   27.1908 C   0  0  0  0  0  0  0  0  0  0  0  0
   -7.6334    1.7779   27.1985 N   0  0  0  0  0  0  0  0  0  0  0  0
   -6.2914    1.7220   27.6293 C   0  0  0  0  0  0  0  0  0  0  0  0
   -5.6963    0.4282   27.7750 C   0  0  0  0  0  0  0  0  0  0  0  0
   -6.5098   -0.6209   27.6027 C   0  0  0  0  0  0  0  0  0  0  0  0
   -7.9827    0.4531   27.0816 C   0  0  0  0  0  0  0  0  0  0  0  0
   -4.3016    0.2916   28.2577 C   0  0  0  0  0  0  0  0  0  0  0  0
   -3.6655   -0.7072   28.6083 C   0  0  0  0  0  0  0  0  0  0  0  0
   -2.3241   -0.7076   29.0285 C   0  0  0  0  0  0  0  0  0  0  0  0
   -8.5891    7.8244   26.8285 N   0  0  0  0  0  0  0  0  0  0  0  0
   -1.7487   -1.8497   29.5419 C   0  0  0  0  0  0  0  0  0  0  0  0
   -2.4707   -3.0152   29.5139 C   0  0  0  0  0  0  0  0  0  0  0  0
   -3.7352   -3.0391   29.0961 C   0  0  0  0  0  0  0  0  0  0  0  0
   -4.3894   -1.9389   28.7127 C   0  0  0  0  0  0  0  0  0  0  0  0
  3  7  1  0
  2  8  1  0
  8  9  1  0
  9 10  2  0
 10 11  1  0
  8 12  1  0
 11 12  2  0
 10 13  1  0
  7 16  1  0
 13 14  1  0
 14 15  2  0
 15 17  1  0
 17 18  2  0
 18 19  1  0
 19 20  2  0
 20 14  1  0
  1  2  2  0
  2  5  1  0
  5  6  2  0
  6  4  1  0
  4  3  2  0
  3  1  1  0
M  END
$$$$
