No_4475-complexes_sdf/6BKW-FPZ/2024-09-17-14-21-01/
     RDKit          3D

 17 19  0  0  0  0  0  0  0  0999 V2000
   -7.9040    3.9820   27.1177 C   0  0  0  0  0  0  0  0  0  0  0  0
   -9.0711    4.3164   27.0630 C   0  0  2  0  0  0  0  0  0  0  0  0
   -9.8698    3.9665   25.9494 C   0  0  0  0  0  0  0  0  0  0  0  0
   -7.0332    4.5030   28.2025 C   0  0  0  0  0  0  0  0  0  0  0  0
   -9.4357    2.9501   25.1393 C   0  0  0  0  0  0  0  0  0  0  0  0
  -10.2810    2.6266   24.0411 C   0  0  0  0  0  0  0  0  0  0  0  0
   -7.8050    5.3994   28.8043 N   0  0  0  0  0  0  0  0  0  0  0  0
   -9.0545    5.3824   28.0933 C   0  0  0  0  0  0  0  0  0  0  0  0
  -11.3671    3.4372   23.7105 C   0  0  0  0  0  0  0  0  0  0  0  0
  -11.7640    4.4680   24.5678 C   0  0  0  0  0  0  0  0  0  0  0  0
  -10.9269    4.7903   25.6605 C   0  0  0  0  0  0  0  0  0  0  0  0
   -9.9350    1.4915   23.1587 C   0  0  0  0  0  0  0  0  0  0  0  0
   -9.0033    0.6353   23.4919 C   0  0  0  0  0  0  0  0  0  0  0  0
   -8.4516   -0.2852   22.5290 C   0  0  0  0  0  0  0  0  0  0  0  0
   -9.1108   -0.4216   21.3214 C   0  0  0  0  0  0  0  0  0  0  0  0
  -10.1522    0.4459   21.0097 C   0  0  0  0  0  0  0  0  0  0  0  0
  -10.4837    1.4708   21.8972 C   0  0  0  0  0  0  0  0  0  0  0  0
  1  2  1  0
  1  4  1  0
  4  7  1  0
  2  8  1  0
  7  8  1  0
  6 12  1  0
  2  3  1  6
 12 13  2  0
 13 14  1  0
 14 15  2  0
 15 16  1  0
 16 17  2  0
 17 12  1  0
  3  5  2  0
  5  6  1  0
  6  9  2  0
  9 10  1  0
 10 11  2  0
 11  3  1  0
M  END
$$$$
