No_4213-complexes_sdf/6BKW-FPZ/2024-09-17-14-21-01/
     RDKit          3D

 24 27  0  0  0  0  0  0  0  0999 V2000
   -7.9040    3.9820   27.1177 C   0  0  0  0  0  0  0  0  0  0  0  0
   -9.0711    4.3164   27.0630 C   0  0  0  0  0  0  0  0  0  0  0  0
   -9.5294    5.4517   27.7215 C   0  0  0  0  0  0  0  0  0  0  0  0
   -6.9328    4.7309   27.8881 C   0  0  0  0  0  0  0  0  0  0  0  0
   -7.3666    5.8455   28.5488 C   0  0  0  0  0  0  0  0  0  0  0  0
   -8.6669    6.2428   28.4199 C   0  0  0  0  0  0  0  0  0  0  0  0
   -9.9775    3.4523   26.2361 C   0  0  0  0  0  0  0  0  0  0  0  0
   -9.5983    2.4894   25.6201 N   0  0  0  0  0  0  0  0  0  0  0  0
  -10.1234    1.8954   24.5436 C   0  0  0  0  0  0  0  0  0  0  0  0
  -10.8045    2.6965   23.6630 C   0  0  0  0  0  0  0  0  0  0  0  0
  -11.3401    3.9548   24.2190 C   0  0  0  0  0  0  0  0  0  0  0  0
  -10.8801    4.3943   25.4120 C   0  0  0  0  0  0  0  0  0  0  0  0
   -9.6189    0.7115   24.0646 N   0  0  0  0  0  0  0  0  0  0  0  0
   -9.6743    0.2769   22.8436 C   0  0  0  0  0  0  0  0  0  0  0  0
  -10.5624    1.0242   21.9374 C   0  0  0  0  0  0  0  0  0  0  0  0
  -11.1126    2.2475   22.3569 C   0  0  0  0  0  0  0  0  0  0  0  0
  -11.8789    3.0044   21.3791 C   0  0  0  0  0  0  0  0  0  0  0  0
   -9.1504   -1.0252   22.4669 C   0  0  0  0  0  0  0  0  0  0  0  0
   -7.9051   -1.2614   22.8850 C   0  0  0  0  0  0  0  0  0  0  0  0
   -7.6797   -1.9054   24.0087 C   0  0  0  0  0  0  0  0  0  0  0  0
   -7.0005   -1.7781   24.8152 C   0  0  0  0  0  0  0  0  0  0  0  0
   -5.6862   -1.0034   24.5787 C   0  0  0  0  0  0  0  0  0  0  0  0
   -5.7405   -0.3699   23.3268 C   0  0  0  0  0  0  0  0  0  0  0  0
   -6.8357   -0.3883   22.5476 C   0  0  0  0  0  0  0  0  0  0  0  0
  2  7  1  0
 16 17  1  0
 14 18  1  0
 18 19  1  0
 10 16  2  0
 16 15  1  0
 15 14  2  0
 14 13  1  0
 13  9  2  0
  1  2  2  0
  2  3  1  0
  3  6  2  0
  6  5  1  0
  5  4  2  0
  4  1  1  0
 19 20  2  0
 20 21  1  0
 21 22  2  0
 22 23  1  0
 23 24  2  0
 24 19  1  0
  7  8  2  0
  8  9  1  0
  9 10  1  0
 10 11  1  0
 11 12  2  0
 12  7  1  0
M  END
$$$$
