No_4640-complexes_sdf/6BKW-FPZ/2024-09-17-14-21-01/
     RDKit          3D

 10 10  0  0  0  0  0  0  0  0999 V2000
   -7.2496    3.8871   27.4508 C   0  0  0  0  0  0  0  0  0  0  0  0
   -8.5096    4.0291   27.2770 C   0  0  0  0  0  0  0  0  0  0  0  0
   -9.2677    5.1714   27.5773 C   0  0  0  0  0  0  0  0  0  0  0  0
   -9.2765    2.8248   26.8371 C   0  0  0  0  0  0  0  0  0  0  0  0
  -10.4623    3.0171   26.3236 C   0  0  0  0  0  0  0  0  0  0  0  0
   -8.5069    6.3624   27.9334 C   0  0  0  0  0  0  0  0  0  0  0  0
  -11.1962    4.2133   26.6416 C   0  0  0  0  0  0  0  0  0  0  0  0
  -10.6755    5.2794   27.2598 C   0  0  0  0  0  0  0  0  0  0  0  0
   -6.6857    3.5284   28.5850 C   0  0  0  0  0  0  0  0  0  0  0  0
   -5.2908    2.9452   28.3921 C   0  0  0  0  0  0  0  0  0  0  0  0
  1  2  1  0
  3  6  1  0
  1  9  2  3
  9 10  1  0
  2  3  2  0
  3  8  1  0
  8  7  2  0
  7  5  1  0
  5  4  2  0
  4  2  1  0
M  END
$$$$
