No_4843-complexes_sdf/6BKW-FPZ/2024-09-17-14-21-01/
     RDKit          3D

 21 24  0  0  0  0  0  0  0  0999 V2000
   -7.9040    3.9820   27.1177 C   0  0  0  0  0  0  0  0  0  0  0  0
   -7.8663    4.8694   27.9238 C   0  0  0  0  0  0  0  0  0  0  0  0
   -9.0491    3.8523   26.2542 C   0  0  0  0  0  0  0  0  0  0  0  0
   -8.7661    5.9491   27.9690 C   0  0  0  0  0  0  0  0  0  0  0  0
   -9.9295    4.8502   26.2323 C   0  0  0  0  0  0  0  0  0  0  0  0
   -9.8077    5.9288   27.0933 C   0  0  0  0  0  0  0  0  0  0  0  0
   -7.0120    2.8934   27.1747 N   0  0  0  0  0  0  0  0  0  0  0  0
   -7.2911    1.5905   26.8161 C   0  0  0  0  0  0  0  0  0  0  0  0
   -6.3069    0.6383   27.1886 C   0  0  0  0  0  0  0  0  0  0  0  0
   -6.4807   -0.7081   27.0199 C   0  0  0  0  0  0  0  0  0  0  0  0
   -7.7240   -1.0827   26.4388 C   0  0  0  0  0  0  0  0  0  0  0  0
   -8.7130   -0.1865   26.1634 C   0  0  0  0  0  0  0  0  0  0  0  0
   -8.4880    1.1779   26.4202 C   0  0  0  0  0  0  0  0  0  0  0  0
   -9.3107    2.4995   25.6533 C   0  0  1  0  0  0  0  0  0  0  0  0
   -8.6589    3.9198   25.0443 O   0  0  0  0  0  0  0  0  0  0  0  0
  -10.5526    2.0672   25.0092 C   0  0  0  0  0  0  0  0  0  0  0  0
  -10.2739    1.5462   23.8009 C   0  0  0  0  0  0  0  0  0  0  0  0
  -11.2885    1.0379   23.0797 C   0  0  0  0  0  0  0  0  0  0  0  0
  -11.7141    2.1946   25.5361 C   0  0  0  0  0  0  0  0  0  0  0  0
  -12.8205    1.6979   24.9049 C   0  0  0  0  0  0  0  0  0  0  0  0
  -12.5870    1.1432   23.6246 C   0  0  0  0  0  0  0  0  0  0  0  0
  1  7  1  0
  7  8  1  0
 13 14  1  0
  3 15  1  0
 14 15  1  0
 14 16  1  6
  1  2  2  0
  2  4  1  0
  4  6  2  0
  6  5  1  0
  5  3  2  0
  3  1  1  0
 16 17  2  0
 17 18  1  0
 18 21  2  0
 21 20  1  0
 20 19  2  0
 19 16  1  0
  8  9  2  0
  9 10  1  0
 10 11  2  0
 11 12  1  0
 12 13  2  0
 13  8  1  0
M  END
$$$$
