No_4851-complexes_sdf/6BKW-FPZ/2024-09-17-14-21-01/
     RDKit          3D

 17 19  0  0  0  0  0  0  0  0999 V2000
   -7.7129    4.2099   27.0854 C   0  0  0  0  0  0  0  0  0  0  0  0
   -8.2112    3.0637   26.9225 C   0  0  0  0  0  0  0  0  0  0  0  0
   -8.5108    5.3904   26.9436 C   0  0  0  0  0  0  0  0  0  0  0  0
   -9.5333    5.2878   26.5026 C   0  0  0  0  0  0  0  0  0  0  0  0
   -9.5076    2.8934   26.4895 C   0  0  0  0  0  0  0  0  0  0  0  0
  -10.2017    4.0665   26.2286 C   0  0  0  0  0  0  0  0  0  0  0  0
   -7.8373    6.5654   27.2524 F   0  0  0  0  0  0  0  0  0  0  0  0
   -7.1936    1.9103   27.2341 C   0  0  0  0  0  0  0  0  0  0  0  0
   -7.6243    0.5715   26.9395 C   0  0  0  0  0  0  0  0  0  0  0  0
   -6.7244   -0.4284   27.2819 C   0  0  0  0  0  0  0  0  0  0  0  0
   -5.4907   -0.1171   27.8879 C   0  0  0  0  0  0  0  0  0  0  0  0
   -5.1616    1.2065   28.1579 C   0  0  0  0  0  0  0  0  0  0  0  0
   -5.9631    2.1859   27.8576 C   0  0  0  0  0  0  0  0  0  0  0  0
   -4.5643   -1.2157   28.2769 C   0  0  0  0  0  0  0  0  0  0  0  0
   -3.5077   -0.9757   28.6198 C   0  0  0  0  0  0  0  0  0  0  0  0
   -3.0283    0.4389   28.9208 C   0  0  0  0  0  0  0  0  0  0  0  0
   -3.8182    1.4195   28.6913 C   0  0  0  0  0  0  0  0  0  0  0  0
  3  7  1  0
  2  8  1  0
  8  9  2  0
  9 10  1  0
 10 11  2  0
 12 13  2  0
 13  8  1  0
  1  2  2  0
  2  5  1  0
  5  6  2  0
  6  4  1  0
  4  3  2  0
  3  1  1  0
 11 12  1  0
 12 17  1  0
 17 16  2  0
 16 15  1  0
 15 14  2  0
 14 11  1  0
M  END
$$$$
