No_4282-complexes_sdf/6BKW-FPZ/2024-09-17-14-21-01/
     RDKit          3D

 22 22  0  0  0  0  0  0  0  0999 V2000
   -7.9040    3.9820   27.1177 C   0  0  0  0  0  0  0  0  0  0  0  0
   -9.0711    4.3164   27.0630 C   0  0  0  0  0  0  0  0  0  0  0  0
  -10.0395    3.8218   27.1938 C   0  0  0  0  0  0  0  0  0  0  0  0
   -7.6424    2.5858   27.3610 C   0  0  0  0  0  0  0  0  0  0  0  0
   -8.7741    1.7889   27.4566 C   0  0  0  0  0  0  0  0  0  0  0  0
  -10.0155    2.3581   27.4300 C   0  0  0  0  0  0  0  0  0  0  0  0
  -11.2141    1.4842   27.6314 C   0  0  2  0  0  0  0  0  0  0  0  0
  -12.0482    0.8510   26.4094 Cl  0  0  0  0  0  0  0  0  0  0  0  0
   -6.2780    2.0088   27.4186 C   0  0  0  0  0  0  0  0  0  0  0  0
   -5.3651    2.8724   27.6708 F   0  0  0  0  0  0  0  0  0  0  0  0
   -6.2525    0.9496   28.2808 F   0  0  0  0  0  0  0  0  0  0  0  0
  -11.6840    1.3285   29.0037 C   0  0  0  0  0  0  0  0  0  0  0  0
  -12.7202    0.4695   29.2008 C   0  0  0  0  0  0  0  0  0  0  0  0
   -9.1087    5.9821   26.8193 C   0  0  0  0  0  0  0  0  0  0  0  0
   -8.7771    6.6120   25.7332 N   0  0  0  0  0  0  0  0  0  0  0  0
   -6.0102    1.4484   26.2273 F   0  0  0  0  0  0  0  0  0  0  0  0
   -9.3326    6.7468   27.8528 O   0  0  0  0  0  0  0  0  0  0  0  0
  -12.6002   -0.8042   29.0081 C   0  0  0  0  0  0  0  0  0  0  0  0
  -13.6303   -1.7377   29.3343 C   0  0  0  0  0  0  0  0  0  0  0  0
  -13.4918   -3.0949   29.0587 C   0  0  0  0  0  0  0  0  0  0  0  0
  -12.3304   -3.5287   28.4160 C   0  0  0  0  0  0  0  0  0  0  0  0
  -11.3336   -2.6977   28.0522 C   0  0  0  0  0  0  0  0  0  0  0  0
  6  7  1  0
  7  8  1  6
  4  9  1  0
  9 10  1  0
  9 11  1  0
  7 12  1  0
 12 13  2  3
  2 14  1  0
 14 15  2  0
  9 16  1  0
 14 17  1  0
 13 18  1  0
 18 19  2  3
 19 20  1  0
 20 21  2  3
 21 22  1  0
  1  2  2  0
  2  3  1  0
  3  6  2  0
  6  5  1  0
  5  4  2  0
  4  1  1  0
M  END
$$$$
