No_4083-complexes_sdf/6BKW-FPZ/2024-09-17-14-21-01/
     RDKit          3D

 31 36  0  0  0  0  0  0  0  0999 V2000
   -7.9040    3.9820   27.1177 C   0  0  0  0  0  0  0  0  0  0  0  0
   -8.2057    2.8231   26.8733 C   0  0  0  0  0  0  0  0  0  0  0  0
   -8.7695    5.0740   26.7916 C   0  0  0  0  0  0  0  0  0  0  0  0
   -9.9618    4.7598   26.1630 C   0  0  0  0  0  0  0  0  0  0  0  0
   -9.4200    2.4524   26.2849 C   0  0  0  0  0  0  0  0  0  0  0  0
  -10.2590    3.4815   25.9250 C   0  0  0  0  0  0  0  0  0  0  0  0
   -8.3837    6.4702   27.0872 C   0  0  0  0  0  0  0  0  0  0  0  0
   -7.9910    7.5367   27.0318 N   0  0  0  0  0  0  0  0  0  0  0  0
   -7.1137    1.7934   27.3661 C   0  0  0  0  0  0  0  0  0  0  0  0
   -5.8250    2.1536   27.5657 C   0  0  0  0  0  0  0  0  0  0  0  0
   -4.9027    1.1790   28.0770 C   0  0  0  0  0  0  0  0  0  0  0  0
   -5.2391   -0.1534   28.1370 C   0  0  0  0  0  0  0  0  0  0  0  0
   -7.4062    0.3878   27.4294 C   0  0  0  0  0  0  0  0  0  0  0  0
   -6.5304   -0.5026   27.8756 C   0  0  0  0  0  0  0  0  0  0  0  0
   -4.2531   -1.1171   28.6872 C   0  0  0  0  0  0  0  0  0  0  0  0
   -3.2834   -0.9905   29.1395 C   0  0  0  0  0  0  0  0  0  0  0  0
   -2.4209   -2.0204   29.6722 C   0  0  0  0  0  0  0  0  0  0  0  0
   -2.8039   -3.2759   29.5230 C   0  0  0  0  0  0  0  0  0  0  0  0
   -4.6963   -2.5211   28.6398 C   0  0  0  0  0  0  0  0  0  0  0  0
   -3.9766   -3.5147   29.0495 C   0  0  0  0  0  0  0  0  0  0  0  0
  -11.5306    3.1498   25.2222 C   0  0  0  0  0  0  0  0  0  0  0  0
  -11.6360    3.5632   23.9831 C   0  0  0  0  0  0  0  0  0  0  0  0
  -12.7619    3.8006   23.3251 C   0  0  0  0  0  0  0  0  0  0  0  0
  -12.5159    2.4380   25.8195 C   0  0  0  0  0  0  0  0  0  0  0  0
  -13.8138    2.5344   25.1774 C   0  0  0  0  0  0  0  0  0  0  0  0
  -13.9010    3.1706   23.9396 C   0  0  0  0  0  0  0  0  0  0  0  0
   -4.5052   -4.9001   28.9592 C   0  0  0  0  0  0  0  0  0  0  0  0
   -5.6100   -5.1442   28.3937 C   0  0  0  0  0  0  0  0  0  0  0  0
   -6.3701   -4.0020   27.9221 C   0  0  0  0  0  0  0  0  0  0  0  0
   -6.0233   -2.7999   28.0678 C   0  0  0  0  0  0  0  0  0  0  0  0
   -6.9499   -1.8060   27.7742 C   0  0  0  0  0  0  0  0  0  0  0  0
  3  7  1  0
  7  8  3  0
  2  9  1  0
 12 15  1  0
  6 21  1  0
 14 31  1  0
 30 31  1  0
 20 27  2  0
 27 28  1  0
 28 29  2  0
 29 30  1  0
 30 19  2  0
 21 22  2  0
 22 23  1  0
 23 26  2  0
 26 25  1  0
 25 24  2  0
 24 21  1  0
  9 10  2  0
 10 11  1  0
 11 12  2  0
 12 14  1  0
 14 13  2  0
 13  9  1  0
 15 16  2  0
 16 17  1  0
 17 18  2  0
 18 20  1  0
 20 19  1  0
 19 15  1  0
  1  2  2  0
  2  5  1  0
  5  6  2  0
  6  4  1  0
  4  3  2  0
  3  1  1  0
M  END
$$$$
