No_4480-complexes_sdf/6BKW-FPZ/2024-09-17-14-21-01/
     RDKit          3D

 36 40  0  0  0  0  0  0  0  0999 V2000
   -7.7129    4.2099   27.0854 C   0  0  0  0  0  0  0  0  0  0  0  0
   -8.2112    3.0637   26.9225 C   0  0  0  0  0  0  0  0  0  0  0  0
   -8.4224    5.2106   27.8516 C   0  0  0  0  0  0  0  0  0  0  0  0
   -9.5628    2.7160   27.4089 C   0  0  0  0  0  0  0  0  0  0  0  0
  -10.0598    1.3992   27.3077 C   0  0  0  0  0  0  0  0  0  0  0  0
   -9.7708    4.9875   28.2192 C   0  0  0  0  0  0  0  0  0  0  0  0
  -10.2729    3.7070   28.0678 C   0  0  0  0  0  0  0  0  0  0  0  0
   -9.1643    0.4233   27.1237 C   0  0  0  0  0  0  0  0  0  0  0  0
   -9.6326   -0.9427   27.0716 C   0  0  0  0  0  0  0  0  0  0  0  0
  -10.6690   -1.1321   27.4040 C   0  0  0  0  0  0  0  0  0  0  0  0
  -11.2682    0.9075   27.8279 C   0  0  0  0  0  0  0  0  0  0  0  0
  -11.6865   -0.2700   27.8738 C   0  0  0  0  0  0  0  0  0  0  0  0
   -7.9151    6.4160   27.9254 F   0  0  0  0  0  0  0  0  0  0  0  0
  -11.2434   -2.6845   27.4461 C   0  0  1  0  0  0  0  0  0  0  0  0
  -11.2755   -3.2899   26.4579 C   0  0  0  0  0  0  0  0  0  0  0  0
  -10.8658   -2.8986   25.3213 C   0  0  0  0  0  0  0  0  0  0  0  0
  -10.8553   -3.7867   24.1121 C   0  0  0  0  0  0  0  0  0  0  0  0
  -11.4118   -5.0168   24.3332 C   0  0  0  0  0  0  0  0  0  0  0  0
  -11.8677   -5.4406   25.5043 C   0  0  0  0  0  0  0  0  0  0  0  0
  -11.8063   -4.6566   26.6034 C   0  0  0  0  0  0  0  0  0  0  0  0
  -11.5266   -3.0608   28.8629 C   0  0  0  0  0  0  0  0  0  0  0  0
  -12.7688   -2.8427   29.4656 C   0  0  0  0  0  0  0  0  0  0  0  0
  -12.9563   -3.2871   30.7384 C   0  0  0  0  0  0  0  0  0  0  0  0
  -10.6052   -3.8343   29.5766 C   0  0  0  0  0  0  0  0  0  0  0  0
  -10.7635   -4.2446   30.8574 C   0  0  0  0  0  0  0  0  0  0  0  0
  -11.9870   -3.9351   31.4698 C   0  0  0  0  0  0  0  0  0  0  0  0
   -9.2176   -4.1062   28.9757 C   0  0  0  0  0  0  0  0  0  0  0  0
   -8.1393   -3.3080   29.3172 C   0  0  0  0  0  0  0  0  0  0  0  0
   -6.9113   -3.5172   28.8247 C   0  0  0  0  0  0  0  0  0  0  0  0
   -9.0075   -5.2441   28.2224 C   0  0  0  0  0  0  0  0  0  0  0  0
   -7.7011   -5.5351   27.7270 C   0  0  0  0  0  0  0  0  0  0  0  0
   -6.6670   -4.6228   28.0060 C   0  0  0  0  0  0  0  0  0  0  0  0
   -7.4439   -6.6285   26.8184 C   0  0  0  0  0  0  0  0  0  0  0  0
   -6.3925   -6.9944   26.8749 F   0  0  0  0  0  0  0  0  0  0  0  0
   -8.3543   -7.5994   27.0400 F   0  0  0  0  0  0  0  0  0  0  0  0
   -7.8011   -6.1383   25.5521 F   0  0  0  0  0  0  0  0  0  0  0  0
  4  5  1  0
  3 13  1  0
 14 10  1  1
 14 15  1  0
 14 21  1  0
 24 27  1  0
 31 33  1  0
 33 34  1  0
 33 35  1  0
 33 36  1  0
  1  2  2  0
  2  4  1  0
  4  7  2  0
  7  6  1  0
  6  3  2  0
  3  1  1  0
 15 16  2  0
 16 17  1  0
 17 18  2  0
 18 19  1  0
 19 20  2  0
 20 15  1  0
  5  8  2  0
  8  9  1  0
  9 10  2  0
 10 12  1  0
 12 11  2  0
 11  5  1  0
 21 22  2  0
 22 23  1  0
 23 26  2  0
 26 25  1  0
 25 24  2  0
 24 21  1  0
 27 28  2  0
 28 29  1  0
 29 32  2  0
 32 31  1  0
 31 30  2  0
 30 27  1  0
M  END
$$$$
