No_4196-complexes_sdf/6BKW-FPZ/2024-09-17-14-21-01/
     RDKit          3D

 22 23  0  0  0  0  0  0  0  0999 V2000
   -7.9040    3.9820   27.1177 C   0  0  0  0  0  0  0  0  0  0  0  0
   -9.0711    4.3164   27.0630 C   0  0  0  0  0  0  0  0  0  0  0  0
   -9.9692    3.7224   26.1073 C   0  0  0  0  0  0  0  0  0  0  0  0
   -7.4776    2.6994   26.6283 C   0  0  0  0  0  0  0  0  0  0  0  0
   -8.4406    1.9440   25.9776 C   0  0  0  0  0  0  0  0  0  0  0  0
   -9.6379    2.5001   25.6881 C   0  0  0  0  0  0  0  0  0  0  0  0
   -6.7822    4.7986   28.1887 Cl  0  0  0  0  0  0  0  0  0  0  0  0
  -10.6003    1.7344   24.8207 C   0  0  0  0  0  0  0  0  0  0  0  0
  -10.4890    1.8756   23.5066 C   0  0  0  0  0  0  0  0  0  0  0  0
  -11.3312    1.1800   22.5511 C   0  0  0  0  0  0  0  0  0  0  0  0
  -12.3172    0.4140   23.0396 C   0  0  0  0  0  0  0  0  0  0  0  0
  -11.4990    0.8930   25.4023 C   0  0  0  0  0  0  0  0  0  0  0  0
  -12.4083    0.2251   24.4690 C   0  0  0  0  0  0  0  0  0  0  0  0
   -9.5177    5.7641   27.5196 C   0  0  0  0  0  0  0  0  0  0  0  0
   -7.9906    0.6329   25.4608 C   0  0  0  0  0  0  0  0  0  0  0  0
   -7.3308   -0.1526   26.3073 N   0  0  0  0  0  0  0  0  0  0  0  0
   -6.4884   -0.9908   26.0345 C   0  0  0  0  0  0  0  0  0  0  0  0
   -5.6510   -1.5829   27.0507 C   0  0  0  0  0  0  0  0  0  0  0  0
   -4.6150   -1.7873   27.1896 C   0  0  0  0  0  0  0  0  0  0  0  0
   -3.8810   -2.3058   28.3737 C   0  0  0  0  0  0  0  0  0  0  0  0
   -4.7037   -2.3808   29.5441 C   0  0  0  0  0  0  0  0  0  0  0  0
   -6.0029   -2.0402   29.4788 C   0  0  0  0  0  0  0  0  0  0  0  0
  1  7  1  0
  6  8  1  0
  2 14  1  0
  5 15  1  0
 15 16  1  0
 16 17  1  0
 17 18  2  3
 18 19  1  0
 19 20  2  3
 20 21  1  0
 21 22  2  0
  1  2  2  0
  2  3  1  0
  3  6  2  0
  6  5  1  0
  5  4  2  0
  4  1  1  0
  8  9  2  0
  9 10  1  0
 10 11  2  0
 11 13  1  0
 13 12  2  0
 12  8  1  0
M  END
$$$$
