No_412-complexes_sdf/6BKW-FPZ/2024-09-17-14-21-01/
     RDKit          3D

 15 17  0  0  0  0  0  0  0  0999 V2000
   -7.2496    3.8871   27.4508 C   0  0  0  0  0  0  0  0  0  0  0  0
   -7.6161    2.7143   27.1523 C   0  0  0  0  0  0  0  0  0  0  0  0
   -6.9719    1.5838   27.5324 C   0  0  0  0  0  0  0  0  0  0  0  0
   -7.4590    0.2828   27.2615 C   0  0  0  0  0  0  0  0  0  0  0  0
   -8.7521    2.5117   26.3068 C   0  0  0  0  0  0  0  0  0  0  0  0
   -9.5643    3.6334   25.9825 C   0  0  0  0  0  0  0  0  0  0  0  0
   -8.0192    5.0864   27.1972 C   0  0  0  0  0  0  0  0  0  0  0  0
   -9.1214    4.9754   26.3814 C   0  0  0  0  0  0  0  0  0  0  0  0
   -8.6392    0.1715   26.5404 C   0  0  0  0  0  0  0  0  0  0  0  0
   -9.3054    1.2992   26.0162 C   0  0  0  0  0  0  0  0  0  0  0  0
   -7.5938    6.4053   27.6918 C   0  0  1  0  0  0  0  0  0  0  0  0
   -6.7065    6.3701   28.5530 F   0  0  0  0  0  0  0  0  0  0  0  0
   -8.0082    7.5495   27.0351 C   0  0  0  0  0  0  0  0  0  0  0  0
   -9.1330    7.4794   26.2586 N   0  0  0  0  0  0  0  0  0  0  0  0
   -9.5518    6.2127   25.8225 C   0  0  0  0  0  0  0  0  0  0  0  0
  7 11  1  0
 11 12  1  6
 11 13  1  0
 13 14  1  0
  8 15  1  0
 14 15  1  0
  2  3  1  0
  3  4  2  0
  4  9  1  0
  9 10  2  0
 10  5  1  0
  1  2  2  0
  2  5  1  0
  5  6  2  0
  6  8  1  0
  8  7  2  0
  7  1  1  0
M  END
$$$$
