No_4557-complexes_sdf/6BKW-FPZ/2024-09-17-14-21-01/
     RDKit          3D

 15 17  0  0  0  0  0  0  0  0999 V2000
   -7.2496    3.8871   27.4508 C   0  0  0  0  0  0  0  0  0  0  0  0
   -7.9379    4.9063   27.8518 C   0  0  0  0  0  0  0  0  0  0  0  0
   -7.5112    6.1898   27.6280 C   0  0  0  0  0  0  0  0  0  0  0  0
   -7.4783    2.5435   27.5904 C   0  0  0  0  0  0  0  0  0  0  0  0
   -6.6064    1.5370   27.1750 C   0  0  0  0  0  0  0  0  0  0  0  0
   -7.1002    0.3229   27.0179 C   0  0  0  0  0  0  0  0  0  0  0  0
   -8.4475    0.0625   27.1803 C   0  0  0  0  0  0  0  0  0  0  0  0
   -8.8174    2.1175   27.4094 C   0  0  0  0  0  0  0  0  0  0  0  0
   -9.3247    0.9899   27.3599 C   0  0  0  0  0  0  0  0  0  0  0  0
   -8.4341    7.1948   27.4232 C   0  0  0  0  0  0  0  0  0  0  0  0
   -9.8285    6.8452   27.2953 C   0  0  0  0  0  0  0  0  0  0  0  0
  -10.2284    5.5399   27.5479 C   0  0  0  0  0  0  0  0  0  0  0  0
   -9.3501    4.5874   27.7598 C   0  0  0  0  0  0  0  0  0  0  0  0
   -9.7968    3.3404   27.7144 C   0  0  0  0  0  0  0  0  0  0  0  0
  -11.0105    3.0135   27.9577 O   0  0  0  0  0  0  0  0  0  0  0  0
  1  2  1  0
  1  4  1  0
  8 14  1  0
 13 14  1  0
 14 15  2  0
  2  3  2  0
  3 10  1  0
 10 11  2  0
 11 12  1  0
 12 13  2  0
 13  2  1  0
  4  5  2  0
  5  6  1  0
  6  7  2  0
  7  9  1  0
  9  8  2  0
  8  4  1  0
M  END
$$$$
