No_4728-complexes_sdf/6BKW-FPZ/2024-09-17-14-21-01/
     RDKit          3D

 14 15  0  0  0  0  0  0  0  0999 V2000
   -7.7129    4.2099   27.0854 C   0  0  0  0  0  0  0  0  0  0  0  0
   -8.2112    3.0637   26.9225 C   0  0  0  0  0  0  0  0  0  0  0  0
   -8.4224    5.2106   27.8516 C   0  0  0  0  0  0  0  0  0  0  0  0
   -9.5628    2.7160   27.4089 C   0  0  0  0  0  0  0  0  0  0  0  0
  -10.2639    3.7034   28.1156 C   0  0  0  0  0  0  0  0  0  0  0  0
   -9.7059    4.9514   28.3169 C   0  0  0  0  0  0  0  0  0  0  0  0
  -11.6210    3.4159   28.6340 C   0  0  0  0  0  0  0  0  0  0  0  0
  -12.5458    4.3000   28.8434 C   0  0  0  0  0  0  0  0  0  0  0  0
  -11.8220    2.0225   29.0170 C   0  0  0  0  0  0  0  0  0  0  0  0
  -13.8143    4.0053   29.3045 C   0  0  0  0  0  0  0  0  0  0  0  0
  -13.1202    1.6844   29.4794 C   0  0  0  0  0  0  0  0  0  0  0  0
  -14.0604    2.6585   29.6489 C   0  0  0  0  0  0  0  0  0  0  0  0
   -7.3485    1.7674   26.1925 Cl  0  0  0  0  0  0  0  0  0  0  0  0
   -7.7328    6.7945   27.9377 Cl  0  0  0  0  0  0  0  0  0  0  0  0
  5  7  1  0
  2 13  1  0
  3 14  1  0
  1  2  2  0
  2  4  1  0
  4  5  2  0
  5  6  1  0
  6  3  2  0
  3  1  1  0
  7  8  2  0
  8 10  1  0
 10 12  2  0
 12 11  1  0
 11  9  2  0
  9  7  1  0
M  END
$$$$
