No_4252-complexes_sdf/6BKW-FPZ/2024-09-17-14-21-01/
     RDKit          3D

 21 22  0  0  0  0  0  0  0  0999 V2000
   -7.2496    3.8871   27.4508 C   0  0  0  0  0  0  0  0  0  0  0  0
   -7.6161    2.7143   27.1523 C   0  0  0  0  0  0  0  0  0  0  0  0
   -8.8302    2.4659   26.5056 C   0  0  0  0  0  0  0  0  0  0  0  0
   -8.1584    5.0089   27.3234 C   0  0  0  0  0  0  0  0  0  0  0  0
   -9.3788    4.7965   26.7695 C   0  0  0  0  0  0  0  0  0  0  0  0
   -9.7028    3.5649   26.3276 C   0  0  0  0  0  0  0  0  0  0  0  0
   -6.7182    1.5519   27.3631 C   0  0  0  0  0  0  0  0  0  0  0  0
   -5.4694    1.7365   28.0694 C   0  0  0  0  0  0  0  0  0  0  0  0
   -4.5986    0.6519   28.2611 C   0  0  0  0  0  0  0  0  0  0  0  0
   -5.0102   -0.6262   27.9715 C   0  0  0  0  0  0  0  0  0  0  0  0
   -7.0481    0.2248   27.1396 C   0  0  0  0  0  0  0  0  0  0  0  0
   -6.2697   -0.8020   27.4256 C   0  0  0  0  0  0  0  0  0  0  0  0
   -7.6988    6.3661   27.7798 C   0  0  0  0  0  0  0  0  0  0  0  0
   -3.4244    0.9278   28.8395 F   0  0  0  0  0  0  0  0  0  0  0  0
  -10.9927    3.3517   25.6256 C   0  0  0  0  0  0  0  0  0  0  0  0
  -12.1301    3.0416   26.2945 C   0  0  0  0  0  0  0  0  0  0  0  0
  -11.0593    3.4485   24.2017 C   0  0  0  0  0  0  0  0  0  0  0  0
  -11.0261    2.6257   23.4597 C   0  0  0  0  0  0  0  0  0  0  0  0
  -11.0640    2.7973   22.0035 C   0  0  0  0  0  0  0  0  0  0  0  0
  -11.0840    4.0724   21.4495 C   0  0  0  0  0  0  0  0  0  0  0  0
  -11.0000    5.1448   22.3493 C   0  0  0  0  0  0  0  0  0  0  0  0
  2  7  1  0
  4 13  1  0
  9 14  1  0
  6 15  1  0
 15 16  1  0
 15 17  1  0
 17 18  2  3
 18 19  1  0
 19 20  2  3
 20 21  1  0
  7  8  2  0
  8  9  1  0
  9 10  2  0
 10 12  1  0
 12 11  2  0
 11  7  1  0
  1  2  2  0
  2  3  1  0
  3  6  2  0
  6  5  1  0
  5  4  2  0
  4  1  1  0
M  END
$$$$
