No_4155-complexes_sdf/6BKW-FPZ/2024-09-17-14-21-01/
     RDKit          3D

 28 30  0  0  0  0  0  0  0  0999 V2000
   -7.2496    3.8871   27.4508 C   0  0  0  0  0  0  0  0  0  0  0  0
   -7.6161    2.7143   27.1523 C   0  0  1  0  0  0  0  0  0  0  0  0
   -8.8302    2.4659   26.5056 C   0  0  0  0  0  0  0  0  0  0  0  0
   -8.1584    5.0090   27.3234 C   0  0  0  0  0  0  0  0  0  0  0  0
   -9.3788    4.7965   26.7695 C   0  0  0  0  0  0  0  0  0  0  0  0
   -9.7028    3.5649   26.3276 C   0  0  2  0  0  0  0  0  0  0  0  0
   -6.7792    1.6348   27.3517 N   0  0  0  0  0  0  0  0  0  0  0  0
   -7.0195    0.3499   27.0368 C   0  0  0  0  0  0  0  0  0  0  0  0
   -6.1043   -0.6019   27.4919 C   0  0  0  0  0  0  0  0  0  0  0  0
   -5.0295    0.0488   28.1206 C   0  0  0  0  0  0  0  0  0  0  0  0
   -4.8465    1.3299   28.3937 C   0  0  0  0  0  0  0  0  0  0  0  0
   -5.6442    2.1581   28.0596 C   0  0  0  0  0  0  0  0  0  0  0  0
   -7.7593    6.2829   27.7695 N   0  0  0  0  0  0  0  0  0  0  0  0
  -11.0004    3.3282   25.6388 C   0  0  0  0  0  0  0  0  0  0  0  0
  -10.9177    3.1407   24.4968 F   0  0  0  0  0  0  0  0  0  0  0  0
  -11.7173    4.5539   25.7937 F   0  0  0  0  0  0  0  0  0  0  0  0
  -11.7068    2.4181   26.2383 F   0  0  0  0  0  0  0  0  0  0  0  0
   -4.0052   -1.0976   28.7038 C   0  0  1  0  0  0  0  0  0  0  0  0
   -4.0059   -1.4422   29.9352 C   0  0  0  0  0  0  0  0  0  0  0  0
   -4.8319   -1.0618   30.8486 C   0  0  0  0  0  0  0  0  0  0  0  0
   -4.7792   -1.4288   32.2798 C   0  0  0  0  0  0  0  0  0  0  0  0
   -3.7363   -2.2201   32.6797 C   0  0  0  0  0  0  0  0  0  0  0  0
   -2.7825   -2.5881   31.7559 C   0  0  0  0  0  0  0  0  0  0  0  0
   -2.8303   -2.1835   30.4431 C   0  0  0  0  0  0  0  0  0  0  0  0
   -3.5580   -1.9351   27.6458 C   0  0  0  0  0  0  0  0  0  0  0  0
   -6.0142   -0.8966   33.3578 Cl  0  0  0  0  0  0  0  0  0  0  0  0
   -8.9424    3.9241   25.7681 Cl  0  0  0  0  0  0  0  0  0  0  0  0
   -9.2401    1.2982   26.3607 O   0  0  0  0  0  0  0  0  0  0  0  0
  2  3  1  0
  1  4  1  0
  3  6  1  0
  5  6  1  0
  2  7  1  6
  7  8  1  0
  9 10  1  0
  7 12  1  0
 11 12  1  0
  4 13  1  0
  6 14  1  0
 14 15  1  0
 14 16  1  0
 14 17  1  0
 10 18  1  0
 18 19  1  0
 18 25  1  6
 21 26  1  0
  6 27  1  6
  3 28  2  0
  8  9  1  0
 10 11  1  0
  2  1  1  0
  4  5  1  0
 19 20  2  0
 20 21  1  0
 21 22  2  0
 22 23  1  0
 23 24  2  0
 24 19  1  0
M  END
$$$$
