No_4897-complexes_sdf/6BKW-FPZ/2024-09-17-14-21-01/
     RDKit          3D

 31 34  0  0  0  0  0  0  0  0999 V2000
   -7.9040    3.9820   27.1177 C   0  0  0  0  0  0  0  0  0  0  0  0
   -8.2057    2.8231   26.8733 C   0  0  0  0  0  0  0  0  0  0  0  0
   -7.0130    4.3706   28.1140 C   0  0  0  0  0  0  0  0  0  0  0  0
   -9.3829    2.4374   26.1668 C   0  0  0  0  0  0  0  0  0  0  0  0
  -10.0975    3.4171   25.5988 C   0  0  0  0  0  0  0  0  0  0  0  0
   -9.7085    4.7741   25.7618 C   0  0  0  0  0  0  0  0  0  0  0  0
   -8.7070    5.1118   26.5885 C   0  0  0  0  0  0  0  0  0  0  0  0
   -8.6163    6.4954   26.8210 C   0  0  0  0  0  0  0  0  0  0  0  0
   -6.8793    5.7769   28.4824 C   0  0  0  0  0  0  0  0  0  0  0  0
   -7.5678    6.7653   27.8327 C   0  0  0  0  0  0  0  0  0  0  0  0
   -7.2931    1.7648   27.4873 C   0  0  0  0  0  0  0  0  0  0  0  0
   -7.6620    0.4909   27.6160 N   0  0  0  0  0  0  0  0  0  0  0  0
   -6.8580   -0.5086   27.9205 C   0  0  0  0  0  0  0  0  0  0  0  0
   -5.5583   -0.1427   28.3004 C   0  0  0  0  0  0  0  0  0  0  0  0
   -5.1139    1.2072   28.1590 C   0  0  0  0  0  0  0  0  0  0  0  0
   -5.9310    2.1206   27.7049 C   0  0  0  0  0  0  0  0  0  0  0  0
   -4.6404   -1.2121   28.8038 C   0  0  0  0  0  0  0  0  0  0  0  0
   -4.3231   -1.4614   29.7349 C   0  0  0  0  0  0  0  0  0  0  0  0
   -3.3134   -2.4753   30.1956 C   0  0  0  0  0  0  0  0  0  0  0  0
   -2.7631   -3.1722   29.1661 C   0  0  0  0  0  0  0  0  0  0  0  0
   -3.9536   -1.9476   27.7075 C   0  0  0  0  0  0  0  0  0  0  0  0
   -3.0512   -2.8741   27.9132 C   0  0  0  0  0  0  0  0  0  0  0  0
   -7.1511   -1.8213   28.0512 N   0  0  0  0  0  0  0  0  0  0  0  0
   -7.6628   -2.7345   27.5584 C   0  0  0  0  0  0  0  0  0  0  0  0
   -8.2261   -2.5087   26.3899 C   0  0  0  0  0  0  0  0  0  0  0  0
   -8.7590   -3.5407   25.6843 C   0  0  0  0  0  0  0  0  0  0  0  0
   -7.2634   -3.9467   27.8123 O   0  0  0  0  0  0  0  0  0  0  0  0
   -9.3683   -4.3620   25.7698 C   0  0  0  0  0  0  0  0  0  0  0  0
   -9.8093   -5.3607   24.7955 C   0  0  0  0  0  0  0  0  0  0  0  0
   -9.3994   -5.1531   23.5363 C   0  0  0  0  0  0  0  0  0  0  0  0
   -9.7918   -6.0599   22.5543 C   0  0  0  0  0  0  0  0  0  0  0  0
  2 11  1  0
 14 17  1  0
 13 23  1  0
 23 24  1  0
 24 25  1  0
 25 26  2  3
 24 27  2  0
 26 28  1  0
 28 29  1  0
 29 30  2  3
 30 31  1  0
 11 12  2  0
 12 13  1  0
 13 14  2  0
 14 15  1  0
 15 16  2  0
 16 11  1  0
 17 18  2  0
 18 19  1  0
 19 20  2  0
 20 22  1  0
 22 21  2  0
 21 17  1  0
  1  3  2  0
  3  9  1  0
  9 10  2  0
 10  8  1  0
  8  7  2  0
  1  2  1  0
  2  4  2  0
  4  5  1  0
  5  6  2  0
  6  7  1  0
  7  1  1  0
M  END
$$$$
