No_4265-complexes_sdf/6BKW-FPZ/2024-09-17-14-21-01/
     RDKit          3D

 25 29  0  0  0  0  0  0  0  0999 V2000
   -7.2496    3.8871   27.4508 C   0  0  0  0  0  0  0  0  0  0  0  0
   -7.6161    2.7143   27.1523 C   0  0  0  0  0  0  0  0  0  0  0  0
   -7.1619    1.8631   27.5232 C   0  0  0  0  0  0  0  0  0  0  0  0
   -8.0384    5.0866   27.3232 C   0  0  0  0  0  0  0  0  0  0  0  0
   -9.1223    5.1097   26.4856 C   0  0  0  0  0  0  0  0  0  0  0  0
   -8.9186    2.6660   26.4794 C   0  0  0  0  0  0  0  0  0  0  0  0
   -9.6149    3.8296   26.1383 C   0  0  0  0  0  0  0  0  0  0  0  0
   -6.6198    0.7283   27.0347 C   0  0  0  0  0  0  0  0  0  0  0  0
   -5.8297   -0.2464   27.6793 C   0  0  0  0  0  0  0  0  0  0  0  0
   -5.0324    0.2760   28.6563 C   0  0  0  0  0  0  0  0  0  0  0  0
   -5.0400    1.6062   29.0776 C   0  0  0  0  0  0  0  0  0  0  0  0
   -5.9043    2.3427   28.5666 C   0  0  0  0  0  0  0  0  0  0  0  0
   -6.1648    3.7046   28.5910 N   0  0  0  0  0  0  0  0  0  0  0  0
  -10.7642    3.7700   25.2039 C   0  0  0  0  0  0  0  0  0  0  0  0
  -11.9923    3.6819   25.7058 C   0  0  0  0  0  0  0  0  0  0  0  0
  -12.2190    3.8817   27.0693 C   0  0  0  0  0  0  0  0  0  0  0  0
  -13.5494    3.9411   27.6225 C   0  0  0  0  0  0  0  0  0  0  0  0
  -13.7193    4.1444   29.0252 C   0  0  0  0  0  0  0  0  0  0  0  0
  -10.5188    3.7639   23.8013 C   0  0  0  0  0  0  0  0  0  0  0  0
  -11.4899    3.8829   22.8921 C   0  0  0  0  0  0  0  0  0  0  0  0
  -12.8464    3.8891   23.4386 C   0  0  0  0  0  0  0  0  0  0  0  0
  -13.0800    3.9164   24.8189 C   0  0  0  0  0  0  0  0  0  0  0  0
  -12.6915    3.5710   29.8707 C   0  0  0  0  0  0  0  0  0  0  0  0
  -11.4193    3.3245   29.3424 C   0  0  0  0  0  0  0  0  0  0  0  0
  -11.2239    3.4028   27.9769 C   0  0  0  0  0  0  0  0  0  0  0  0
  2  3  1  0
  1 13  1  0
 12 13  1  0
  7 14  1  0
 15 16  1  0
  3  8  2  0
  8  9  1  0
  9 10  2  0
 10 11  1  0
 11 12  2  0
 12  3  1  0
 14 15  2  0
 15 22  1  0
 22 21  2  0
 21 20  1  0
 20 19  2  0
 19 14  1  0
 16 17  2  0
 17 18  1  0
 18 23  2  0
 23 24  1  0
 24 25  2  0
 25 16  1  0
  1  2  2  0
  2  6  1  0
  6  7  2  0
  7  5  1  0
  5  4  2  0
  4  1  1  0
M  END
$$$$
