No_4-complexes_sdf/6BKW-FPZ/2024-09-17-14-21-01/
     RDKit          3D

 23 25  0  0  0  0  0  0  0  0999 V2000
   -7.2496    3.8871   27.4508 C   0  0  0  0  0  0  0  0  0  0  0  0
   -7.9379    4.9063   27.8518 C   0  0  0  0  0  0  0  0  0  0  0  0
   -8.7729    5.5444   27.0168 C   0  0  0  0  0  0  0  0  0  0  0  0
   -7.7708    3.0049   26.4155 C   0  0  0  0  0  0  0  0  0  0  0  0
   -9.3916    4.8208   25.9624 C   0  0  0  0  0  0  0  0  0  0  0  0
   -8.8052    3.5944   25.6431 C   0  0  0  0  0  0  0  0  0  0  0  0
   -9.4316    2.8790   24.5454 C   0  0  0  0  0  0  0  0  0  0  0  0
  -10.5998    2.5352   24.6585 C   0  0  0  0  0  0  0  0  0  0  0  0
  -11.2364    1.8699   23.4596 C   0  0  0  0  0  0  0  0  0  0  0  0
  -10.4097    1.5499   22.3846 C   0  0  0  0  0  0  0  0  0  0  0  0
   -9.3789    1.5953   22.3939 C   0  0  0  0  0  0  0  0  0  0  0  0
   -8.6093    2.3335   23.4728 C   0  0  0  0  0  0  0  0  0  0  0  0
   -7.3644    5.7090   28.8646 O   0  0  0  0  0  0  0  0  0  0  0  0
  -11.1639    0.7421   21.2443 C   0  0  1  0  0  0  0  0  0  0  0  0
  -11.8507    1.5173   20.3556 C   0  0  0  0  0  0  0  0  0  0  0  0
  -10.9624   -0.6096   21.0368 C   0  0  0  0  0  0  0  0  0  0  0  0
  -10.2822   -1.3506   21.6056 C   0  0  0  0  0  0  0  0  0  0  0  0
   -9.5530   -2.1764   21.6255 C   0  0  0  0  0  0  0  0  0  0  0  0
   -8.7977   -3.1909   22.1922 C   0  0  0  0  0  0  0  0  0  0  0  0
   -9.3122   -3.8314   23.2792 C   0  0  0  0  0  0  0  0  0  0  0  0
  -10.2830   -3.0807   23.9933 C   0  0  0  0  0  0  0  0  0  0  0  0
  -11.0343   -1.9720   23.6444 C   0  0  0  0  0  0  0  0  0  0  0  0
  -10.7416   -1.4963   23.1265 C   0  0  0  0  0  0  0  0  0  0  0  0
  6  7  1  0
  2 13  1  0
 10 14  1  0
 14 15  1  6
 14 16  1  0
 16 17  1  0
 17 18  2  0
 18 19  1  0
 19 20  2  0
 20 21  1  0
 21 22  2  0
 17 23  1  0
 22 23  1  0
  1  2  2  0
  2  3  1  0
  3  5  2  0
  5  6  1  0
  6  4  2  0
  4  1  1  0
  7  8  2  0
  8  9  1  0
  9 10  2  0
 10 11  1  0
 11 12  2  0
 12  7  1  0
M  END
$$$$
