No_4655-complexes_sdf/6BKW-FPZ/2024-09-17-14-21-01/
     RDKit          3D

 14 14  0  0  0  0  0  0  0  0999 V2000
   -7.9040    3.9820   27.1177 C   0  0  0  0  0  0  0  0  0  0  0  0
   -7.8663    4.8694   27.9238 C   0  0  0  0  0  0  0  0  0  0  0  0
   -9.0491    3.8523   26.2542 C   0  0  0  0  0  0  0  0  0  0  0  0
   -8.7661    5.9491   27.9690 C   0  0  0  0  0  0  0  0  0  0  0  0
   -9.9295    4.8502   26.2323 C   0  0  0  0  0  0  0  0  0  0  0  0
   -9.8077    5.9288   27.0933 C   0  0  0  0  0  0  0  0  0  0  0  0
   -9.0726    2.7074   25.3087 C   0  0  0  0  0  0  0  0  0  0  0  0
   -9.9788    1.8124   25.6868 C   0  0  0  0  0  0  0  0  0  0  0  0
   -9.8886    0.6639   25.0471 C   0  0  0  0  0  0  0  0  0  0  0  0
   -8.7337    0.1710   24.6581 C   0  0  0  0  0  0  0  0  0  0  0  0
   -7.9109   -0.5385   25.1286 C   0  0  0  0  0  0  0  0  0  0  0  0
   -7.8518   -0.5728   26.5101 C   0  0  0  0  0  0  0  0  0  0  0  0
   -6.6436   -0.9029   27.1241 C   0  0  0  0  0  0  0  0  0  0  0  0
   -6.4764   -0.5618   28.5387 C   0  0  0  0  0  0  0  0  0  0  0  0
  3  7  1  0
  7  8  1  0
  8  9  1  0
  9 10  1  0
 10 11  1  0
 11 12  1  0
 12 13  2  3
 13 14  1  0
  1  2  2  0
  2  4  1  0
  4  6  2  0
  6  5  1  0
  5  3  2  0
  3  1  1  0
M  END
$$$$
