No_4936-complexes_sdf/6BKW-FPZ/2024-09-17-14-21-01/
     RDKit          3D

 11 11  0  0  0  0  0  0  0  0999 V2000
   -7.9040    3.9820   27.1177 C   0  0  0  0  0  0  0  0  0  0  0  0
   -7.8663    4.8694   27.9238 C   0  0  0  0  0  0  0  0  0  0  0  0
   -9.0953    3.1697   27.0532 C   0  0  0  0  0  0  0  0  0  0  0  0
  -10.1313    3.4052   27.8871 C   0  0  0  0  0  0  0  0  0  0  0  0
   -8.9489    5.3814   28.6671 C   0  0  0  0  0  0  0  0  0  0  0  0
  -10.1039    4.5714   28.7102 C   0  0  0  0  0  0  0  0  0  0  0  0
   -9.0441    1.9400   26.2104 C   0  0  0  0  0  0  0  0  0  0  0  0
   -8.4388    0.7762   26.4940 C   0  0  0  0  0  0  0  0  0  0  0  0
   -7.7719    0.5941   27.8211 C   0  0  0  0  0  0  0  0  0  0  0  0
   -7.0966   -0.6024   28.0958 C   0  0  0  0  0  0  0  0  0  0  0  0
   -7.0849   -1.5722   27.1164 C   0  0  0  0  0  0  0  0  0  0  0  0
  3  7  1  0
  7  8  2  3
  8  9  1  0
  9 10  2  3
 10 11  1  0
  1  2  2  0
  2  5  1  0
  5  6  2  0
  6  4  1  0
  4  3  2  0
  3  1  1  0
M  END
$$$$
