No_4055-complexes_sdf/6BKW-FPZ/2024-09-17-14-21-01/
     RDKit          3D

 18 19  0  0  0  0  0  0  0  0999 V2000
   -7.7129    4.2099   27.0854 C   0  0  0  0  0  0  0  0  0  0  0  0
   -7.7814    5.1722   27.8972 C   0  0  0  0  0  0  0  0  0  0  0  0
   -8.8776    3.8408   26.3416 C   0  0  0  0  0  0  0  0  0  0  0  0
   -8.9136    2.6330   25.5655 C   0  0  0  0  0  0  0  0  0  0  0  0
   -8.8361    6.1389   27.9032 C   0  0  0  0  0  0  0  0  0  0  0  0
   -9.8295    4.8219   26.2725 C   0  0  0  0  0  0  0  0  0  0  0  0
   -9.8494    5.9177   27.0428 C   0  0  0  0  0  0  0  0  0  0  0  0
   -9.7332    1.7398   26.1329 C   0  0  0  0  0  0  0  0  0  0  0  0
   -9.4542    0.4772   25.8977 C   0  0  0  0  0  0  0  0  0  0  0  0
  -10.1873   -0.5851   26.5523 C   0  0  0  0  0  0  0  0  0  0  0  0
  -11.0772   -0.1152   27.3625 C   0  0  0  0  0  0  0  0  0  0  0  0
  -11.3634    1.1723   27.7452 C   0  0  0  0  0  0  0  0  0  0  0  0
  -10.6194    2.1145   27.1839 C   0  0  0  0  0  0  0  0  0  0  0  0
   -8.4617   -0.0072   24.9047 C   0  0  2  0  0  0  0  0  0  0  0  0
   -7.2217   -0.4363   25.2917 C   0  0  0  0  0  0  0  0  0  0  0  0
   -8.5436    0.4092   23.7195 C   0  0  0  0  0  0  0  0  0  0  0  0
   -9.7529    0.9662   23.1340 C   0  0  0  0  0  0  0  0  0  0  0  0
  -10.0618    0.9077   22.1515 C   0  0  0  0  0  0  0  0  0  0  0  0
  3  4  1  0
  4  8  1  0
  9 14  1  0
 14 15  1  1
 14 16  1  0
 16 17  1  0
 17 18  2  0
  8  9  2  0
  9 10  1  0
 10 11  2  0
 11 12  1  0
 12 13  2  0
 13  8  1  0
  1  2  2  0
  2  5  1  0
  5  7  2  0
  7  6  1  0
  6  3  2  0
  3  1  1  0
M  END
$$$$
