No_4212-complexes_sdf/6BKW-FPZ/2024-09-17-14-21-01/
     RDKit          3D

 33 36  0  0  0  0  0  0  0  0999 V2000
   -7.2496    3.8871   27.4508 C   0  0  0  0  0  0  0  0  0  0  0  0
   -7.6161    2.7143   27.1523 C   0  0  0  0  0  0  0  0  0  0  0  0
   -8.8302    2.4659   26.5056 C   0  0  0  0  0  0  0  0  0  0  0  0
   -8.1584    5.0090   27.3234 C   0  0  0  0  0  0  0  0  0  0  0  0
   -9.3788    4.7965   26.7695 C   0  0  0  0  0  0  0  0  0  0  0  0
   -9.7028    3.5649   26.3276 C   0  0  0  0  0  0  0  0  0  0  0  0
   -6.7182    1.5519   27.3631 C   0  0  0  0  0  0  0  0  0  0  0  0
   -7.0500    0.2083   27.2450 C   0  0  0  0  0  0  0  0  0  0  0  0
   -6.2063   -0.7601   27.5521 C   0  0  0  0  0  0  0  0  0  0  0  0
   -4.9394   -0.4352   28.1041 C   0  0  0  0  0  0  0  0  0  0  0  0
   -4.5672    0.8802   28.2862 C   0  0  0  0  0  0  0  0  0  0  0  0
   -5.4068    1.8597   27.9844 C   0  0  0  0  0  0  0  0  0  0  0  0
   -7.6942    6.3581   27.7806 C   0  0  0  0  0  0  0  0  0  0  0  0
  -11.0008    3.3427   25.6431 C   0  0  0  0  0  0  0  0  0  0  0  0
  -10.9832    3.2612   24.2947 C   0  0  0  0  0  0  0  0  0  0  0  0
  -10.3059    3.6234   23.5065 C   0  0  0  0  0  0  0  0  0  0  0  0
  -10.2967    3.5897   22.0493 C   0  0  0  0  0  0  0  0  0  0  0  0
  -11.2750    2.8397   21.4779 C   0  0  0  0  0  0  0  0  0  0  0  0
  -12.1947    2.2449   22.3545 C   0  0  0  0  0  0  0  0  0  0  0  0
  -12.1275    2.4583   23.6785 C   0  0  0  0  0  0  0  0  0  0  0  0
  -11.8724    4.4975   26.2130 C   0  0  0  0  0  0  0  0  0  0  0  0
  -11.5122    1.9685   26.3264 C   0  0  0  0  0  0  0  0  0  0  0  0
  -11.8095    1.8888   27.6166 C   0  0  0  0  0  0  0  0  0  0  0  0
  -11.8279    0.6698   28.3009 C   0  0  0  0  0  0  0  0  0  0  0  0
  -11.6192   -0.4878   27.5465 C   0  0  0  0  0  0  0  0  0  0  0  0
  -11.6604   -0.4411   26.5174 C   0  0  0  0  0  0  0  0  0  0  0  0
  -11.3529    0.7542   25.6567 C   0  0  0  0  0  0  0  0  0  0  0  0
   -4.0249   -1.5610   28.5439 C   0  0  0  0  0  0  0  0  0  0  0  0
   -3.0061   -1.6133   28.1581 O   0  0  0  0  0  0  0  0  0  0  0  0
   -4.5400   -2.3542   29.4784 O   0  0  0  0  0  0  0  0  0  0  0  0
   -6.7135    6.3370   28.5009 F   0  0  0  0  0  0  0  0  0  0  0  0
   -8.5847    7.1067   28.1963 F   0  0  0  0  0  0  0  0  0  0  0  0
   -7.1783    6.9527   26.5791 F   0  0  0  0  0  0  0  0  0  0  0  0
  2  7  1  0
  4 13  1  0
  6 14  1  0
 14 15  1  0
 14 21  1  0
 14 22  1  0
 10 28  1  0
 28 29  2  0
 28 30  1  0
 13 31  1  0
 13 32  1  0
 13 33  1  0
 15 16  2  0
 16 17  1  0
 17 18  2  0
 18 19  1  0
 19 20  2  0
 20 15  1  0
 22 23  2  0
 23 24  1  0
 24 25  2  0
 25 26  1  0
 26 27  2  0
 27 22  1  0
  1  2  2  0
  2  3  1  0
  3  6  2  0
  6  5  1  0
  5  4  2  0
  4  1  1  0
  7  8  2  0
  8  9  1  0
  9 10  2  0
 10 11  1  0
 11 12  2  0
 12  7  1  0
M  END
$$$$
