No_4742-complexes_sdf/6BKW-FPZ/2024-09-17-14-21-01/
     RDKit          3D

 23 25  0  0  0  0  0  0  0  0999 V2000
   -7.9040    3.9820   27.1177 C   0  0  0  0  0  0  0  0  0  0  0  0
   -7.8663    4.8694   27.9238 C   0  0  0  0  0  0  0  0  0  0  0  0
   -9.0953    3.1697   27.0532 C   0  0  0  0  0  0  0  0  0  0  0  0
  -10.1313    3.4052   27.8871 C   0  0  0  0  0  0  0  0  0  0  0  0
  -10.3799    4.3455   28.1576 C   0  0  0  0  0  0  0  0  0  0  0  0
   -6.8025    5.8437   28.0474 C   0  0  0  0  0  0  0  0  0  0  0  0
   -9.2191    5.3364   28.4263 C   0  0  0  0  0  0  0  0  0  0  0  0
   -8.8956    1.7384   26.4016 C   0  0  0  0  0  0  0  0  0  0  0  0
   -8.4077    1.7230   25.2429 C   0  0  0  0  0  0  0  0  0  0  0  0
   -9.2743    0.6111   27.1280 C   0  0  0  0  0  0  0  0  0  0  0  0
   -8.6616   -0.5535   26.9670 C   0  0  0  0  0  0  0  0  0  0  0  0
   -8.0148    0.4346   24.7526 C   0  0  0  0  0  0  0  0  0  0  0  0
   -8.9272   -1.7358   27.7461 C   0  0  1  0  0  0  0  0  0  0  0  0
   -8.2238   -0.6655   25.5932 C   0  0  0  0  0  0  0  0  0  0  0  0
   -7.9020   -2.1726   28.5262 C   0  0  0  0  0  0  0  0  0  0  0  0
   -6.6922   -1.6041   28.5618 C   0  0  0  0  0  0  0  0  0  0  0  0
   -5.7549   -1.8528   29.1989 C   0  0  0  0  0  0  0  0  0  0  0  0
   -5.9107   -2.8462   30.2806 C   0  0  0  0  0  0  0  0  0  0  0  0
   -7.1203   -3.4791   30.3974 C   0  0  0  0  0  0  0  0  0  0  0  0
   -8.1385   -3.1016   29.5942 C   0  0  0  0  0  0  0  0  0  0  0  0
  -10.1963   -2.2802   27.7057 C   0  0  0  0  0  0  0  0  0  0  0  0
  -10.6630   -2.9445   28.3010 C   0  0  0  0  0  0  0  0  0  0  0  0
  -12.1645   -3.2477   28.0001 C   0  0  0  0  0  0  0  0  0  0  0  0
  2  6  1  0
  3  8  1  0
 13 11  1  1
 13 15  1  0
 13 21  1  0
 21 22  2  3
 22 23  1  0
  1  2  2  0
  2  7  1  0
  7  5  2  0
  5  4  1  0
  4  3  2  0
  3  1  1  0
  8  9  2  0
  9 12  1  0
 12 14  2  0
 14 11  1  0
 11 10  2  0
 10  8  1  0
 15 16  2  0
 16 17  1  0
 17 18  2  0
 18 19  1  0
 19 20  2  0
 20 15  1  0
M  END
$$$$
