No_4404-complexes_sdf/6BKW-FPZ/2024-09-17-14-21-01/
     RDKit          3D

 10 11  0  0  0  0  0  0  0  0999 V2000
   -7.9040    3.9820   27.1177 C   0  0  0  0  0  0  0  0  0  0  0  0
   -7.8663    4.8694   27.9238 C   0  0  0  0  0  0  0  0  0  0  0  0
   -9.0491    3.8523   26.2542 C   0  0  0  0  0  0  0  0  0  0  0  0
   -9.4067    2.6808   25.6532 C   0  0  0  0  0  0  0  0  0  0  0  0
   -8.5275    6.1191   27.7061 C   0  0  0  0  0  0  0  0  0  0  0  0
   -8.8735    1.4981   26.1333 C   0  0  0  0  0  0  0  0  0  0  0  0
   -7.6937    1.5113   26.9675 C   0  0  0  0  0  0  0  0  0  0  0  0
   -7.3848    2.6763   27.5862 C   0  0  0  0  0  0  0  0  0  0  0  0
   -9.5089    6.2458   26.6322 C   0  0  0  0  0  0  0  0  0  0  0  0
   -9.7479    5.0656   25.9161 C   0  0  0  0  0  0  0  0  0  0  0  0
  3  4  1  0
  4  6  2  0
  6  7  1  0
  7  8  2  0
  8  1  1  0
  1  2  2  0
  2  5  1  0
  5  9  2  0
  9 10  1  0
 10  3  2  0
  3  1  1  0
M  END
$$$$
