No_4662-complexes_sdf/6BKW-FPZ/2024-09-17-14-21-01/
     RDKit          3D

 40 44  0  0  0  0  0  0  0  0999 V2000
   -7.7129    4.2099   27.0854 C   0  0  0  0  0  0  0  0  0  0  0  0
   -8.2112    3.0637   26.9225 C   0  0  0  0  0  0  0  0  0  0  0  0
   -7.5138    1.9223   27.4249 C   0  0  0  0  0  0  0  0  0  0  0  0
   -8.5309    5.4147   26.8151 C   0  0  0  0  0  0  0  0  0  0  0  0
   -9.6817    5.2393   26.1100 C   0  0  0  0  0  0  0  0  0  0  0  0
  -10.1032    3.9957   25.8534 C   0  0  0  0  0  0  0  0  0  0  0  0
   -9.4034    2.8430   26.2573 C   0  0  0  0  0  0  0  0  0  0  0  0
   -7.0199    0.9631   26.8971 N   0  0  0  0  0  0  0  0  0  0  0  0
   -6.1936    0.1006   27.5530 C   0  0  0  0  0  0  0  0  0  0  0  0
   -5.0121    0.1738   27.4832 C   0  0  0  0  0  0  0  0  0  0  0  0
   -4.2270    0.2104   28.1523 C   0  0  0  0  0  0  0  0  0  0  0  0
   -4.3578   -0.5029   29.5296 C   0  0  0  0  0  0  0  0  0  0  0  0
   -5.6182   -1.0298   29.6460 C   0  0  0  0  0  0  0  0  0  0  0  0
   -6.6484   -0.5619   28.7419 C   0  0  0  0  0  0  0  0  0  0  0  0
   -7.9889    6.7605   27.0696 C   0  0  0  0  0  0  0  0  0  0  0  0
   -8.6623    7.8636   26.7223 N   0  0  0  0  0  0  0  0  0  0  0  0
   -6.9200    6.8247   27.7869 O   0  0  0  0  0  0  0  0  0  0  0  0
   -3.2787   -0.8371   30.4580 C   0  0  0  0  0  0  0  0  0  0  0  0
   -3.3683   -1.8613   31.0658 N   0  0  0  0  0  0  0  0  0  0  0  0
   -2.5395   -2.1746   32.0184 C   0  0  2  0  0  0  0  0  0  0  0  0
   -7.4906    0.4615   25.6238 C   0  0  0  0  0  0  0  0  0  0  0  0
   -1.6116   -3.1381   31.8460 C   0  0  0  0  0  0  0  0  0  0  0  0
   -1.5647   -3.6818   30.7126 C   0  0  0  0  0  0  0  0  0  0  0  0
   -0.5599   -4.2700   30.1964 C   0  0  0  0  0  0  0  0  0  0  0  0
   -2.2890   -0.0071   30.4713 O   0  0  0  0  0  0  0  0  0  0  0  0
    0.5856   -4.6008   31.0998 C   0  0  0  0  0  0  0  0  0  0  0  0
    0.5604   -4.0588   32.3500 C   0  0  0  0  0  0  0  0  0  0  0  0
   -0.4320   -3.2100   32.7300 C   0  0  0  0  0  0  0  0  0  0  0  0
   -3.3794   -2.5183   33.3523 C   0  0  0  0  0  0  0  0  0  0  0  0
   -4.2906   -3.3150   33.4407 C   0  0  0  0  0  0  0  0  0  0  0  0
   -4.8879   -3.5582   34.3793 C   0  0  0  0  0  0  0  0  0  0  0  0
   -6.0441   -4.4726   34.4631 C   0  0  0  0  0  0  0  0  0  0  0  0
   -4.6625   -2.7267   35.6868 C   0  0  0  0  0  0  0  0  0  0  0  0
   -3.6717   -1.7831   35.6400 C   0  0  0  0  0  0  0  0  0  0  0  0
   -3.0043   -1.5993   34.5045 C   0  0  0  0  0  0  0  0  0  0  0  0
   -6.9531   -4.5091   33.8439 C   0  0  0  0  0  0  0  0  0  0  0  0
   -8.0462   -5.4955   33.8260 C   0  0  0  0  0  0  0  0  0  0  0  0
   -5.5715   -5.8101   34.9105 C   0  0  0  0  0  0  0  0  0  0  0  0
   -6.5185   -6.8472   34.9709 C   0  0  0  0  0  0  0  0  0  0  0  0
   -7.7141   -6.6692   34.3967 C   0  0  0  0  0  0  0  0  0  0  0  0
  2  3  1  0
  3  8  1  0
  8  9  1  0
  4 15  1  0
 15 16  1  0
 15 17  2  0
 12 18  1  0
 18 19  1  0
 20 19  1  6
  8 21  1  0
 20 22  1  0
 18 25  2  0
 20 29  1  0
 31 32  1  0
 32 36  2  0
 36 37  1  0
 37 40  2  0
 40 39  1  0
 39 38  2  0
 38 32  1  0
  1  2  2  0
  2  7  1  0
  7  6  2  0
  6  5  1  0
  5  4  2  0
  4  1  1  0
 22 23  2  0
 23 24  1  0
 24 26  2  0
 26 27  1  0
 27 28  2  0
 28 22  1  0
  9 10  2  0
 10 11  1  0
 11 12  2  0
 12 13  1  0
 13 14  2  0
 14  9  1  0
 29 30  2  0
 30 31  1  0
 31 33  2  0
 33 34  1  0
 34 35  2  0
 35 29  1  0
M  END
$$$$
