No_4686-complexes_sdf/6BKW-FPZ/2024-09-17-14-21-01/
     RDKit          3D

 18 20  0  0  0  0  0  0  0  0999 V2000
   -7.9040    3.9820   27.1177 C   0  0  0  0  0  0  0  0  0  0  0  0
   -7.8663    4.8694   27.9238 C   0  0  0  0  0  0  0  0  0  0  0  0
   -9.0491    3.8523   26.2542 C   0  0  0  0  0  0  0  0  0  0  0  0
   -8.7661    5.9491   27.9690 C   0  0  0  0  0  0  0  0  0  0  0  0
   -9.9295    4.8502   26.2323 C   0  0  0  0  0  0  0  0  0  0  0  0
   -9.8077    5.9288   27.0933 C   0  0  0  0  0  0  0  0  0  0  0  0
   -9.0726    2.7074   25.3087 C   0  0  0  0  0  0  0  0  0  0  0  0
   -8.6026    1.4628   25.7488 C   0  0  0  0  0  0  0  0  0  0  0  0
   -9.7747    2.8675   24.1040 C   0  0  0  0  0  0  0  0  0  0  0  0
   -8.7082    0.4024   24.8766 C   0  0  0  0  0  0  0  0  0  0  0  0
   -9.8729    1.7491   23.2711 C   0  0  0  0  0  0  0  0  0  0  0  0
   -9.3145    0.5407   23.6405 C   0  0  0  0  0  0  0  0  0  0  0  0
   -9.4352   -0.5178   22.7602 O   0  0  0  0  0  0  0  0  0  0  0  0
   -8.4257   -1.1621   22.3350 C   0  0  2  0  0  0  0  0  0  0  0  0
   -8.3260   -2.5260   22.7018 C   0  0  0  0  0  0  0  0  0  0  0  0
   -7.2157   -3.0688   22.4398 N   0  0  0  0  0  0  0  0  0  0  0  0
   -6.3166   -2.3059   21.7694 C   0  0  0  0  0  0  0  0  0  0  0  0
   -7.0618   -0.9196   21.7843 C   0  0  0  0  0  0  0  0  0  0  0  0
  3  7  1  0
 12 13  1  0
 14 13  1  1
 14 15  1  0
 15 16  1  0
 16 17  2  0
 14 18  1  0
 17 18  1  0
  1  2  2  0
  2  4  1  0
  4  6  2  0
  6  5  1  0
  5  3  2  0
  3  1  1  0
  7  8  2  0
  8 10  1  0
 10 12  2  0
 12 11  1  0
 11  9  2  0
  9  7  1  0
M  END
$$$$
