No_4509-complexes_sdf/6BKW-FPZ/2024-09-17-14-21-01/
     RDKit          3D

 26 29  0  0  0  0  0  0  0  0999 V2000
   -7.2496    3.8871   27.4508 C   0  0  0  0  0  0  0  0  0  0  0  0
   -7.6161    2.7143   27.1523 C   0  0  0  0  0  0  0  0  0  0  0  0
   -8.8302    2.4659   26.5056 C   0  0  0  0  0  0  0  0  0  0  0  0
   -8.1584    5.0090   27.3234 C   0  0  0  0  0  0  0  0  0  0  0  0
   -9.3788    4.7965   26.7695 C   0  0  0  0  0  0  0  0  0  0  0  0
   -9.7028    3.5649   26.3276 C   0  0  0  0  0  0  0  0  0  0  0  0
   -6.5671    1.3685   27.4084 Cl  0  0  0  0  0  0  0  0  0  0  0  0
   -7.7259    6.2172   27.7228 F   0  0  0  0  0  0  0  0  0  0  0  0
  -11.0181    3.3695   25.6745 C   0  0  0  0  0  0  0  0  0  0  0  0
  -11.2330    2.2517   25.0288 C   0  0  0  0  0  0  0  0  0  0  0  0
  -12.4803    2.0453   24.3089 C   0  0  0  0  0  0  0  0  0  0  0  0
  -13.3890    3.1240   24.3266 C   0  0  0  0  0  0  0  0  0  0  0  0
  -13.1167    4.3035   25.0000 C   0  0  0  0  0  0  0  0  0  0  0  0
  -11.9178    4.4756   25.6756 C   0  0  0  0  0  0  0  0  0  0  0  0
  -12.7946    0.8652   23.5770 C   0  0  0  0  0  0  0  0  0  0  0  0
  -12.4203   -0.2289   23.9383 C   0  0  0  0  0  0  0  0  0  0  0  0
  -11.7156   -0.3951   25.2134 C   0  0  0  0  0  0  0  0  0  0  0  0
  -10.8901    0.8231   25.6134 C   0  0  0  0  0  0  0  0  0  0  0  0
  -11.1360   -1.6220   25.7342 C   0  0  0  0  0  0  0  0  0  0  0  0
  -10.8604   -1.6322   26.9449 C   0  0  0  0  0  0  0  0  0  0  0  0
   -9.9744   -2.6293   27.5153 C   0  0  0  0  0  0  0  0  0  0  0  0
   -9.5212   -2.5215   28.8661 C   0  0  0  0  0  0  0  0  0  0  0  0
  -10.2360   -1.6262   29.6930 C   0  0  0  0  0  0  0  0  0  0  0  0
  -11.2531   -0.6670   27.9923 C   0  0  0  0  0  0  0  0  0  0  0  0
  -10.9851   -0.7333   29.3097 C   0  0  0  0  0  0  0  0  0  0  0  0
  -11.1786   -2.6380   25.0362 O   0  0  0  0  0  0  0  0  0  0  0  0
  2  7  1  0
  4  8  1  0
  6  9  1  0
 17 19  1  0
 19 20  1  0
 19 26  2  0
 11 15  1  0
 15 16  2  0
 16 17  1  0
 17 18  2  0
 18 10  1  0
  1  2  2  0
  2  3  1  0
  3  6  2  0
  6  5  1  0
  5  4  2  0
  4  1  1  0
  9 10  2  0
 10 11  1  0
 11 12  2  0
 12 13  1  0
 13 14  2  0
 14  9  1  0
 20 21  2  0
 21 22  1  0
 22 23  2  0
 23 25  1  0
 25 24  2  0
 24 20  1  0
M  END
$$$$
