No_4863-complexes_sdf/6BKW-FPZ/2024-09-17-14-21-01/
     RDKit          3D

 37 41  0  0  0  0  0  0  0  0999 V2000
   -7.7129    4.2099   27.0854 C   0  0  0  0  0  0  0  0  0  0  0  0
   -8.2112    3.0637   26.9225 C   0  0  0  0  0  0  0  0  0  0  0  0
   -8.5108    5.3904   26.9436 C   0  0  0  0  0  0  0  0  0  0  0  0
   -7.9752    6.6981   27.2112 C   0  0  0  0  0  0  0  0  0  0  0  0
   -7.4938    1.8178   27.3608 C   0  0  0  0  0  0  0  0  0  0  0  0
   -6.1616    2.0743   27.7406 C   0  0  0  0  0  0  0  0  0  0  0  0
   -5.3842    0.9111   28.1468 C   0  0  0  0  0  0  0  0  0  0  0  0
   -5.9508   -0.3230   28.1725 C   0  0  0  0  0  0  0  0  0  0  0  0
   -7.9245    0.5644   27.3513 C   0  0  0  0  0  0  0  0  0  0  0  0
   -7.2288   -0.4857   27.7892 C   0  0  0  0  0  0  0  0  0  0  0  0
   -9.4129    2.8824   26.2180 C   0  0  0  0  0  0  0  0  0  0  0  0
  -10.1578    4.0272   25.8483 C   0  0  0  0  0  0  0  0  0  0  0  0
   -9.6255    5.2762   26.1839 C   0  0  0  0  0  0  0  0  0  0  0  0
   -8.1289    7.8096   26.7799 N   0  0  0  0  0  0  0  0  0  0  0  0
   -6.9141    6.6216   28.1324 O   0  0  0  0  0  0  0  0  0  0  0  0
   -3.9575    1.1733   28.5716 C   0  0  0  0  0  0  0  0  0  0  0  0
   -3.0703    0.2327   28.2261 N   0  0  0  0  0  0  0  0  0  0  0  0
   -2.4068    0.2491   26.9633 C   0  0  0  0  0  0  0  0  0  0  0  0
   -2.6285   -0.7924   29.0719 C   0  0  1  0  0  0  0  0  0  0  0  0
   -1.6751   -1.6206   28.7213 C   0  0  0  0  0  0  0  0  0  0  0  0
   -1.5674   -0.7313   26.5292 C   0  0  0  0  0  0  0  0  0  0  0  0
   -1.1236   -1.6378   27.4599 C   0  0  0  0  0  0  0  0  0  0  0  0
   -3.1025   -0.7369   30.3635 N   0  0  0  0  0  0  0  0  0  0  0  0
   -3.6421    0.0220   31.0952 C   0  0  0  0  0  0  0  0  0  0  0  0
   -3.9497   -0.3036   32.5147 C   0  0  0  0  0  0  0  0  0  0  0  0
   -3.4221   -1.5941   32.7338 C   0  0  0  0  0  0  0  0  0  0  0  0
   -2.8139   -2.0796   31.1609 C   0  0  0  0  0  0  0  0  0  0  0  0
   -4.3886   -2.6601   33.1232 C   0  0  1  0  0  0  0  0  0  0  0  0
   -4.3645   -2.9552   34.3641 C   0  0  0  0  0  0  0  0  0  0  0  0
   -3.5017   -2.4238   35.3160 C   0  0  0  0  0  0  0  0  0  0  0  0
   -3.5139   -2.6571   36.7391 C   0  0  0  0  0  0  0  0  0  0  0  0
   -4.5386   -3.5081   37.1894 C   0  0  0  0  0  0  0  0  0  0  0  0
   -5.4691   -4.0192   36.3637 C   0  0  0  0  0  0  0  0  0  0  0  0
   -5.4355   -3.7120   35.0269 C   0  0  0  0  0  0  0  0  0  0  0  0
   -5.2349   -3.1621   32.2026 C   0  0  0  0  0  0  0  0  0  0  0  0
   -5.0025   -4.2928   31.4661 C   0  0  0  0  0  0  0  0  0  0  0  0
   -5.9549   -4.7741   30.5729 C   0  0  0  0  0  0  0  0  0  0  0  0
  3  4  1  0
  2  5  1  0
  4 14  1  0
  4 15  2  0
  7 16  1  0
 16 17  1  0
 17 18  1  0
 17 19  1  0
 20 22  1  0
 21 22  1  0
 19 23  1  1
 23 24  1  0
 24 25  2  0
 25 26  1  0
 23 27  1  0
 26 27  2  0
 28 26  1  1
 28 29  1  0
 28 35  1  0
 35 36  2  3
 36 37  1  0
 18 21  1  0
 20 19  1  0
 29 30  2  0
 30 31  1  0
 31 32  2  0
 32 33  1  0
 33 34  2  0
 34 29  1  0
  5  6  2  0
  6  7  1  0
  7  8  2  0
  8 10  1  0
 10  9  2  0
  9  5  1  0
  1  2  2  0
  2 11  1  0
 11 12  2  0
 12 13  1  0
 13  3  2  0
  3  1  1  0
M  END
$$$$
