No_4245-complexes_sdf/6BKW-FPZ/2024-09-17-14-21-01/
     RDKit          3D

 38 42  0  0  0  0  0  0  0  0999 V2000
   -7.7129    4.2099   27.0854 C   0  0  0  0  0  0  0  0  0  0  0  0
   -8.2112    3.0637   26.9225 C   0  0  0  0  0  0  0  0  0  0  0  0
   -9.4446    2.8304   26.1868 C   0  0  0  0  0  0  0  0  0  0  0  0
   -6.6388    4.5347   28.1122 C   0  0  0  0  0  0  0  0  0  0  0  0
   -9.9448    3.9173   25.5585 C   0  0  0  0  0  0  0  0  0  0  0  0
   -9.3660    5.1901   25.7094 C   0  0  0  0  0  0  0  0  0  0  0  0
   -8.3659    5.4005   26.5436 C   0  0  0  0  0  0  0  0  0  0  0  0
  -11.1201    3.7822   24.6455 C   0  0  0  0  0  0  0  0  0  0  0  0
  -11.2357    2.7445   23.8393 C   0  0  0  0  0  0  0  0  0  0  0  0
  -12.3713    2.6596   22.9484 C   0  0  0  0  0  0  0  0  0  0  0  0
  -13.2631    3.7560   22.9179 C   0  0  0  0  0  0  0  0  0  0  0  0
  -13.0916    4.8123   23.7614 C   0  0  0  0  0  0  0  0  0  0  0  0
  -12.0465    4.8998   24.6369 C   0  0  0  0  0  0  0  0  0  0  0  0
   -6.6784    5.6664   28.7013 N   0  0  0  0  0  0  0  0  0  0  0  0
   -5.5522    3.7726   27.9808 N   0  0  0  0  0  0  0  0  0  0  0  0
  -14.5664    3.5051   21.8521 Cl  0  0  0  0  0  0  0  0  0  0  0  0
   -7.6678    1.9415   27.4753 O   0  0  0  0  0  0  0  0  0  0  0  0
   -8.2346    0.7432   27.5453 C   0  0  0  0  0  0  0  0  0  0  0  0
   -7.2542   -0.3195   27.5386 C   0  0  0  0  0  0  0  0  0  0  0  0
   -7.7897   -1.6311   27.6361 C   0  0  0  0  0  0  0  0  0  0  0  0
   -9.2009   -1.7924   27.7078 C   0  0  0  0  0  0  0  0  0  0  0  0
  -10.0617   -0.7164   27.6820 C   0  0  0  0  0  0  0  0  0  0  0  0
   -9.5183    0.5648   27.6322 C   0  0  0  0  0  0  0  0  0  0  0  0
  -11.4549   -1.1400   27.7755 C   0  0  0  0  0  0  0  0  0  0  0  0
  -12.3895   -0.2848   27.7842 N   0  0  0  0  0  0  0  0  0  0  0  0
  -12.3773    0.8444   27.9867 C   0  0  0  0  0  0  0  0  0  0  0  0
  -12.9176    1.4215   29.1774 C   0  0  0  0  0  0  0  0  0  0  0  0
  -12.7562    2.8564   29.4789 C   0  0  0  0  0  0  0  0  0  0  0  0
  -12.0806    3.6912   28.5547 C   0  0  0  0  0  0  0  0  0  0  0  0
  -11.6916    3.1981   27.3772 C   0  0  0  0  0  0  0  0  0  0  0  0
  -11.7931    1.8370   27.0886 C   0  0  0  0  0  0  0  0  0  0  0  0
  -13.7439   -0.9292   27.6278 C   0  0  0  0  0  0  0  0  0  0  0  0
  -11.6322   -2.3973   27.6113 O   0  0  0  0  0  0  0  0  0  0  0  0
  -14.7527   -0.0761   27.1037 C   0  0  0  0  0  0  0  0  0  0  0  0
  -15.9403   -0.5603   26.8564 C   0  0  0  0  0  0  0  0  0  0  0  0
  -16.1935   -1.9035   27.1854 C   0  0  0  0  0  0  0  0  0  0  0  0
  -15.2480   -2.6941   27.7502 C   0  0  0  0  0  0  0  0  0  0  0  0
  -14.0007   -2.1854   27.9848 C   0  0  0  0  0  0  0  0  0  0  0  0
  1  4  1  0
  5  8  1  0
  4 14  1  0
  4 15  2  0
 11 16  1  0
  2 17  1  0
 17 18  1  0
 22 24  1  0
 24 25  1  0
 25 26  1  0
 25 32  1  0
 24 33  2  0
 18 19  2  0
 19 20  1  0
 20 21  2  0
 21 22  1  0
 22 23  2  0
 23 18  1  0
  1  2  2  0
  2  3  1  0
  3  5  2  0
  5  6  1  0
  6  7  2  0
  7  1  1  0
 32 34  2  0
 34 35  1  0
 35 36  2  0
 36 37  1  0
 37 38  2  0
 38 32  1  0
 26 27  2  0
 27 28  1  0
 28 29  2  0
 29 30  1  0
 30 31  2  0
 31 26  1  0
  8  9  2  0
  9 10  1  0
 10 11  2  0
 11 12  1  0
 12 13  2  0
 13  8  1  0
M  END
$$$$
