No_4429-complexes_sdf/6BKW-FPZ/2024-09-17-14-21-01/
     RDKit          3D

 15 15  0  0  0  0  0  0  0  0999 V2000
   -7.9040    3.9820   27.1177 C   0  0  0  0  0  0  0  0  0  0  0  0
   -8.2057    2.8231   26.8733 C   0  0  0  0  0  0  0  0  0  0  0  0
   -7.4766    1.7477   27.4593 C   0  0  0  0  0  0  0  0  0  0  0  0
   -8.7468    5.1251   26.6967 C   0  0  0  0  0  0  0  0  0  0  0  0
   -8.4775    6.4967   27.1056 C   0  0  0  0  0  0  0  0  0  0  0  0
   -6.1172    2.0790   27.8378 C   0  0  0  0  0  0  0  0  0  0  0  0
   -5.7594    3.4209   27.9937 C   0  0  0  0  0  0  0  0  0  0  0  0
   -6.5892    4.3873   27.6368 C   0  0  0  0  0  0  0  0  0  0  0  0
   -9.6936    4.9253   25.6664 C   0  0  0  0  0  0  0  0  0  0  0  0
   -5.2457    0.9763   28.2975 C   0  0  1  0  0  0  0  0  0  0  0  0
   -4.0738    1.2073   28.8045 N   0  0  0  0  0  0  0  0  0  0  0  0
   -5.8103   -0.1812   28.3612 F   0  0  0  0  0  0  0  0  0  0  0  0
   -9.2356    4.0854   24.9047 F   0  0  0  0  0  0  0  0  0  0  0  0
  -10.8375    4.4046   26.2690 F   0  0  0  0  0  0  0  0  0  0  0  0
   -9.8782    6.0673   25.0145 F   0  0  0  0  0  0  0  0  0  0  0  0
  1  4  1  0
  4  5  2  0
  4  9  1  0
  6 10  1  0
 10 11  1  1
 10 12  1  0
  9 13  1  0
  9 14  1  0
  9 15  1  0
  1  2  2  0
  2  3  1  0
  3  6  2  0
  6  7  1  0
  7  8  2  0
  8  1  1  0
M  END
$$$$
