No_4824-complexes_sdf/6BKW-FPZ/2024-09-17-14-21-01/
     RDKit          3D

 14 15  0  0  0  0  0  0  0  0999 V2000
   -7.7129    4.2099   27.0854 C   0  0  0  0  0  0  0  0  0  0  0  0
   -7.7814    5.1722   27.8972 C   0  0  0  0  0  0  0  0  0  0  0  0
   -8.8255    3.2789   27.1191 C   0  0  0  0  0  0  0  0  0  0  0  0
   -9.9209    3.4734   27.9101 C   0  0  0  0  0  0  0  0  0  0  0  0
   -9.9736    4.7085   28.6831 C   0  0  0  0  0  0  0  0  0  0  0  0
   -8.8840    5.5441   28.6612 C   0  0  0  0  0  0  0  0  0  0  0  0
   -8.9096    1.9830   26.4133 C   0  0  0  0  0  0  0  0  0  0  0  0
   -8.1683    0.8906   26.7877 C   0  0  0  0  0  0  0  0  0  0  0  0
   -8.1893   -0.3149   26.1133 C   0  0  0  0  0  0  0  0  0  0  0  0
   -9.5529    1.9482   25.1882 C   0  0  0  0  0  0  0  0  0  0  0  0
   -9.5567    0.7873   24.3984 C   0  0  0  0  0  0  0  0  0  0  0  0
   -8.8588   -0.3194   24.8700 C   0  0  0  0  0  0  0  0  0  0  0  0
  -10.3264    3.3439   24.5506 Cl  0  0  0  0  0  0  0  0  0  0  0  0
   -7.5545   -1.3847   26.5091 F   0  0  0  0  0  0  0  0  0  0  0  0
  3  7  1  0
 10 13  1  0
  9 14  1  0
  1  2  2  0
  2  6  1  0
  6  5  2  0
  5  4  1  0
  4  3  2  0
  3  1  1  0
  7  8  2  0
  8  9  1  0
  9 12  2  0
 12 11  1  0
 11 10  2  0
 10  7  1  0
M  END
$$$$
