No_4559-complexes_sdf/6BKW-FPZ/2024-09-17-14-21-01/
     RDKit          3D

 24 26  0  0  0  0  0  0  0  0999 V2000
   -7.7129    4.2099   27.0854 C   0  0  0  0  0  0  0  0  0  0  0  0
   -7.7814    5.1722   27.8972 C   0  0  0  0  0  0  0  0  0  0  0  0
   -8.7889    3.2468   27.2220 C   0  0  0  0  0  0  0  0  0  0  0  0
   -8.5940    1.9755   26.6525 C   0  0  0  0  0  0  0  0  0  0  0  0
   -9.4990    1.3567   25.9025 C   0  0  0  0  0  0  0  0  0  0  0  0
   -9.2495    0.1572   25.3956 C   0  0  0  0  0  0  0  0  0  0  0  0
   -9.0099    5.7299   28.3922 C   0  0  0  0  0  0  0  0  0  0  0  0
   -9.8386    3.6896   27.9692 C   0  0  0  0  0  0  0  0  0  0  0  0
   -9.9919    4.8607   28.5425 C   0  0  0  0  0  0  0  0  0  0  0  0
   -7.3890    1.2684   26.9070 C   0  0  0  0  0  0  0  0  0  0  0  0
   -6.3447    1.7364   27.9191 C   0  0  0  0  0  0  0  0  0  0  0  0
   -7.2943   -0.0285   26.3107 C   0  0  0  0  0  0  0  0  0  0  0  0
   -8.1586   -0.5471   25.5952 C   0  0  0  0  0  0  0  0  0  0  0  0
   -4.9956    1.3352   27.5746 C   0  0  0  0  0  0  0  0  0  0  0  0
   -4.1547    2.0579   28.1909 O   0  0  0  0  0  0  0  0  0  0  0  0
   -4.5918    0.5774   26.6686 O   0  0  0  0  0  0  0  0  0  0  0  0
  -11.0335    2.6655   28.0810 C   0  0  0  0  0  0  0  0  0  0  0  0
  -12.1811    3.2022   28.7322 C   0  0  0  0  0  0  0  0  0  0  0  0
  -12.9197    4.1206   28.1211 C   0  0  0  0  0  0  0  0  0  0  0  0
  -14.0955    4.6799   28.7155 C   0  0  0  0  0  0  0  0  0  0  0  0
  -14.8076    5.6699   28.0303 C   0  0  0  0  0  0  0  0  0  0  0  0
  -15.1960    5.7345   27.0339 C   0  0  0  0  0  0  0  0  0  0  0  0
  -14.2149    4.9756   26.0249 C   0  0  0  0  0  0  0  0  0  0  0  0
  -13.1168    4.1402   26.5906 C   0  0  0  0  0  0  0  0  0  0  0  0
  3  4  1  0
 10 11  1  0
 11 14  1  0
 14 15  2  0
 14 16  1  0
  8 17  1  0
 17 18  1  0
 18 19  1  0
  1  2  2  0
  2  7  1  0
  7  9  2  0
  9  8  1  0
  8  3  2  0
  3  1  1  0
  4  5  2  0
  5  6  1  0
  6 13  2  0
 13 12  1  0
 12 10  2  0
 10  4  1  0
 19 20  2  0
 20 21  1  0
 21 22  2  0
 22 23  1  0
 23 24  2  0
 24 19  1  0
M  END
$$$$
