No_4933-complexes_sdf/6BKW-FPZ/2024-09-17-14-21-01/
     RDKit          3D

 18 18  0  0  0  0  0  0  0  0999 V2000
   -7.2496    3.8871   27.4508 C   0  0  0  0  0  0  0  0  0  0  0  0
   -8.5096    4.0291   27.2770 C   0  0  0  0  0  0  0  0  0  0  0  0
   -9.3451    2.8786   26.9046 C   0  0  0  0  0  0  0  0  0  0  0  0
   -6.6065    2.5680   27.5073 C   0  0  0  0  0  0  0  0  0  0  0  0
   -7.3970    1.4834   27.2271 C   0  0  0  0  0  0  0  0  0  0  0  0
   -8.7029    1.6398   26.9934 C   0  0  0  0  0  0  0  0  0  0  0  0
   -9.1106    5.3702   27.2076 C   0  0  0  0  0  0  0  0  0  0  0  0
   -8.2923    6.5067   27.0515 C   0  0  0  0  0  0  0  0  0  0  0  0
   -6.7529    0.1818   27.3050 C   0  0  0  0  0  0  0  0  0  0  0  0
   -5.5751    0.0729   27.8150 N   0  0  0  0  0  0  0  0  0  0  0  0
   -4.9791   -1.0094   28.2793 C   0  0  0  0  0  0  0  0  0  0  0  0
   -3.7658   -0.8406   28.9891 C   0  0  0  0  0  0  0  0  0  0  0  0
   -3.1835   -1.7658   29.7638 C   0  0  0  0  0  0  0  0  0  0  0  0
   -7.3190   -0.7820   26.8256 O   0  0  0  0  0  0  0  0  0  0  0  0
   -8.7045    7.7721   26.5488 C   0  0  0  0  0  0  0  0  0  0  0  0
   -1.9485   -1.7079   30.2471 C   0  0  0  0  0  0  0  0  0  0  0  0
   -1.5088   -2.5834   31.1588 C   0  0  0  0  0  0  0  0  0  0  0  0
   -2.2859   -3.6104   31.5806 C   0  0  0  0  0  0  0  0  0  0  0  0
  2  7  1  0
  7  8  1  0
  5  9  1  0
  9 10  1  0
 10 11  1  0
 11 12  2  3
 12 13  1  0
  9 14  2  0
  8 15  2  0
 13 16  2  3
 16 17  1  0
 17 18  2  0
  1  2  2  0
  2  3  1  0
  3  6  2  0
  6  5  1  0
  5  4  2  0
  4  1  1  0
M  END
$$$$
