No_4622-complexes_sdf/6BKW-FPZ/2024-09-17-14-21-01/
     RDKit          3D

 32 36  0  0  0  0  0  0  0  0999 V2000
   -7.9040    3.9820   27.1177 C   0  0  0  0  0  0  0  0  0  0  0  0
   -8.2057    2.8231   26.8733 C   0  0  2  0  0  0  0  0  0  0  0  0
   -7.0130    4.3706   28.1140 C   0  0  0  0  0  0  0  0  0  0  0  0
   -9.3829    2.4374   26.1668 C   0  0  0  0  0  0  0  0  0  0  0  0
  -10.0975    3.4171   25.5988 C   0  0  1  0  0  0  0  0  0  0  0  0
   -9.7335    4.7745   25.7705 C   0  0  0  0  0  0  0  0  0  0  0  0
   -8.7317    5.1107   26.5933 C   0  0  0  0  0  0  0  0  0  0  0  0
   -8.4060    6.4842   26.8915 C   0  0  0  0  0  0  0  0  0  0  0  0
   -7.3130    6.8159   27.6705 C   0  0  0  0  0  0  0  0  0  0  0  0
   -6.7663    5.7960   28.3758 C   0  0  0  0  0  0  0  0  0  0  0  0
  -11.1995    3.0953   24.6618 C   0  0  0  0  0  0  0  0  0  0  0  0
  -10.9004    2.9298   23.4363 C   0  0  0  0  0  0  0  0  0  0  0  0
  -11.7670    3.0568   22.4038 C   0  0  0  0  0  0  0  0  0  0  0  0
  -12.4998    2.7289   24.8683 C   0  0  0  0  0  0  0  0  0  0  0  0
  -13.5384    2.8113   24.0214 C   0  0  0  0  0  0  0  0  0  0  0  0
  -11.3069    3.0458   20.9584 C   0  0  0  0  0  0  0  0  0  0  0  0
  -13.1378    2.9052   22.6284 C   0  0  0  0  0  0  0  0  0  0  0  0
   -9.9861    3.0582   20.7191 C   0  0  0  0  0  0  0  0  0  0  0  0
   -7.4164    1.6331   27.4547 C   0  0  0  0  0  0  0  0  0  0  0  0
   -6.0233    1.7404   27.5839 C   0  0  0  0  0  0  0  0  0  0  0  0
   -5.1359    2.5488   27.3891 C   0  0  0  0  0  0  0  0  0  0  0  0
   -5.4992    0.3024   28.0488 C   0  0  0  0  0  0  0  0  0  0  0  0
   -6.0853   -0.7680   27.9875 C   0  0  0  0  0  0  0  0  0  0  0  0
   -4.1190    0.3961   28.6397 C   0  0  0  0  0  0  0  0  0  0  0  0
   -3.6766   -0.7523   29.2660 C   0  0  0  0  0  0  0  0  0  0  0  0
   -5.5988   -1.9461   28.6073 C   0  0  0  0  0  0  0  0  0  0  0  0
   -4.3177   -1.9177   29.2198 C   0  0  0  0  0  0  0  0  0  0  0  0
  -12.2336    3.0557   19.9131 C   0  0  0  0  0  0  0  0  0  0  0  0
  -11.7431    3.0209   18.5676 C   0  0  0  0  0  0  0  0  0  0  0  0
   -9.4695    3.2915   19.3936 C   0  0  0  0  0  0  0  0  0  0  0  0
  -10.3930    3.2703   18.3189 C   0  0  0  0  0  0  0  0  0  0  0  0
   -9.6604    1.2034   25.8716 O   0  0  0  0  0  0  0  0  0  0  0  0
  1  2  1  0
  2  4  1  0
  4  5  1  0
  5  6  1  0
  6  7  1  0
  5 11  1  6
 13 16  1  0
  2 19  1  1
 19 20  2  3
 20 21  1  0
 20 22  1  0
  4 32  2  0
 11 12  2  0
 12 13  1  0
 13 17  2  0
 17 15  1  0
 15 14  2  0
 14 11  1  0
 16 18  2  0
 18 30  1  0
 30 31  2  0
 31 29  1  0
 29 28  2  0
 28 16  1  0
  1  3  2  0
  3 10  1  0
 10  9  2  0
  9  8  1  0
  8  7  2  0
  7  1  1  0
 22 23  2  0
 23 26  1  0
 26 27  2  0
 27 25  1  0
 25 24  2  0
 24 22  1  0
M  END
$$$$
