No_4406-complexes_sdf/6BKW-FPZ/2024-09-17-14-21-01/
     RDKit          3D

 19 21  0  0  0  0  0  0  0  0999 V2000
   -7.9040    3.9820   27.1177 C   0  0  0  0  0  0  0  0  0  0  0  0
   -7.8663    4.8694   27.9238 C   0  0  0  0  0  0  0  0  0  0  0  0
   -7.4698    2.6989   27.4277 C   0  0  0  0  0  0  0  0  0  0  0  0
   -7.9683    1.5964   26.8266 C   0  0  1  0  0  0  0  0  0  0  0  0
   -8.9447    1.7923   25.8533 C   0  0  0  0  0  0  0  0  0  0  0  0
   -9.4364    2.8303   25.8181 C   0  0  0  0  0  0  0  0  0  0  0  0
   -8.9859    4.0656   26.3129 C   0  0  0  0  0  0  0  0  0  0  0  0
   -8.2451    6.2252   27.6266 N   0  0  0  0  0  0  0  0  0  0  0  0
   -9.2178    6.5582   26.7614 C   0  0  0  0  0  0  0  0  0  0  0  0
   -9.6343    5.3411   26.0065 C   0  0  0  0  0  0  0  0  0  0  0  0
   -7.2901    0.2602   27.0601 C   0  0  0  0  0  0  0  0  0  0  0  0
   -8.0167   -0.8152   27.2168 C   0  0  0  0  0  0  0  0  0  0  0  0
   -7.5030   -1.8943   27.8466 C   0  0  0  0  0  0  0  0  0  0  0  0
   -5.9104    0.1974   27.2610 C   0  0  0  0  0  0  0  0  0  0  0  0
   -5.2885   -0.8416   27.8944 C   0  0  0  0  0  0  0  0  0  0  0  0
   -6.1329   -1.9645   28.1615 C   0  0  0  0  0  0  0  0  0  0  0  0
   -3.8558   -0.8686   28.2091 C   0  0  0  0  0  0  0  0  0  0  0  0
   -3.1322   -0.0563   27.5474 C   0  0  0  0  0  0  0  0  0  0  0  0
   -3.5436    0.9958   26.7015 C   0  0  0  0  0  0  0  0  0  0  0  0
  1  3  1  0
  3  4  1  0
  4  5  1  0
  5  6  1  0
  6  7  1  0
  4 11  1  6
 15 17  1  0
 17 18  2  3
 18 19  1  0
  1  2  2  0
  2  8  1  0
  8  9  2  0
  9 10  1  0
 10  7  2  0
  7  1  1  0
 11 12  2  0
 12 13  1  0
 13 16  2  0
 16 15  1  0
 15 14  2  0
 14 11  1  0
M  END
$$$$
