No_4136-complexes_sdf/6BKW-FPZ/2024-09-17-14-21-01/
     RDKit          3D

 14 15  0  0  0  0  0  0  0  0999 V2000
   -7.9040    3.9820   27.1177 C   0  0  0  0  0  0  0  0  0  0  0  0
   -9.0711    4.3164   27.0630 C   0  0  0  0  0  0  0  0  0  0  0  0
   -9.5182    5.5541   27.5777 C   0  0  0  0  0  0  0  0  0  0  0  0
   -7.4468    2.6843   26.6499 C   0  0  0  0  0  0  0  0  0  0  0  0
   -8.3379    1.7605   26.6739 C   0  0  0  0  0  0  0  0  0  0  0  0
   -9.6979    2.0614   26.6619 C   0  0  0  0  0  0  0  0  0  0  0  0
  -10.0499    3.3289   26.9290 C   0  0  0  0  0  0  0  0  0  0  0  0
   -7.6943    0.4097   26.2616 C   0  0  0  0  0  0  0  0  0  0  0  0
   -6.8269   -0.0765   27.0321 N   0  0  0  0  0  0  0  0  0  0  0  0
   -5.8760   -0.8329   26.6600 C   0  0  0  0  0  0  0  0  0  0  0  0
   -4.6517   -0.8619   27.4387 C   0  0  0  0  0  0  0  0  0  0  0  0
   -4.5711   -0.0541   28.4762 C   0  0  0  0  0  0  0  0  0  0  0  0
   -5.5312    0.9667   28.7960 C   0  0  0  0  0  0  0  0  0  0  0  0
   -6.9535   -0.0982   28.5426 C   0  0  0  0  0  0  0  0  0  0  0  0
  2  3  1  0
  5  8  1  0
  8  9  1  0
  9 10  1  0
 10 11  1  0
 12 13  1  0
  9 14  1  0
 13 14  1  0
 11 12  1  0
  1  2  2  0
  2  7  1  0
  7  6  2  0
  6  5  1  0
  5  4  2  0
  4  1  1  0
M  END
$$$$
