No_4129-complexes_sdf/6BKW-FPZ/2024-09-17-14-21-01/
     RDKit          3D

 23 24  0  0  0  0  0  0  0  0999 V2000
   -7.9040    3.9820   27.1177 C   0  0  0  0  0  0  0  0  0  0  0  0
   -8.2057    2.8231   26.8733 C   0  0  0  0  0  0  0  0  0  0  0  0
   -8.7695    5.0740   26.7916 C   0  0  0  0  0  0  0  0  0  0  0  0
   -9.9618    4.7598   26.1630 C   0  0  0  0  0  0  0  0  0  0  0  0
   -9.4200    2.4524   26.2849 C   0  0  0  0  0  0  0  0  0  0  0  0
  -10.2590    3.4815   25.9250 C   0  0  0  0  0  0  0  0  0  0  0  0
   -8.3840    6.4693   27.0829 C   0  0  0  0  0  0  0  0  0  0  0  0
   -8.7958    7.4358   26.4217 N   0  0  0  0  0  0  0  0  0  0  0  0
   -7.2644    6.5586   27.9481 N   0  0  0  0  0  0  0  0  0  0  0  0
   -7.2946    1.6500   27.2699 C   0  0  0  0  0  0  0  0  0  0  0  0
   -7.6187    0.3293   27.1064 C   0  0  0  0  0  0  0  0  0  0  0  0
   -6.6588   -0.5970   27.3276 C   0  0  0  0  0  0  0  0  0  0  0  0
   -6.0298    1.8902   27.7418 C   0  0  0  0  0  0  0  0  0  0  0  0
   -5.0943    0.9813   28.1031 C   0  0  0  0  0  0  0  0  0  0  0  0
   -5.3879   -0.2935   27.9142 C   0  0  0  0  0  0  0  0  0  0  0  0
   -4.4479   -1.3535   28.2753 C   0  0  0  0  0  0  0  0  0  0  0  0
   -4.0163   -1.6056   29.2822 C   0  0  0  0  0  0  0  0  0  0  0  0
   -4.4612   -0.8194   30.4628 C   0  0  0  0  0  0  0  0  0  0  0  0
   -3.9003   -0.9967   31.8012 C   0  0  0  0  0  0  0  0  0  0  0  0
   -4.2641   -0.1434   32.8184 C   0  0  0  0  0  0  0  0  0  0  0  0
   -3.7557   -0.4647   34.0885 C   0  0  0  0  0  0  0  0  0  0  0  0
   -2.6702   -1.3917   34.2387 C   0  0  0  0  0  0  0  0  0  0  0  0
   -2.2301   -2.0616   33.1355 C   0  0  0  0  0  0  0  0  0  0  0  0
  3  7  1  0
  7  8  1  0
  7  9  2  0
  2 10  1  0
 15 16  1  0
 16 17  1  0
 17 18  2  3
 18 19  1  0
 19 20  2  3
 20 21  1  0
 21 22  2  3
 22 23  1  0
  1  2  2  0
  2  5  1  0
  5  6  2  0
  6  4  1  0
  4  3  2  0
  3  1  1  0
 10 11  2  0
 11 12  1  0
 12 15  2  0
 15 14  1  0
 14 13  2  0
 13 10  1  0
M  END
$$$$
