No_4302-complexes_sdf/6BKW-FPZ/2024-09-17-14-21-01/
     RDKit          3D

 16 17  0  0  0  0  0  0  0  0999 V2000
   -7.9040    3.9820   27.1177 C   0  0  0  0  0  0  0  0  0  0  0  0
   -7.8663    4.8694   27.9238 C   0  0  0  0  0  0  0  0  0  0  0  0
   -9.0491    3.8523   26.2542 C   0  0  0  0  0  0  0  0  0  0  0  0
   -9.7161    4.8785   25.9890 C   0  0  0  0  0  0  0  0  0  0  0  0
   -8.5086    6.0982   27.7096 C   0  0  0  0  0  0  0  0  0  0  0  0
   -9.5239    6.1123   26.7949 C   0  0  0  0  0  0  0  0  0  0  0  0
   -7.1422    2.6522   27.4171 C   0  0  0  0  0  0  0  0  0  0  0  0
   -7.4798    1.4694   26.8888 N   0  0  0  0  0  0  0  0  0  0  0  0
   -8.5738    1.2526   26.2825 C   0  0  0  0  0  0  0  0  0  0  0  0
   -9.3782    2.5035   25.7032 C   0  0  0  0  0  0  0  0  0  0  0  0
   -6.7040    0.3254   27.3229 C   0  0  0  0  0  0  0  0  0  0  0  0
   -5.9342   -0.1994   26.4547 C   0  0  0  0  0  0  0  0  0  0  0  0
   -6.2026   -1.0578   25.5738 C   0  0  0  0  0  0  0  0  0  0  0  0
   -7.4041   -1.5164   25.5319 C   0  0  0  0  0  0  0  0  0  0  0  0
   -8.3133   -1.1497   24.5342 C   0  0  0  0  0  0  0  0  0  0  0  0
   -7.8038   -0.6510   23.4665 C   0  0  0  0  0  0  0  0  0  0  0  0
  1  7  1  0
  7  8  1  0
  8  9  1  0
  3 10  1  0
  9 10  1  0
  8 11  1  0
 11 12  2  3
 12 13  1  0
 13 14  1  0
 14 15  1  0
 15 16  3  0
  1  2  2  0
  2  5  1  0
  5  6  2  0
  6  4  1  0
  4  3  2  0
  3  1  1  0
M  END
$$$$
