No_4822-complexes_sdf/6BKW-FPZ/2024-09-17-14-21-01/
     RDKit          3D

 23 26  0  0  0  0  0  0  0  0999 V2000
   -7.9040    3.9820   27.1177 C   0  0  0  0  0  0  0  0  0  0  0  0
   -8.2057    2.8231   26.8733 C   0  0  0  0  0  0  0  0  0  0  0  0
   -8.7463    4.9537   27.6708 C   0  0  0  0  0  0  0  0  0  0  0  0
   -8.3921    6.3606   27.8466 C   0  0  0  0  0  0  0  0  0  0  0  0
   -9.5482    2.3521   27.1946 C   0  0  0  0  0  0  0  0  0  0  0  0
  -10.4264    3.2507   27.7616 C   0  0  0  0  0  0  0  0  0  0  0  0
  -10.0702    4.5620   28.0189 C   0  0  0  0  0  0  0  0  0  0  0  0
   -7.1574    6.7870   27.1658 C   0  0  0  0  0  0  0  0  0  0  0  0
   -9.8758    0.9086   27.0465 C   0  0  0  0  0  0  0  0  0  0  0  0
   -8.9408    0.0427   27.0159 C   0  0  0  0  0  0  0  0  0  0  0  0
   -9.2545   -1.3744   26.8831 C   0  0  0  0  0  0  0  0  0  0  0  0
   -8.2510   -2.3320   26.8058 C   0  0  0  0  0  0  0  0  0  0  0  0
   -6.9068   -1.8967   26.8301 C   0  0  0  0  0  0  0  0  0  0  0  0
   -6.5469   -0.5750   26.8625 C   0  0  0  0  0  0  0  0  0  0  0  0
   -7.5661    0.4015   27.0008 C   0  0  0  0  0  0  0  0  0  0  0  0
   -7.1881    1.8363   27.0099 C   0  0  0  0  0  0  0  0  0  0  0  0
  -11.8142    2.8368   28.1863 C   0  0  0  0  0  0  0  0  0  0  0  0
  -12.0246    1.9138   28.8787 C   0  0  0  0  0  0  0  0  0  0  0  0
  -13.2655    1.5377   29.2508 C   0  0  0  0  0  0  0  0  0  0  0  0
  -14.3062    2.3654   28.9890 C   0  0  0  0  0  0  0  0  0  0  0  0
  -12.9777    3.7020   28.0191 C   0  0  0  0  0  0  0  0  0  0  0  0
  -14.1561    3.5322   28.3503 C   0  0  0  0  0  0  0  0  0  0  0  0
   -7.4892    8.1548   26.6358 C   0  0  0  0  0  0  0  0  0  0  0  0
  3  4  1  0
  4  8  1  0
  6 17  1  0
  8 23  1  0
  5  9  1  0
  9 10  2  0
 15 16  2  0
 16  2  1  0
  1  2  2  0
  2  5  1  0
  5  6  2  0
  6  7  1  0
  7  3  2  0
  3  1  1  0
 10 11  1  0
 11 12  2  0
 12 13  1  0
 13 14  2  0
 14 15  1  0
 15 10  1  0
 17 18  2  0
 18 19  1  0
 19 20  2  0
 20 22  1  0
 22 21  2  0
 21 17  1  0
M  END
$$$$
