No_4590-complexes_sdf/6BKW-FPZ/2024-09-17-14-21-01/
     RDKit          3D

 13 13  0  0  0  0  0  0  0  0999 V2000
   -7.2496    3.8871   27.4508 C   0  0  0  0  0  0  0  0  0  0  0  0
   -8.5096    4.0291   27.2770 C   0  0  0  0  0  0  0  0  0  0  0  0
   -9.3451    2.8786   26.9046 C   0  0  0  0  0  0  0  0  0  0  0  0
   -6.6065    2.5680   27.5073 C   0  0  0  0  0  0  0  0  0  0  0  0
   -7.3970    1.4834   27.2271 C   0  0  0  0  0  0  0  0  0  0  0  0
   -8.7029    1.6398   26.9934 C   0  0  0  0  0  0  0  0  0  0  0  0
   -9.2821    5.2641   27.2540 C   0  0  0  0  0  0  0  0  0  0  0  0
   -8.4794    6.4538   27.1376 C   0  0  0  0  0  0  0  0  0  0  0  0
   -7.1626    6.4800   26.9804 C   0  0  0  0  0  0  0  0  0  0  0  0
   -6.9143    0.1272   27.2697 C   0  0  0  0  0  0  0  0  0  0  0  0
   -5.5940   -0.0271   27.7155 C   0  0  0  0  0  0  0  0  0  0  0  0
   -5.0399   -1.3167   27.7908 C   0  0  0  0  0  0  0  0  0  0  0  0
   -5.7430   -2.3200   27.2600 C   0  0  0  0  0  0  0  0  0  0  0  0
  2  7  1  0
  7  8  2  3
  8  9  1  0
  5 10  1  0
 10 11  2  3
 11 12  1  0
 12 13  2  0
  1  2  2  0
  2  3  1  0
  3  6  2  0
  6  5  1  0
  5  4  2  0
  4  1  1  0
M  END
$$$$
