No_4108-complexes_sdf/6BKW-FPZ/2024-09-17-14-21-01/
     RDKit          3D

 40 45  0  0  0  0  0  0  0  0999 V2000
   -7.7129    4.2099   27.0854 C   0  0  0  0  0  0  0  0  0  0  0  0
   -8.2112    3.0637   26.9225 C   0  0  0  0  0  0  0  0  0  0  0  0
   -9.4446    2.8304   26.1868 C   0  0  0  0  0  0  0  0  0  0  0  0
   -8.4697    5.3956   26.7238 C   0  0  0  0  0  0  0  0  0  0  0  0
   -9.6172    5.2111   25.9513 C   0  0  0  0  0  0  0  0  0  0  0  0
  -10.0424    3.9782   25.6873 C   0  0  0  0  0  0  0  0  0  0  0  0
   -7.8256    6.9333   27.0525 Cl  0  0  0  0  0  0  0  0  0  0  0  0
   -7.4841    1.8412   27.3998 C   0  0  0  0  0  0  0  0  0  0  0  0
   -6.1370    1.9033   27.7757 C   0  0  0  0  0  0  0  0  0  0  0  0
   -5.4253    0.7516   28.1980 C   0  0  0  0  0  0  0  0  0  0  0  0
   -6.0821   -0.4571   28.1348 C   0  0  0  0  0  0  0  0  0  0  0  0
   -8.0186    0.5423   27.3469 C   0  0  0  0  0  0  0  0  0  0  0  0
   -7.4061   -0.5205   27.7723 C   0  0  0  0  0  0  0  0  0  0  0  0
   -3.7901    0.9411   28.6981 Cl  0  0  0  0  0  0  0  0  0  0  0  0
  -11.2438    3.8451   24.8450 C   0  0  0  0  0  0  0  0  0  0  0  0
  -11.1917    4.0104   23.4698 C   0  0  0  0  0  0  0  0  0  0  0  0
  -12.2793    4.1735   22.6859 C   0  0  0  0  0  0  0  0  0  0  0  0
  -13.5731    4.0865   23.3275 C   0  0  0  0  0  0  0  0  0  0  0  0
  -13.6456    3.9505   24.7040 C   0  0  0  0  0  0  0  0  0  0  0  0
  -12.4950    3.9375   25.5061 C   0  0  0  0  0  0  0  0  0  0  0  0
  -12.6353    3.8760   26.9571 C   0  0  0  0  0  0  0  0  0  0  0  0
  -13.7226    4.2252   27.6635 C   0  0  0  0  0  0  0  0  0  0  0  0
  -14.8483    4.7439   26.9806 C   0  0  0  0  0  0  0  0  0  0  0  0
  -14.8381    4.5959   25.5042 C   0  0  0  0  0  0  0  0  0  0  0  0
  -13.7552    4.2334   29.1167 C   0  0  0  0  0  0  0  0  0  0  0  0
  -13.9726    2.9482   29.7341 C   0  0  0  0  0  0  0  0  0  0  0  0
  -13.9029    2.9171   31.1218 C   0  0  0  0  0  0  0  0  0  0  0  0
  -13.2456    2.0420   31.7257 C   0  0  0  0  0  0  0  0  0  0  0  0
  -13.3076    2.0549   33.1844 C   0  0  0  0  0  0  0  0  0  0  0  0
  -13.7305    3.1716   33.9097 C   0  0  0  0  0  0  0  0  0  0  0  0
  -14.3513    4.0564   31.9518 C   0  0  0  0  0  0  0  0  0  0  0  0
  -14.2967    4.1519   33.2296 C   0  0  0  0  0  0  0  0  0  0  0  0
  -14.2229    1.8627   29.0179 C   0  0  0  0  0  0  0  0  0  0  0  0
  -15.4141    1.1759   29.1598 C   0  0  0  0  0  0  0  0  0  0  0  0
  -15.6394    0.0082   28.4340 C   0  0  0  0  0  0  0  0  0  0  0  0
  -14.7370   -0.3427   27.4621 C   0  0  0  0  0  0  0  0  0  0  0  0
  -13.5623    0.3537   27.2376 C   0  0  0  0  0  0  0  0  0  0  0  0
  -13.2782    1.4394   28.0622 C   0  0  0  0  0  0  0  0  0  0  0  0
  -13.5545    3.1148   35.4142 C   0  0  0  0  0  0  0  0  0  0  0  0
  -13.3694    2.1332   35.8783 F   0  0  0  0  0  0  0  0  0  0  0  0
  4  7  1  0
  2  8  1  0
 10 14  1  0
  6 15  1  0
 22 25  1  0
 25 26  1  0
 26 27  1  0
 26 33  1  0
 30 39  1  0
 39 40  1  0
 15 16  2  0
 16 17  1  0
 17 18  2  0
 18 19  1  0
 20 15  1  0
  1  2  2  0
  2  3  1  0
  3  6  2  0
  6  5  1  0
  5  4  2  0
  4  1  1  0
 33 34  2  0
 34 35  1  0
 35 36  2  0
 36 37  1  0
 37 38  2  0
 38 33  1  0
 19 20  2  0
 20 21  1  0
 21 22  2  0
 22 23  1  0
 23 24  2  0
 24 19  1  0
 27 28  2  0
 28 29  1  0
 29 30  2  0
 30 32  1  0
 32 31  2  0
 31 27  1  0
  8  9  2  0
  9 10  1  0
 10 11  2  0
 11 13  1  0
 13 12  2  0
 12  8  1  0
M  END
$$$$
