No_4399-complexes_sdf/6BKW-FPZ/2024-09-17-14-21-01/
     RDKit          3D

 20 22  0  0  0  0  0  0  0  0999 V2000
   -7.7129    4.2099   27.0854 C   0  0  0  0  0  0  0  0  0  0  0  0
   -7.7814    5.1722   27.8972 C   0  0  0  0  0  0  0  0  0  0  0  0
   -8.7889    3.2468   27.2220 C   0  0  2  0  0  0  0  0  0  0  0  0
   -9.8671    3.4455   28.0317 C   0  0  0  0  0  0  0  0  0  0  0  0
   -8.9592    5.6476   28.6200 C   0  0  0  0  0  0  0  0  0  0  0  0
   -9.9658    4.7049   28.7257 C   0  0  0  0  0  0  0  0  0  0  0  0
   -8.6796    1.9137   26.5491 C   0  0  0  0  0  0  0  0  0  0  0  0
   -8.3410    1.7813   25.5062 C   0  0  0  0  0  0  0  0  0  0  0  0
   -8.6347    0.5743   24.7831 C   0  0  0  0  0  0  0  0  0  0  0  0
   -9.0033   -0.5273   25.3483 C   0  0  0  0  0  0  0  0  0  0  0  0
   -9.1695    0.7464   27.2960 C   0  0  0  0  0  0  0  0  0  0  0  0
   -9.3237   -0.4059   26.7520 C   0  0  0  0  0  0  0  0  0  0  0  0
   -9.8151   -1.5733   27.5132 C   0  0  0  0  0  0  0  0  0  0  0  0
  -10.9843   -1.4181   28.1729 C   0  0  0  0  0  0  0  0  0  0  0  0
  -11.3605   -2.2846   29.1737 C   0  0  0  0  0  0  0  0  0  0  0  0
  -10.5774   -3.4134   29.3841 C   0  0  0  0  0  0  0  0  0  0  0  0
   -8.9207   -2.6119   27.9006 C   0  0  0  0  0  0  0  0  0  0  0  0
   -9.3525   -3.5357   28.8281 C   0  0  0  0  0  0  0  0  0  0  0  0
  -11.1545   -4.5498   30.5675 Cl  0  0  0  0  0  0  0  0  0  0  0  0
  -10.7539    2.5792   28.1616 O   0  0  0  0  0  0  0  0  0  0  0  0
  1  2  1  0
  3  4  1  0
  4  6  1  0
  5  6  1  0
  3  7  1  1
 12 13  1  0
 16 19  1  0
  4 20  2  0
  3  1  1  0
  2  5  1  0
  7  8  2  0
  8  9  1  0
  9 10  2  0
 10 12  1  0
 12 11  2  0
 11  7  1  0
 13 14  2  0
 14 15  1  0
 15 16  2  0
 16 18  1  0
 18 17  2  0
 17 13  1  0
M  END
$$$$
