No_409-complexes_sdf/6BKW-FPZ/2024-09-17-14-21-01/
     RDKit          3D

 20 23  0  0  0  0  0  0  0  0999 V2000
   -7.7129    4.2099   27.0854 C   0  0  0  0  0  0  0  0  0  0  0  0
   -8.2112    3.0637   26.9225 C   0  0  0  0  0  0  0  0  0  0  0  0
   -7.5138    1.9223   27.4249 C   0  0  2  0  0  0  0  0  0  0  0  0
   -8.5309    5.4147   26.8151 C   0  0  0  0  0  0  0  0  0  0  0  0
   -9.6817    5.2393   26.1100 C   0  0  0  0  0  0  0  0  0  0  0  0
  -10.1032    3.9957   25.8534 C   0  0  0  0  0  0  0  0  0  0  0  0
   -9.4035    2.8430   26.2573 C   0  0  0  0  0  0  0  0  0  0  0  0
   -6.2445    2.0060   27.8662 N   0  0  0  0  0  0  0  0  0  0  0  0
   -5.5344    0.8568   28.2200 C   0  0  0  0  0  0  0  0  0  0  0  0
   -6.1293   -0.3305   28.0871 C   0  0  0  0  0  0  0  0  0  0  0  0
   -7.7818    0.5223   27.2997 N   0  0  0  0  0  0  0  0  0  0  0  0
   -9.2161    0.4620   26.8807 C   0  0  0  0  0  0  0  0  0  0  0  0
   -7.3233   -0.4862   27.6862 C   0  0  0  0  0  0  0  0  0  0  0  0
   -9.8447    1.5982   26.2034 C   0  0  0  0  0  0  0  0  0  0  0  0
   -4.2038    1.1425   28.6830 N   0  0  0  0  0  0  0  0  0  0  0  0
   -7.9635    6.7786   27.0785 C   0  0  0  0  0  0  0  0  0  0  0  0
   -8.6424    8.2037   26.6021 Cl  0  0  0  0  0  0  0  0  0  0  0  0
   -3.4284    0.0924   29.1350 C   0  0  0  0  0  0  0  0  0  0  0  0
   -3.9172   -1.1831   29.1201 C   0  0  0  0  0  0  0  0  0  0  0  0
   -5.1715   -1.4348   28.6505 C   0  0  0  0  0  0  0  0  0  0  0  0
  2  3  1  0
  3  8  1  6
  3 11  1  0
 11 12  1  0
 11 13  1  0
  7 14  1  0
  4 16  1  0
 16 17  1  0
 14 12  1  0
  8  9  1  0
 10 13  1  0
  9 10  2  0
 10 20  1  0
 20 19  2  0
 19 18  1  0
 18 15  2  0
 15  9  1  0
  1  2  2  0
  2  7  1  0
  7  6  2  0
  6  5  1  0
  5  4  2  0
  4  1  1  0
M  END
$$$$
