No_4229-complexes_sdf/6BKW-FPZ/2024-09-17-14-21-01/
     RDKit          3D

 27 30  0  0  0  0  0  0  0  0999 V2000
   -7.2496    3.8871   27.4508 C   0  0  0  0  0  0  0  0  0  0  0  0
   -7.6161    2.7143   27.1523 C   0  0  0  0  0  0  0  0  0  0  0  0
   -7.1618    1.8631   27.5232 C   0  0  0  0  0  0  0  0  0  0  0  0
   -8.0036    5.1085   27.2100 C   0  0  0  0  0  0  0  0  0  0  0  0
   -7.6739    6.3858   27.8565 C   0  0  0  0  0  0  0  0  0  0  0  0
   -9.1135    5.0563   26.3498 C   0  0  0  0  0  0  0  0  0  0  0  0
   -9.5157    3.8889   25.7424 C   0  0  0  0  0  0  0  0  0  0  0  0
   -8.8251    2.6683   26.2318 C   0  0  0  0  0  0  0  0  0  0  0  0
   -7.5479    0.4368   27.2149 C   0  0  0  0  0  0  0  0  0  0  0  0
   -6.7891   -0.6684   27.6573 C   0  0  0  0  0  0  0  0  0  0  0  0
   -5.6498   -0.4083   28.3923 C   0  0  0  0  0  0  0  0  0  0  0  0
   -5.1115    0.8621   28.5747 C   0  0  0  0  0  0  0  0  0  0  0  0
   -5.7467    1.8845   28.1482 C   0  0  0  0  0  0  0  0  0  0  0  0
   -4.8966   -1.6317   28.9168 C   0  0  0  0  0  0  0  0  0  0  0  0
   -5.2378   -2.6155   28.8733 C   0  0  0  0  0  0  0  0  0  0  0  0
   -4.6032   -3.7559   29.4771 C   0  0  0  0  0  0  0  0  0  0  0  0
   -3.3751   -3.5197   30.1283 C   0  0  0  0  0  0  0  0  0  0  0  0
   -3.6314   -1.2036   29.6770 C   0  0  0  0  0  0  0  0  0  0  0  0
   -2.9049   -2.2138   30.2486 C   0  0  0  0  0  0  0  0  0  0  0  0
  -10.5598    3.8325   24.8240 C   0  0  0  0  0  0  0  0  0  0  0  0
  -10.9323    2.9093   24.0590 C   0  0  0  0  0  0  0  0  0  0  0  0
  -11.7889    3.0239   23.0210 C   0  0  0  0  0  0  0  0  0  0  0  0
  -12.4602    4.2830   22.8415 C   0  0  0  0  0  0  0  0  0  0  0  0
  -12.0959    5.3203   23.7262 C   0  0  0  0  0  0  0  0  0  0  0  0
  -10.8552    5.2468   24.6584 C   0  0  0  0  0  0  0  0  0  0  0  0
   -8.2875    7.5363   27.2566 C   0  0  0  0  0  0  0  0  0  0  0  0
   -3.1126    0.1796   29.8112 C   0  0  0  0  0  0  0  0  0  0  0  0
 11 14  1  0
  7 20  1  0
  5 26  1  0
 18 27  1  0
  5  4  1  0
  2  3  1  0
  1  2  2  0
  2  8  1  0
  8  7  2  0
  7  6  1  0
  6  4  2  0
  4  1  1  0
  3  9  2  0
  9 10  1  0
 10 11  2  0
 11 12  1  0
 12 13  2  0
 13  3  1  0
 14 15  2  0
 15 16  1  0
 16 17  2  0
 17 19  1  0
 19 18  2  0
 18 14  1  0
 20 21  2  0
 21 22  1  0
 22 23  2  0
 23 24  1  0
 24 25  2  0
 25 20  1  0
M  END
$$$$
