No_4741-complexes_sdf/6BKW-FPZ/2024-09-17-14-21-01/
     RDKit          3D

 30 34  0  0  0  0  0  0  0  0999 V2000
   -7.9040    3.9820   27.1177 C   0  0  0  0  0  0  0  0  0  0  0  0
   -8.2057    2.8231   26.8733 C   0  0  0  0  0  0  0  0  0  0  0  0
   -9.2962    2.4021   26.1155 C   0  0  0  0  0  0  0  0  0  0  0  0
   -6.8682    4.5169   28.0704 C   0  0  0  0  0  0  0  0  0  0  0  0
  -10.0578    3.3688   25.5520 C   0  0  0  0  0  0  0  0  0  0  0  0
   -9.6997    4.7480   25.6981 C   0  0  0  0  0  0  0  0  0  0  0  0
   -8.6783    5.1111   26.5262 C   0  0  0  0  0  0  0  0  0  0  0  0
   -8.4112    6.4758   26.8405 C   0  0  0  0  0  0  0  0  0  0  0  0
   -9.2517    7.5619   26.5689 C   0  0  0  0  0  0  0  0  0  0  0  0
   -7.2351    6.6711   27.7724 C   0  0  0  0  0  0  0  0  0  0  0  0
   -6.6508    5.7547   28.3076 N   0  0  0  0  0  0  0  0  0  0  0  0
   -7.2479    1.4726   27.5878 Cl  0  0  0  0  0  0  0  0  0  0  0  0
  -10.9308    3.2533   24.4597 C   0  0  2  0  0  0  0  0  0  0  0  0
  -10.6953    2.3544   23.5041 C   0  0  0  0  0  0  0  0  0  0  0  0
  -10.3895    1.1540   23.7263 C   0  0  0  0  0  0  0  0  0  0  0  0
  -10.0505    0.2028   22.6330 C   0  0  0  0  0  0  0  0  0  0  0  0
  -10.1986    0.7161   21.3378 C   0  0  0  0  0  0  0  0  0  0  0  0
  -10.7358    2.6348   22.0435 C   0  0  0  0  0  0  0  0  0  0  0  0
  -11.1489    4.0739   21.7586 C   0  0  0  0  0  0  0  0  0  0  0  0
  -10.4770    1.8518   21.0244 C   0  0  0  0  0  0  0  0  0  0  0  0
  -11.2150    4.5808   23.7510 C   0  0  2  0  0  0  0  0  0  0  0  0
  -11.4153    5.0239   22.6366 C   0  0  0  0  0  0  0  0  0  0  0  0
  -12.2824    2.7576   25.1448 C   0  0  0  0  0  0  0  0  0  0  0  0
  -12.2380    2.1957   26.3187 C   0  0  0  0  0  0  0  0  0  0  0  0
  -13.4427    1.6609   26.9319 C   0  0  0  0  0  0  0  0  0  0  0  0
  -13.5295    2.9365   24.5057 C   0  0  0  0  0  0  0  0  0  0  0  0
  -14.6863    2.4282   25.0324 C   0  0  0  0  0  0  0  0  0  0  0  0
  -14.6346    1.8554   26.2748 C   0  0  0  0  0  0  0  0  0  0  0  0
  -10.4408    5.4288   24.5623 F   0  0  0  0  0  0  0  0  0  0  0  0
  -11.0403    5.2429   26.1575 F   0  0  0  0  0  0  0  0  0  0  0  0
  8  9  1  0
  2 12  1  0
 13  5  1  1
 13 14  1  0
 18 19  1  0
 13 21  1  0
 21 22  1  0
 13 23  1  0
 21 29  1  6
  6 30  1  0
 19 22  1  0
  1  2  2  0
  2  3  1  0
  3  5  2  0
  5  6  1  0
  6  7  2  0
  1  4  1  0
  4 11  2  0
 11 10  1  0
 10  8  2  0
  8  7  1  0
  7  1  1  0
 23 24  2  0
 24 25  1  0
 25 28  2  0
 28 27  1  0
 27 26  2  0
 26 23  1  0
 14 15  2  0
 15 16  1  0
 16 17  2  0
 17 20  1  0
 20 18  2  0
 18 14  1  0
M  END
$$$$
