No_468-complexes_sdf/6BKW-FPZ/2024-09-17-14-21-01/
     RDKit          3D

 13 14  0  0  0  0  0  0  0  0999 V2000
   -7.9040    3.9820   27.1177 C   0  0  0  0  0  0  0  0  0  0  0  0
   -9.0711    4.3164   27.0630 C   0  0  0  0  0  0  0  0  0  0  0  0
   -9.5182    5.5541   27.5777 C   0  0  0  0  0  0  0  0  0  0  0  0
   -6.9424    4.7983   27.8424 C   0  0  0  0  0  0  0  0  0  0  0  0
   -7.3526    5.9739   28.3909 C   0  0  0  0  0  0  0  0  0  0  0  0
   -8.6479    6.3742   28.2169 C   0  0  0  0  0  0  0  0  0  0  0  0
  -10.2021    3.5782   26.4472 C   0  0  0  0  0  0  0  0  0  0  0  0
   -9.8538    2.3906   25.9970 C   0  0  0  0  0  0  0  0  0  0  0  0
  -10.6862    1.3692   25.5943 C   0  0  0  0  0  0  0  0  0  0  0  0
  -10.2429    0.1173   25.1807 C   0  0  0  0  0  0  0  0  0  0  0  0
   -8.8464   -0.1121   25.1245 C   0  0  0  0  0  0  0  0  0  0  0  0
   -7.9614    0.8403   25.4297 C   0  0  0  0  0  0  0  0  0  0  0  0
   -8.3451    2.0758   25.9002 C   0  0  0  0  0  0  0  0  0  0  0  0
  2  7  1  0
  7  8  1  0
  1  2  2  0
  2  3  1  0
  3  6  2  0
  6  5  1  0
  5  4  2  0
  4  1  1  0
  8  9  2  0
  9 10  1  0
 10 11  2  0
 11 12  1  0
 12 13  2  0
 13  8  1  0
M  END
$$$$
