No_4722-complexes_sdf/6BKW-FPZ/2024-09-17-14-21-01/
     RDKit          3D

 37 43  0  0  0  0  0  0  0  0999 V2000
   -7.9040    3.9820   27.1177 C   0  0  0  0  0  0  0  0  0  0  0  0
   -8.2057    2.8231   26.8733 C   0  0  0  0  0  0  0  0  0  0  0  0
   -7.0130    4.3706   28.1140 C   0  0  0  0  0  0  0  0  0  0  0  0
   -9.3829    2.4374   26.1668 C   0  0  0  0  0  0  0  0  0  0  0  0
  -10.0975    3.4171   25.5988 C   0  0  0  0  0  0  0  0  0  0  0  0
  -11.1831    3.1293   24.7524 C   0  0  0  0  0  0  0  0  0  0  0  0
   -8.7536    5.0749   26.6443 C   0  0  0  0  0  0  0  0  0  0  0  0
   -9.8126    4.7831   25.8201 C   0  0  0  0  0  0  0  0  0  0  0  0
  -11.2478    3.6170   23.5787 N   0  0  0  0  0  0  0  0  0  0  0  0
  -12.2303    3.5500   22.6725 C   0  0  1  0  0  0  0  0  0  0  0  0
  -12.5223    3.4354   25.3637 C   0  0  0  0  0  0  0  0  0  0  0  0
   -6.9891    5.5768   28.6320 N   0  0  0  0  0  0  0  0  0  0  0  0
   -8.4929    6.3881   27.0713 C   0  0  0  0  0  0  0  0  0  0  0  0
   -9.0772    7.5589   26.6070 N   0  0  0  0  0  0  0  0  0  0  0  0
   -7.5198    6.5900   28.1220 C   0  0  0  0  0  0  0  0  0  0  0  0
   -7.3909    1.6085   27.4045 C   0  0  0  0  0  0  0  0  0  0  0  0
   -7.7349    0.2879   27.1788 C   0  0  0  0  0  0  0  0  0  0  0  0
   -8.9407    0.0352   26.7028 C   0  0  0  0  0  0  0  0  0  0  0  0
   -9.7510    1.0845   26.0178 C   0  0  0  0  0  0  0  0  0  0  0  0
   -6.9489   -0.7327   27.8526 C   0  0  0  0  0  0  0  0  0  0  0  0
   -6.0959   -1.2041   27.2847 C   0  0  0  0  0  0  0  0  0  0  0  0
   -5.1489   -2.2153   27.9227 C   0  0  0  0  0  0  0  0  0  0  0  0
   -3.9669   -2.5864   27.2776 C   0  0  0  0  0  0  0  0  0  0  0  0
   -3.6946   -2.0791   25.9688 C   0  0  0  0  0  0  0  0  0  0  0  0
   -4.4324   -1.1742   25.5149 C   0  0  0  0  0  0  0  0  0  0  0  0
   -5.5659   -0.6255   26.0554 C   0  0  0  0  0  0  0  0  0  0  0  0
  -13.6514    3.1569   24.6197 C   0  0  0  0  0  0  0  0  0  0  0  0
  -14.9416    3.2781   25.2423 C   0  0  0  0  0  0  0  0  0  0  0  0
  -13.4528    2.3362   23.5071 C   0  0  0  0  0  0  0  0  0  0  0  0
  -15.1040    4.0349   26.3196 C   0  0  0  0  0  0  0  0  0  0  0  0
  -13.9441    4.3224   27.1473 C   0  0  0  0  0  0  0  0  0  0  0  0
  -12.7174    4.1080   26.7111 C   0  0  0  0  0  0  0  0  0  0  0  0
   -9.9508    3.3397   22.6630 C   0  0  0  0  0  0  0  0  0  0  0  0
  -13.0064    4.7849   22.5343 C   0  0  0  0  0  0  0  0  0  0  0  0
  -12.0412    2.8356   21.3386 C   0  0  0  0  0  0  0  0  0  0  0  0
  -12.8191    2.6098   20.5224 C   0  0  0  0  0  0  0  0  0  0  0  0
  -10.5843    2.4910   21.4102 C   0  0  0  0  0  0  0  0  0  0  0  0
  1  2  1  0
  4  5  1  0
  5  6  2  3
  5  8  1  0
  7  8  1  0
  6  9  1  0
  9 10  1  0
  6 11  1  0
 13 14  1  0
 17 20  1  0
 10 29  1  0
 27 29  1  0
  9 33  1  0
 10 34  1  6
 10 35  1  0
 35 36  1  0
 33 37  1  0
 35 37  1  0
 20 21  1  0
 11 27  1  0
 27 28  2  0
 28 30  1  0
 30 31  2  0
 31 32  1  0
 32 11  2  0
  1  3  2  0
  3 12  1  0
 12 15  2  0
 15 13  1  0
 13  7  2  0
  7  1  1  0
  2  4  2  0
  4 19  1  0
 19 18  2  0
 18 17  1  0
 17 16  2  0
 16  2  1  0
 21 22  2  0
 22 23  1  0
 23 24  2  0
 24 25  1  0
 25 26  2  0
 26 21  1  0
M  END
$$$$
