No_4441-complexes_sdf/6BKW-FPZ/2024-09-17-14-21-01/
     RDKit          3D

 12 12  0  0  0  0  0  0  0  0999 V2000
   -7.2496    3.8871   27.4508 C   0  0  0  0  0  0  0  0  0  0  0  0
   -8.5096    4.0291   27.2770 C   0  0  0  0  0  0  0  0  0  0  0  0
   -9.2677    5.1714   27.5773 C   0  0  0  0  0  0  0  0  0  0  0  0
   -9.2765    2.8248   26.8371 C   0  0  0  0  0  0  0  0  0  0  0  0
   -8.6731    1.7312   26.5464 C   0  0  0  0  0  0  0  0  0  0  0  0
   -6.5216    2.6580   27.4010 C   0  0  0  0  0  0  0  0  0  0  0  0
   -7.2494    1.5864   26.9125 C   0  0  0  0  0  0  0  0  0  0  0  0
   -8.5606    6.4190   27.5911 C   0  0  0  0  0  0  0  0  0  0  0  0
  -10.6469    5.1207   27.8905 C   0  0  0  0  0  0  0  0  0  0  0  0
   -6.6033    0.4114   26.6819 N   0  0  0  0  0  0  0  0  0  0  0  0
   -6.7444   -0.6844   27.4498 C   0  0  0  0  0  0  0  0  0  0  0  0
   -5.9025   -1.7795   27.2458 C   0  0  0  0  0  0  0  0  0  0  0  0
  2  3  1  0
  3  8  2  0
  3  9  1  0
  7 10  1  0
 10 11  1  0
 11 12  2  0
  1  2  2  0
  2  4  1  0
  4  5  2  0
  5  7  1  0
  7  6  2  0
  6  1  1  0
M  END
$$$$
