No_4922-complexes_sdf/6BKW-FPZ/2024-09-17-14-21-01/
     RDKit          3D

 31 34  0  0  0  0  0  0  0  0999 V2000
   -7.9040    3.9820   27.1177 C   0  0  0  0  0  0  0  0  0  0  0  0
   -8.2057    2.8231   26.8733 C   0  0  0  0  0  0  0  0  0  0  0  0
   -7.0130    4.3706   28.1140 C   0  0  0  0  0  0  0  0  0  0  0  0
   -7.4093    1.7370   27.3857 C   0  0  0  0  0  0  0  0  0  0  0  0
   -6.1943    2.1490   28.0403 C   0  0  0  0  0  0  0  0  0  0  0  0
   -5.9708    3.4680   28.3199 C   0  0  0  0  0  0  0  0  0  0  0  0
   -8.9987    4.9232   26.6648 C   0  0  1  0  0  0  0  0  0  0  0  0
   -9.1409    6.1773   27.3541 C   0  0  0  0  0  0  0  0  0  0  0  0
   -9.5693    4.7605   25.3920 C   0  0  0  0  0  0  0  0  0  0  0  0
   -5.3298    0.9717   28.2980 C   0  0  0  0  0  0  0  0  0  0  0  0
   -4.5336    0.5082   27.5787 C   0  0  0  0  0  0  0  0  0  0  0  0
   -3.5453   -0.5093   27.9497 C   0  0  0  0  0  0  0  0  0  0  0  0
   -3.4910   -0.9683   29.2506 C   0  0  0  0  0  0  0  0  0  0  0  0
   -4.3954   -0.3857   30.1612 C   0  0  0  0  0  0  0  0  0  0  0  0
   -5.2598    0.6289   29.7264 C   0  0  0  0  0  0  0  0  0  0  0  0
   -4.3793   -0.7664   31.5911 C   0  0  0  0  0  0  0  0  0  0  0  0
   -4.3096   -0.1035   32.4843 C   0  0  0  0  0  0  0  0  0  0  0  0
   -4.5776   -2.2191   31.6748 C   0  0  0  0  0  0  0  0  0  0  0  0
   -4.3470   -0.5712   33.8522 C   0  0  0  0  0  0  0  0  0  0  0  0
   -4.6307   -2.7582   33.0059 C   0  0  0  0  0  0  0  0  0  0  0  0
   -4.5302   -1.8948   34.1394 C   0  0  0  0  0  0  0  0  0  0  0  0
  -10.6529    3.9053   25.2212 C   0  0  0  0  0  0  0  0  0  0  0  0
  -11.2292    3.8103   23.9158 C   0  0  0  0  0  0  0  0  0  0  0  0
  -12.3765    3.0436   23.6757 C   0  0  0  0  0  0  0  0  0  0  0  0
  -12.9396    2.3903   24.7724 C   0  0  0  0  0  0  0  0  0  0  0  0
  -12.4470    2.5107   26.0251 C   0  0  0  0  0  0  0  0  0  0  0  0
  -11.3432    3.3153   26.3132 C   0  0  0  0  0  0  0  0  0  0  0  0
   -2.5541   -1.0044   26.9367 C   0  0  0  0  0  0  0  0  0  0  0  0
   -2.9887   -1.0253   25.8075 O   0  0  0  0  0  0  0  0  0  0  0  0
   -1.4350   -1.4090   27.2895 O   0  0  0  0  0  0  0  0  0  0  0  0
   -4.4783   -2.5492   35.2946 F   0  0  0  0  0  0  0  0  0  0  0  0
  1  7  1  0
  7  8  1  6
  7  9  1  0
  5 10  1  0
 14 16  1  0
 12 28  1  0
 28 29  2  0
 28 30  1  0
 21 31  1  0
  9 22  1  0
  1  2  2  0
  2  4  1  0
  4  5  2  0
  5  6  1  0
  6  3  2  0
  3  1  1  0
 22 23  2  0
 23 24  1  0
 24 25  2  0
 25 26  1  0
 26 27  2  0
 27 22  1  0
 10 11  2  0
 11 12  1  0
 12 13  2  0
 13 14  1  0
 14 15  2  0
 15 10  1  0
 16 17  2  0
 17 19  1  0
 19 21  2  0
 21 20  1  0
 20 18  2  0
 18 16  1  0
M  END
$$$$
