No_4033-complexes_sdf/6BKW-FPZ/2024-09-17-14-21-01/
     RDKit          3D

 22 25  0  0  0  0  0  0  0  0999 V2000
   -7.9040    3.9820   27.1177 C   0  0  0  0  0  0  0  0  0  0  0  0
   -8.2057    2.8231   26.8733 C   0  0  0  0  0  0  0  0  0  0  0  0
   -7.0130    4.3706   28.1140 C   0  0  0  0  0  0  0  0  0  0  0  0
   -7.4093    1.7370   27.3857 C   0  0  0  0  0  0  0  0  0  0  0  0
   -6.1712    2.1248   28.0064 C   0  0  0  0  0  0  0  0  0  0  0  0
   -5.9967    3.4283   28.2944 N   0  0  0  0  0  0  0  0  0  0  0  0
   -8.8842    5.1070   26.7371 C   0  0  0  0  0  0  0  0  0  0  0  0
   -9.5696    4.9731   25.5033 C   0  0  0  0  0  0  0  0  0  0  0  0
   -9.7505    3.6888   24.9496 C   0  0  0  0  0  0  0  0  0  0  0  0
   -9.0810    2.4869   25.7127 C   0  0  0  0  0  0  0  0  0  0  0  0
   -5.1952    1.1552   28.4041 C   0  0  0  0  0  0  0  0  0  0  0  0
   -3.8326    1.4875   28.6130 C   0  0  0  0  0  0  0  0  0  0  0  0
   -2.9634    0.4553   28.9890 C   0  0  0  0  0  0  0  0  0  0  0  0
   -5.5911   -0.1907   28.6176 C   0  0  0  0  0  0  0  0  0  0  0  0
   -4.7170   -1.1392   29.0453 C   0  0  0  0  0  0  0  0  0  0  0  0
   -3.4006   -0.8238   29.2237 C   0  0  0  0  0  0  0  0  0  0  0  0
  -10.5717    3.4469   23.8754 C   0  0  0  0  0  0  0  0  0  0  0  0
  -10.8240    4.4262   22.9674 C   0  0  0  0  0  0  0  0  0  0  0  0
  -10.9893    2.1720   23.5019 C   0  0  0  0  0  0  0  0  0  0  0  0
  -11.5121    4.3142   21.7947 C   0  0  0  0  0  0  0  0  0  0  0  0
  -11.7111    1.9623   22.3117 C   0  0  0  0  0  0  0  0  0  0  0  0
  -11.9782    3.0647   21.4580 C   0  0  0  0  0  0  0  0  0  0  0  0
  5 11  1  0
  9 17  1  0
  2  4  1  0
  4  5  2  0
  5  6  1  0
  6  3  2  0
  3  1  1  0
  1  2  2  0
  2 10  1  0
 10  9  2  0
  9  8  1  0
  8  7  2  0
  7  1  1  0
 17 18  2  0
 18 20  1  0
 20 22  2  0
 22 21  1  0
 21 19  2  0
 19 17  1  0
 11 12  2  0
 12 13  1  0
 13 16  2  0
 16 15  1  0
 15 14  2  0
 14 11  1  0
M  END
$$$$
