No_485-complexes_sdf/6BKW-FPZ/2024-09-17-14-21-01/
     RDKit          3D

 15 16  0  0  0  0  0  0  0  0999 V2000
   -7.9040    3.9820   27.1177 C   0  0  0  0  0  0  0  0  0  0  0  0
   -8.2057    2.8231   26.8733 C   0  0  0  0  0  0  0  0  0  0  0  0
   -8.7695    5.0740   26.7916 C   0  0  0  0  0  0  0  0  0  0  0  0
   -9.9618    4.7598   26.1630 C   0  0  0  0  0  0  0  0  0  0  0  0
   -9.4200    2.4524   26.2849 C   0  0  0  0  0  0  0  0  0  0  0  0
  -10.2590    3.4815   25.9250 C   0  0  0  0  0  0  0  0  0  0  0  0
   -8.6074    6.4894   27.1095 C   0  0  0  0  0  0  0  0  0  0  0  0
   -7.9194    7.5175   26.8830 N   0  0  0  0  0  0  0  0  0  0  0  0
   -7.3201    1.8004   27.2560 F   0  0  0  0  0  0  0  0  0  0  0  0
  -11.5275    3.1222   25.1925 C   0  0  0  0  0  0  0  0  0  0  0  0
  -12.6300    2.9053   25.8323 C   0  0  0  0  0  0  0  0  0  0  0  0
  -13.8427    2.7986   25.2529 C   0  0  0  0  0  0  0  0  0  0  0  0
  -11.5995    3.6954   23.9306 C   0  0  0  0  0  0  0  0  0  0  0  0
  -12.5009    3.4751   23.2628 C   0  0  0  0  0  0  0  0  0  0  0  0
  -13.8067    3.1590   23.8524 C   0  0  0  0  0  0  0  0  0  0  0  0
  3  7  1  0
  7  8  3  0
  2  9  1  0
  6 10  1  0
  1  2  2  0
  2  5  1  0
  5  6  2  0
  6  4  1  0
  4  3  2  0
  3  1  1  0
 10 11  2  0
 11 12  1  0
 12 15  2  0
 15 14  1  0
 14 13  2  0
 13 10  1  0
M  END
$$$$
