No_4331-complexes_sdf/6BKW-FPZ/2024-09-17-14-21-01/
     RDKit          3D

 40 44  0  0  0  0  0  0  0  0999 V2000
   -7.9040    3.9820   27.1177 C   0  0  0  0  0  0  0  0  0  0  0  0
   -7.8663    4.8694   27.9238 C   0  0  0  0  0  0  0  0  0  0  0  0
   -9.0501    3.8017   26.2617 C   0  0  0  0  0  0  0  0  0  0  0  0
  -10.0189    4.7608   26.3707 C   0  0  0  0  0  0  0  0  0  0  0  0
   -8.6973    5.9722   27.8968 C   0  0  0  0  0  0  0  0  0  0  0  0
   -9.8216    5.8946   27.1241 C   0  0  0  0  0  0  0  0  0  0  0  0
   -9.1437    2.6293   25.4175 C   0  0  0  0  0  0  0  0  0  0  0  0
   -9.9828    2.7153   24.2925 C   0  0  0  0  0  0  0  0  0  0  0  0
  -10.1268    1.6091   23.5189 C   0  0  0  0  0  0  0  0  0  0  0  0
   -9.3057    0.4350   23.7675 C   0  0  0  0  0  0  0  0  0  0  0  0
   -8.4257    1.4363   25.5742 C   0  0  0  0  0  0  0  0  0  0  0  0
   -8.4905    0.4049   24.8177 C   0  0  0  0  0  0  0  0  0  0  0  0
   -7.6791   -0.7870   25.0655 C   0  0  2  0  0  0  0  0  0  0  0  0
   -6.7772   -1.0916   24.3463 N   0  0  0  0  0  0  0  0  0  0  0  0
   -5.6428   -1.5082   24.6161 C   0  0  0  0  0  0  0  0  0  0  0  0
   -6.9805   -0.9797   22.8834 C   0  0  0  0  0  0  0  0  0  0  0  0
   -4.8868   -0.8053   25.6392 C   0  0  0  0  0  0  0  0  0  0  0  0
   -3.7531   -1.3890   26.3356 C   0  0  0  0  0  0  0  0  0  0  0  0
   -2.9438   -0.5384   26.9900 C   0  0  0  0  0  0  0  0  0  0  0  0
   -3.2672    0.8470   27.2640 C   0  0  0  0  0  0  0  0  0  0  0  0
   -4.5091    1.2940   26.8258 C   0  0  0  0  0  0  0  0  0  0  0  0
   -5.2006    0.5032   25.9597 C   0  0  0  0  0  0  0  0  0  0  0  0
   -4.8974   -2.3595   23.9315 O   0  0  0  0  0  0  0  0  0  0  0  0
   -8.6080   -1.9177   25.4736 C   0  0  0  0  0  0  0  0  0  0  0  0
   -9.3988   -1.9901   26.1503 C   0  0  0  0  0  0  0  0  0  0  0  0
  -10.2236   -3.1477   26.5057 C   0  0  0  0  0  0  0  0  0  0  0  0
   -9.9112   -4.2926   25.8446 C   0  0  0  0  0  0  0  0  0  0  0  0
   -8.8739   -4.3229   24.9317 C   0  0  0  0  0  0  0  0  0  0  0  0
   -8.1593   -3.1582   24.7353 C   0  0  0  0  0  0  0  0  0  0  0  0
   -1.6443   -1.0719   27.5801 C   0  0  0  0  0  0  0  0  0  0  0  0
   -1.6672   -1.9113   28.5188 N   0  0  0  0  0  0  0  0  0  0  0  0
   -0.7120   -2.5327   28.9620 C   0  0  0  0  0  0  0  0  0  0  0  0
   -2.6197   -1.6548   29.6133 C   0  0  0  0  0  0  0  0  0  0  0  0
   -2.8623   -2.5508   30.4514 C   0  0  2  0  0  0  0  0  0  0  0  0
   -0.5776   -3.1435   29.7595 C   0  0  0  0  0  0  0  0  0  0  0  0
   -3.9365   -2.4165   31.4297 C   0  0  0  0  0  0  0  0  0  0  0  0
   -1.6670   -3.2584   30.8102 C   0  0  0  0  0  0  0  0  0  0  0  0
   -5.0750   -1.8210   31.1012 C   0  0  0  0  0  0  0  0  0  0  0  0
   -6.2542   -1.7532   31.9473 C   0  0  0  0  0  0  0  0  0  0  0  0
   -6.1227   -2.1742   33.3078 C   0  0  0  0  0  0  0  0  0  0  0  0
  3  7  1  0
 12 13  1  0
 13 14  1  6
 14 15  1  0
 14 16  1  0
 15 17  1  0
 15 23  2  0
 13 24  1  0
 19 30  1  0
 30 31  1  0
 31 32  1  0
 31 33  1  0
 34 36  1  0
 34 37  1  1
 35 37  1  0
 36 38  2  3
 38 39  1  0
 39 40  2  0
 32 35  1  0
 34 33  1  0
 24 25  2  0
 25 26  1  0
 26 27  2  0
 27 28  1  0
 28 29  2  0
 29 24  1  0
 17 18  2  0
 18 19  1  0
 19 20  2  0
 20 21  1  0
 21 22  2  0
 22 17  1  0
  7  8  2  0
  8  9  1  0
  9 10  2  0
 10 12  1  0
 12 11  2  0
 11  7  1  0
  1  2  2  0
  2  5  1  0
  5  6  2  0
  6  4  1  0
  4  3  2  0
  3  1  1  0
M  END
$$$$
