No_4367-complexes_sdf/6BKW-FPZ/2024-09-17-14-21-01/
     RDKit          3D

 11 12  0  0  0  0  0  0  0  0999 V2000
   -7.2496    3.8871   27.4508 C   0  0  0  0  0  0  0  0  0  0  0  0
   -7.6161    2.7143   27.1523 C   0  0  0  0  0  0  0  0  0  0  0  0
   -8.8302    2.4659   26.5056 C   0  0  0  0  0  0  0  0  0  0  0  0
   -8.1584    5.0089   27.3234 C   0  0  0  0  0  0  0  0  0  0  0  0
   -9.3788    4.7965   26.7695 C   0  0  0  0  0  0  0  0  0  0  0  0
   -9.7028    3.5649   26.3276 C   0  0  0  0  0  0  0  0  0  0  0  0
   -6.9225    1.4464   27.3142 C   0  0  0  0  0  0  0  0  0  0  0  0
   -5.7798    1.5542   28.0134 O   0  0  0  0  0  0  0  0  0  0  0  0
   -7.1504    0.3055   26.6754 N   0  0  0  0  0  0  0  0  0  0  0  0
   -8.2824    0.0073   26.0089 C   0  0  0  0  0  0  0  0  0  0  0  0
   -9.2117    1.1948   25.9169 C   0  0  0  0  0  0  0  0  0  0  0  0
  2  7  1  0
  7  8  2  0
  7  9  1  0
  9 10  1  0
  3 11  1  0
 10 11  1  0
  1  2  2  0
  2  3  1  0
  3  6  2  0
  6  5  1  0
  5  4  2  0
  4  1  1  0
M  END
$$$$
