No_4072-complexes_sdf/6BKW-FPZ/2024-09-17-14-21-01/
     RDKit          3D

 34 36  0  0  0  0  0  0  0  0999 V2000
   -7.7129    4.2099   27.0854 C   0  0  0  0  0  0  0  0  0  0  0  0
   -8.2112    3.0637   26.9225 C   0  0  0  0  0  0  0  0  0  0  0  0
   -8.5108    5.3904   26.9436 C   0  0  0  0  0  0  0  0  0  0  0  0
   -9.7256    5.1955   26.3518 C   0  0  0  0  0  0  0  0  0  0  0  0
   -9.4995    2.8258   26.4878 C   0  0  0  0  0  0  0  0  0  0  0  0
  -10.2542    3.9691   26.2055 C   0  0  0  0  0  0  0  0  0  0  0  0
   -8.1149    6.7578   27.2504 C   0  0  0  0  0  0  0  0  0  0  0  0
   -7.3413    1.8390   27.2481 C   0  0  0  0  0  0  0  0  0  0  0  0
   -6.8700    1.0341   26.6500 C   0  0  0  0  0  0  0  0  0  0  0  0
   -6.0286   -0.0254   27.1861 C   0  0  0  0  0  0  0  0  0  0  0  0
   -5.0282    0.0345   27.3134 C   0  0  0  0  0  0  0  0  0  0  0  0
   -4.4131    1.4348   27.5605 C   0  0  0  0  0  0  0  0  0  0  0  0
   -5.1204    2.3998   28.0287 F   0  0  0  0  0  0  0  0  0  0  0  0
   -3.5784    2.0100   26.7727 F   0  0  0  0  0  0  0  0  0  0  0  0
   -8.8021    7.8286   26.8563 N   0  0  0  0  0  0  0  0  0  0  0  0
   -6.8576    6.9170   27.8109 N   0  0  0  0  0  0  0  0  0  0  0  0
   -3.8656   -0.8653   27.5482 C   0  0  0  0  0  0  0  0  0  0  0  0
   -3.6622   -1.6522   28.2031 C   0  0  0  0  0  0  0  0  0  0  0  0
   -2.5307   -2.6064   28.2506 C   0  0  0  0  0  0  0  0  0  0  0  0
   -1.6032   -2.5142   27.2488 C   0  0  0  0  0  0  0  0  0  0  0  0
   -2.7838   -0.7739   26.3771 C   0  0  0  0  0  0  0  0  0  0  0  0
   -1.7613   -1.5823   26.2904 C   0  0  0  0  0  0  0  0  0  0  0  0
  -11.5915    3.7928   25.5908 C   0  0  2  0  0  0  0  0  0  0  0  0
  -11.8144    3.9692   24.2709 C   0  0  0  0  0  0  0  0  0  0  0  0
  -10.7440    4.0169   23.3303 C   0  0  0  0  0  0  0  0  0  0  0  0
  -10.9613    4.2345   21.9668 C   0  0  0  0  0  0  0  0  0  0  0  0
  -12.2513    4.2831   21.5176 C   0  0  0  0  0  0  0  0  0  0  0  0
  -13.3417    4.1925   22.3724 C   0  0  0  0  0  0  0  0  0  0  0  0
  -13.1055    4.0854   23.7132 C   0  0  0  0  0  0  0  0  0  0  0  0
  -12.6825    3.5651   26.5312 C   0  0  0  0  0  0  0  0  0  0  0  0
  -13.3419    2.7273   26.8128 C   0  0  0  0  0  0  0  0  0  0  0  0
  -14.3968    2.7036   27.7692 C   0  0  0  0  0  0  0  0  0  0  0  0
  -14.5502    3.8538   28.5768 C   0  0  0  0  0  0  0  0  0  0  0  0
  -13.7835    4.9638   28.3385 C   0  0  0  0  0  0  0  0  0  0  0  0
  3  7  1  0
  2  8  1  0
  8  9  2  3
  9 10  1  0
 10 11  2  3
 11 12  1  0
 12 13  1  0
 12 14  1  0
  7 15  2  0
  7 16  1  0
 11 17  1  0
 23  6  1  1
 23 24  1  0
 23 30  1  0
 30 31  2  3
 31 32  1  0
 32 33  2  3
 33 34  1  0
 17 18  2  0
 18 19  1  0
 19 20  2  0
 20 22  1  0
 22 21  2  0
 21 17  1  0
 24 25  2  0
 25 26  1  0
 26 27  2  0
 27 28  1  0
 28 29  2  0
 29 24  1  0
  1  2  2  0
  2  5  1  0
  5  6  2  0
  6  4  1  0
  4  3  2  0
  3  1  1  0
M  END
$$$$
