No_4017-complexes_sdf/6BKW-FPZ/2024-09-17-14-21-01/
     RDKit          3D

 25 28  0  0  0  0  0  0  0  0999 V2000
   -7.2496    3.8871   27.4508 C   0  0  0  0  0  0  0  0  0  0  0  0
   -7.6161    2.7143   27.1523 C   0  0  0  0  0  0  0  0  0  0  0  0
   -6.9719    1.5838   27.5324 C   0  0  0  0  0  0  0  0  0  0  0  0
   -7.4590    0.2827   27.2615 C   0  0  0  0  0  0  0  0  0  0  0  0
   -8.8629    2.3938   26.5063 C   0  0  0  0  0  0  0  0  0  0  0  0
   -9.3223    1.1947   26.1623 C   0  0  0  0  0  0  0  0  0  0  0  0
   -8.5674    0.0945   26.6187 C   0  0  0  0  0  0  0  0  0  0  0  0
   -8.0621    5.0458   27.1866 C   0  0  0  0  0  0  0  0  0  0  0  0
   -9.2131    4.9547   26.3859 C   0  0  0  0  0  0  0  0  0  0  0  0
   -9.6635    3.6444   26.1149 C   0  0  0  0  0  0  0  0  0  0  0  0
   -7.5834    6.4087   27.5964 C   0  0  0  0  0  0  0  0  0  0  0  0
  -10.8581    3.5195   25.2798 C   0  0  0  0  0  0  0  0  0  0  0  0
  -12.0420    3.4164   25.8774 C   0  0  0  0  0  0  0  0  0  0  0  0
  -10.7820    3.4284   23.8929 C   0  0  0  0  0  0  0  0  0  0  0  0
  -11.6899    3.3441   23.0041 C   0  0  0  0  0  0  0  0  0  0  0  0
  -13.2067    3.3988   25.0399 C   0  0  0  0  0  0  0  0  0  0  0  0
  -13.0327    3.4379   23.6205 C   0  0  0  0  0  0  0  0  0  0  0  0
   -6.6333   -0.9033   27.7540 C   0  0  0  0  0  0  0  0  0  0  0  0
   -7.2007   -1.8977   28.3849 C   0  0  0  0  0  0  0  0  0  0  0  0
   -6.4858   -2.8063   29.0907 C   0  0  0  0  0  0  0  0  0  0  0  0
   -5.0814   -2.7146   29.0958 C   0  0  0  0  0  0  0  0  0  0  0  0
   -4.4313   -1.6713   28.4597 C   0  0  0  0  0  0  0  0  0  0  0  0
   -5.1856   -0.6694   27.9090 C   0  0  0  0  0  0  0  0  0  0  0  0
   -7.8227    7.4779   27.1389 N   0  0  0  0  0  0  0  0  0  0  0  0
   -6.7499    6.3207   28.6348 O   0  0  0  0  0  0  0  0  0  0  0  0
  8 11  1  0
 10 12  1  0
  4 18  1  0
 11 24  1  0
 11 25  2  0
 18 19  2  0
 19 20  1  0
 20 21  2  0
 21 22  1  0
 22 23  2  0
 23 18  1  0
 12 13  2  0
 13 16  1  0
 16 17  2  0
 17 15  1  0
 15 14  2  0
 14 12  1  0
  1  2  2  0
  5 10  2  0
 10  9  1  0
  9  8  2  0
  8  1  1  0
  2  3  1  0
  3  4  2  0
  4  7  1  0
  7  6  2  0
  6  5  1  0
  5  2  1  0
M  END
$$$$
