No_4172-complexes_sdf/6BKW-FPZ/2024-09-17-14-21-01/
     RDKit          3D

 19 20  0  0  0  0  0  0  0  0999 V2000
   -7.7129    4.2099   27.0854 C   0  0  0  0  0  0  0  0  0  0  0  0
   -8.9133    4.4736   27.0998 C   0  0  0  0  0  0  0  0  0  0  0  0
   -9.4643    5.5426   27.7628 C   0  0  0  0  0  0  0  0  0  0  0  0
   -6.8373    4.9942   27.9785 C   0  0  0  0  0  0  0  0  0  0  0  0
   -7.3717    6.0428   28.6744 C   0  0  0  0  0  0  0  0  0  0  0  0
   -8.6869    6.3937   28.5345 C   0  0  0  0  0  0  0  0  0  0  0  0
   -9.8029    3.6153   26.2122 C   0  0  0  0  0  0  0  0  0  0  0  0
   -9.9626    4.0202   24.8230 C   0  0  0  0  0  0  0  0  0  0  0  0
   -9.9858    5.2646   24.4725 C   0  0  0  0  0  0  0  0  0  0  0  0
  -10.3175    2.9758   23.8984 C   0  0  0  0  0  0  0  0  0  0  0  0
  -10.6163    3.2738   22.5686 C   0  0  0  0  0  0  0  0  0  0  0  0
  -10.6850    4.6868   22.2445 C   0  0  0  0  0  0  0  0  0  0  0  0
  -10.3353    5.6509   23.1547 C   0  0  0  0  0  0  0  0  0  0  0  0
  -10.3873    2.4870   26.7761 C   0  0  0  0  0  0  0  0  0  0  0  0
   -9.6179    1.3608   26.8408 C   0  0  0  0  0  0  0  0  0  0  0  0
  -10.0931    0.1676   27.4914 C   0  0  0  0  0  0  0  0  0  0  0  0
   -9.3337   -0.9978   27.6674 C   0  0  0  0  0  0  0  0  0  0  0  0
   -7.9785   -0.8994   27.2590 C   0  0  0  0  0  0  0  0  0  0  0  0
   -7.4535    0.2009   26.6830 C   0  0  0  0  0  0  0  0  0  0  0  0
  2  7  1  0
  7  8  1  0
  7 14  1  0
 14 15  2  3
 15 16  1  0
 16 17  2  3
 17 18  1  0
 18 19  2  0
  1  2  2  0
  2  3  1  0
  3  6  2  0
  6  5  1  0
  5  4  2  0
  4  1  1  0
  8  9  2  0
  9 13  1  0
 13 12  2  0
 12 11  1  0
 11 10  2  0
 10  8  1  0
M  END
$$$$
