No_4825-complexes_sdf/6BKW-FPZ/2024-09-17-14-21-01/
     RDKit          3D

 15 16  0  0  0  0  0  0  0  0999 V2000
   -7.9040    3.9820   27.1177 C   0  0  0  0  0  0  0  0  0  0  0  0
   -8.2057    2.8231   26.8733 C   0  0  0  0  0  0  0  0  0  0  0  0
   -8.7695    5.0740   26.7916 C   0  0  0  0  0  0  0  0  0  0  0  0
   -9.9618    4.7598   26.1630 C   0  0  0  0  0  0  0  0  0  0  0  0
   -9.4200    2.4524   26.2849 C   0  0  0  0  0  0  0  0  0  0  0  0
  -10.2590    3.4815   25.9250 C   0  0  0  0  0  0  0  0  0  0  0  0
   -8.1837    6.4186   27.1101 C   0  0  0  0  0  0  0  0  0  0  0  0
   -8.9693    7.4212   26.8309 O   0  0  0  0  0  0  0  0  0  0  0  0
   -7.0657    6.4913   27.7112 O   0  0  0  0  0  0  0  0  0  0  0  0
   -7.2850    1.6493   27.2685 C   0  0  0  0  0  0  0  0  0  0  0  0
   -6.0060    1.9525   27.7902 C   0  0  0  0  0  0  0  0  0  0  0  0
   -5.1337    0.8740   28.1570 C   0  0  0  0  0  0  0  0  0  0  0  0
   -5.5207   -0.4192   28.0309 C   0  0  0  0  0  0  0  0  0  0  0  0
   -7.6156    0.3146   27.1803 C   0  0  0  0  0  0  0  0  0  0  0  0
   -6.8277   -0.6726   27.5989 C   0  0  0  0  0  0  0  0  0  0  0  0
  3  7  1  0
  7  8  2  0
  7  9  1  0
  2 10  1  0
 10 11  2  0
 11 12  1  0
 12 13  2  0
 13 15  1  0
 15 14  2  0
 14 10  1  0
  1  2  2  0
  2  5  1  0
  5  6  2  0
  6  4  1  0
  4  3  2  0
  3  1  1  0
M  END
$$$$
