No_4452-complexes_sdf/6BKW-FPZ/2024-09-17-14-21-01/
     RDKit          3D

 20 21  0  0  0  0  0  0  0  0999 V2000
   -7.9040    3.9820   27.1177 C   0  0  0  0  0  0  0  0  0  0  0  0
   -8.2057    2.8231   26.8733 C   0  0  0  0  0  0  0  0  0  0  0  0
   -7.4766    1.7477   27.4593 C   0  0  0  0  0  0  0  0  0  0  0  0
   -8.7468    5.1251   26.6967 C   0  0  0  0  0  0  0  0  0  0  0  0
   -9.7234    4.8589   25.8202 C   0  0  0  0  0  0  0  0  0  0  0  0
   -9.9711    3.5858   25.4266 C   0  0  0  0  0  0  0  0  0  0  0  0
   -9.2266    2.4957   25.9600 C   0  0  0  0  0  0  0  0  0  0  0  0
   -6.3403    1.9970   28.0074 O   0  0  0  0  0  0  0  0  0  0  0  0
   -7.9780    0.5187   27.5823 N   0  0  0  0  0  0  0  0  0  0  0  0
   -7.2902   -0.6374   28.1121 C   0  0  0  0  0  0  0  0  0  0  0  0
   -8.4167    6.5195   27.0997 C   0  0  0  0  0  0  0  0  0  0  0  0
   -8.2362    6.7737   28.2794 O   0  0  0  0  0  0  0  0  0  0  0  0
   -8.1937    7.4412   26.1900 O   0  0  0  0  0  0  0  0  0  0  0  0
   -6.0324   -0.6892   28.3108 C   0  0  0  0  0  0  0  0  0  0  0  0
   -5.4403   -1.7844   28.9789 C   0  0  0  0  0  0  0  0  0  0  0  0
   -4.0454   -1.7726   29.3629 C   0  0  0  0  0  0  0  0  0  0  0  0
   -3.2703   -0.6091   29.0907 C   0  0  0  0  0  0  0  0  0  0  0  0
   -3.8757    0.5245   28.4708 C   0  0  0  0  0  0  0  0  0  0  0  0
   -5.1803    0.5126   28.1679 C   0  0  0  0  0  0  0  0  0  0  0  0
   -5.1616    0.7269   27.0067 F   0  0  0  0  0  0  0  0  0  0  0  0
  2  3  1  0
  3  8  2  0
  3  9  1  0
  9 10  1  0
  4 11  1  0
 11 12  2  0
 11 13  1  0
 19 20  1  0
 10 14  1  0
 14 15  2  0
 15 16  1  0
 16 17  2  0
 17 18  1  0
 18 19  2  0
 19 14  1  0
  1  2  2  0
  2  7  1  0
  7  6  2  0
  6  5  1  0
  5  4  2  0
  4  1  1  0
M  END
$$$$
