No_4424-complexes_sdf/6BKW-FPZ/2024-09-17-14-21-01/
     RDKit          3D

 31 35  0  0  0  0  0  0  0  0999 V2000
   -7.2496    3.8871   27.4508 C   0  0  0  0  0  0  0  0  0  0  0  0
   -7.6161    2.7143   27.1523 C   0  0  0  0  0  0  0  0  0  0  0  0
   -8.6007    2.2754   27.5344 C   0  0  0  0  0  0  0  0  0  0  0  0
   -8.1723    4.9076   27.9308 C   0  0  0  0  0  0  0  0  0  0  0  0
   -9.4278    4.3838   28.2178 C   0  0  0  0  0  0  0  0  0  0  0  0
   -9.7104    3.0651   28.0405 C   0  0  0  0  0  0  0  0  0  0  0  0
  -11.0636    2.5252   28.3461 C   0  0  0  0  0  0  0  0  0  0  0  0
  -11.3464    1.2382   28.3564 C   0  0  0  0  0  0  0  0  0  0  0  0
  -12.6111    0.7742   28.7201 C   0  0  0  0  0  0  0  0  0  0  0  0
  -12.8735   -0.6212   28.7035 C   0  0  0  0  0  0  0  0  0  0  0  0
  -11.8146   -1.4695   28.2990 C   0  0  0  0  0  0  0  0  0  0  0  0
  -10.5958   -1.0425   27.9555 C   0  0  0  0  0  0  0  0  0  0  0  0
  -10.3374    0.3559   28.0155 C   0  0  0  0  0  0  0  0  0  0  0  0
   -9.0205    0.7914   27.5909 C   0  0  0  0  0  0  0  0  0  0  0  0
   -7.7106    6.5449   28.0242 Cl  0  0  0  0  0  0  0  0  0  0  0  0
   -8.0811   -0.1351   27.4319 N   0  0  0  0  0  0  0  0  0  0  0  0
   -7.7944   -1.1818   27.0668 C   0  0  0  0  0  0  0  0  0  0  0  0
   -8.3721   -1.6278   26.0142 C   0  0  0  0  0  0  0  0  0  0  0  0
   -8.6299   -0.7949   24.9740 C   0  0  0  0  0  0  0  0  0  0  0  0
   -9.4272   -1.0649   23.7911 C   0  0  0  0  0  0  0  0  0  0  0  0
  -10.4109   -0.8810   23.6945 C   0  0  0  0  0  0  0  0  0  0  0  0
  -11.2791   -1.2259   22.5186 C   0  0  0  0  0  0  0  0  0  0  0  0
  -10.5828   -1.6552   21.4464 C   0  0  0  0  0  0  0  0  0  0  0  0
   -9.1913   -1.7484   21.4783 C   0  0  0  0  0  0  0  0  0  0  0  0
   -8.5094   -1.4245   22.6458 C   0  0  0  0  0  0  0  0  0  0  0  0
   -8.8037   -2.9799   25.7358 C   0  0  0  0  0  0  0  0  0  0  0  0
   -7.9025   -3.9011   25.4024 C   0  0  0  0  0  0  0  0  0  0  0  0
   -8.3108   -5.2710   25.2235 C   0  0  0  0  0  0  0  0  0  0  0  0
   -9.6669   -5.5443   25.3153 C   0  0  0  0  0  0  0  0  0  0  0  0
  -10.5962   -4.6057   25.6363 C   0  0  0  0  0  0  0  0  0  0  0  0
  -10.1586   -3.3115   25.8598 C   0  0  0  0  0  0  0  0  0  0  0  0
  4 15  1  0
 14 16  1  0
 16 17  1  0
 17 18  2  3
 18 19  1  0
 18 26  1  0
 19 20  1  0
  1  2  2  0
  2  3  1  0
  6  5  1  0
  5  4  2  0
  4  1  1  0
  3  6  2  0
  6  7  1  0
  7  8  2  0
 13 14  2  0
 14  3  1  0
 20 21  2  0
 21 22  1  0
 22 23  2  0
 23 24  1  0
 24 25  2  0
 25 20  1  0
 26 27  2  0
 27 28  1  0
 28 29  2  0
 29 30  1  0
 30 31  2  0
 31 26  1  0
  8  9  1  0
  9 10  2  0
 10 11  1  0
 11 12  2  0
 12 13  1  0
 13  8  1  0
M  END
$$$$
