No_4562-complexes_sdf/6BKW-FPZ/2024-09-17-14-21-01/
     RDKit          3D

 26 29  0  0  0  0  0  0  0  0999 V2000
   -7.9040    3.9820   27.1177 C   0  0  0  0  0  0  0  0  0  0  0  0
   -9.0711    4.3164   27.0630 C   0  0  0  0  0  0  0  0  0  0  0  0
   -9.5182    5.5541   27.5777 C   0  0  0  0  0  0  0  0  0  0  0  0
   -7.4468    2.6843   26.6499 C   0  0  0  0  0  0  0  0  0  0  0  0
   -8.3856    1.7878   26.2216 C   0  0  0  0  0  0  0  0  0  0  0  0
   -9.6812    2.2328   26.0889 C   0  0  0  0  0  0  0  0  0  0  0  0
  -10.0147    3.4312   26.5259 C   0  0  0  0  0  0  0  0  0  0  0  0
   -8.1206    0.3969   25.8410 C   0  0  1  0  0  0  0  0  0  0  0  0
   -8.3546   -0.0423   24.8325 N   0  0  0  0  0  0  0  0  0  0  0  0
   -7.7147   -0.8556   24.0424 C   0  0  0  0  0  0  0  0  0  0  0  0
   -6.5938   -1.3703   24.4937 C   0  0  0  0  0  0  0  0  0  0  0  0
   -6.1912   -1.0603   25.8211 C   0  0  1  0  0  0  0  0  0  0  0  0
   -6.4847    0.2307   26.1906 C   0  0  0  0  0  0  0  0  0  0  0  0
   -9.6583    0.5259   24.1576 C   0  0  0  0  0  0  0  0  0  0  0  0
  -10.3054    1.4782   24.9772 C   0  0  0  0  0  0  0  0  0  0  0  0
  -10.0632    0.1392   23.1182 O   0  0  0  0  0  0  0  0  0  0  0  0
   -8.5757    6.6946   27.5559 C   0  0  0  0  0  0  0  0  0  0  0  0
   -8.7778   -0.5036   27.0282 C   0  0  0  0  0  0  0  0  0  0  0  0
   -7.7756    6.8340   26.3770 C   0  0  0  0  0  0  0  0  0  0  0  0
   -8.0461   -1.4845   27.6274 C   0  0  2  0  0  0  0  0  0  0  0  0
   -6.7736   -1.7873   27.0969 C   0  0  0  0  0  0  0  0  0  0  0  0
   -8.6482   -2.3141   28.6501 C   0  0  0  0  0  0  0  0  0  0  0  0
   -9.9375   -2.1645   28.9419 C   0  0  0  0  0  0  0  0  0  0  0  0
  -10.5694   -2.8668   29.9883 C   0  0  0  0  0  0  0  0  0  0  0  0
   -9.7521   -3.5882   30.8519 C   0  0  0  0  0  0  0  0  0  0  0  0
   -8.3994   -3.6947   30.6543 C   0  0  0  0  0  0  0  0  0  0  0  0
  2  3  1  0
  5  8  1  0
  8  9  1  0
  9 10  1  0
 10 11  1  0
  8 13  1  0
 12 13  1  0
  9 14  1  0
  6 15  1  0
 14 15  1  0
 14 16  2  0
  3 17  2  3
  8 18  1  1
 17 19  1  0
 20 18  1  6
 12 21  1  1
 20 21  1  0
 20 22  1  0
 22 23  2  3
 23 24  1  0
 24 25  2  3
 25 26  1  0
 12 11  1  0
  1  2  2  0
  2  7  1  0
  7  6  2  0
  6  5  1  0
  5  4  2  0
  4  1  1  0
M  END
$$$$
