No_4544-complexes_sdf/6BKW-FPZ/2024-09-17-14-21-01/
     RDKit          3D

 35 39  0  0  0  0  0  0  0  0999 V2000
   -7.9040    3.9820   27.1177 C   0  0  0  0  0  0  0  0  0  0  0  0
   -8.2057    2.8231   26.8733 C   0  0  0  0  0  0  0  0  0  0  0  0
   -8.7695    5.0740   26.7916 C   0  0  0  0  0  0  0  0  0  0  0  0
   -9.9618    4.7598   26.1630 C   0  0  0  0  0  0  0  0  0  0  0  0
   -9.4200    2.4524   26.2850 C   0  0  0  0  0  0  0  0  0  0  0  0
  -10.2590    3.4815   25.9250 C   0  0  0  0  0  0  0  0  0  0  0  0
   -8.3840    6.4693   27.0829 C   0  0  0  0  0  0  0  0  0  0  0  0
   -8.7958    7.4358   26.4217 N   0  0  0  0  0  0  0  0  0  0  0  0
   -7.2492    6.5761   27.9150 N   0  0  0  0  0  0  0  0  0  0  0  0
   -7.2878    1.6545   27.2783 C   0  0  0  0  0  0  0  0  0  0  0  0
   -6.1099    1.9636   27.7924 N   0  0  0  0  0  0  0  0  0  0  0  0
   -5.2706    0.8842   28.1281 C   0  0  0  0  0  0  0  0  0  0  0  0
   -7.5019    0.3439   27.0875 C   0  0  0  0  0  0  0  0  0  0  0  0
   -6.7620   -0.6609   27.4619 C   0  0  0  0  0  0  0  0  0  0  0  0
   -5.5746   -0.3312   28.0550 N   0  0  0  0  0  0  0  0  0  0  0  0
   -4.0211    1.3135   28.7116 N   0  0  0  0  0  0  0  0  0  0  0  0
   -7.1447   -2.0183   27.3919 C   0  0  0  0  0  0  0  0  0  0  0  0
   -8.2391   -2.2750   26.8006 C   0  0  0  0  0  0  0  0  0  0  0  0
   -8.8413   -3.4305   26.7844 C   0  0  0  0  0  0  0  0  0  0  0  0
   -8.1582   -4.4895   27.4243 C   0  0  0  0  0  0  0  0  0  0  0  0
   -6.5973   -3.0830   28.1621 C   0  0  0  0  0  0  0  0  0  0  0  0
   -7.0588   -4.2903   28.1482 C   0  0  0  0  0  0  0  0  0  0  0  0
  -11.5070    3.1952   25.1669 C   0  0  0  0  0  0  0  0  0  0  0  0
  -11.5252    3.2177   23.8596 C   0  0  0  0  0  0  0  0  0  0  0  0
  -12.6448    3.1771   23.1208 C   0  0  0  0  0  0  0  0  0  0  0  0
  -13.8920    3.1002   23.7804 C   0  0  0  0  0  0  0  0  0  0  0  0
  -12.7365    3.2287   25.8834 C   0  0  0  0  0  0  0  0  0  0  0  0
  -13.9089    3.1961   25.1814 C   0  0  0  0  0  0  0  0  0  0  0  0
  -10.2161    3.3295   23.0861 C   0  0  0  0  0  0  0  0  0  0  0  0
  -15.2263    3.1503   25.8859 C   0  0  0  0  0  0  0  0  0  0  0  0
  -15.1916    2.8970   27.2269 C   0  0  0  0  0  0  0  0  0  0  0  0
  -14.0302    3.0814   27.9193 C   0  0  0  0  0  0  0  0  0  0  0  0
  -12.7744    3.1875   27.3584 C   0  0  0  0  0  0  0  0  0  0  0  0
  -10.2611    3.3695   21.6857 C   0  0  0  0  0  0  0  0  0  0  0  0
  -11.4708    3.3579   21.0437 C   0  0  0  0  0  0  0  0  0  0  0  0
  3  7  1  0
  7  8  2  0
  7  9  1  0
  2 10  1  0
 12 16  1  0
 14 17  1  0
  6 23  1  0
 24 29  1  0
 29 34  2  3
 34 35  1  0
 17 18  2  0
 18 19  1  0
 19 20  2  0
 20 22  1  0
 22 21  2  0
 21 17  1  0
 10 11  2  0
 11 12  1  0
 12 15  2  0
 15 14  1  0
 14 13  2  0
 13 10  1  0
 23 24  2  0
 24 25  1  0
 25 26  2  0
 26 28  1  0
 27 23  1  0
 27 28  2  0
 28 30  1  0
 30 31  2  0
 31 32  1  0
 32 33  2  0
 33 27  1  0
  1  2  2  0
  2  5  1  0
  5  6  2  0
  6  4  1  0
  4  3  2  0
  3  1  1  0
M  END
$$$$
