No_4534-complexes_sdf/6BKW-FPZ/2024-09-17-14-21-01/
     RDKit          3D

 10  9  0  0  0  0  0  0  0  0999 V2000
   -7.9040    3.9820   27.1177 C   0  0  0  0  0  0  0  0  0  0  0  0
   -9.0711    4.3164   27.0630 C   0  0  1  0  0  0  0  0  0  0  0  0
   -9.5294    5.4517   27.7215 C   0  0  0  0  0  0  0  0  0  0  0  0
   -9.9845    3.5634   26.2189 C   0  0  1  0  0  0  0  0  0  0  0  0
  -10.7684    4.0785   25.5182 C   0  0  0  0  0  0  0  0  0  0  0  0
   -7.0319    4.4926   28.2199 C   0  0  0  0  0  0  0  0  0  0  0  0
  -11.5979    3.4067   24.4806 C   0  0  0  0  0  0  0  0  0  0  0  0
  -11.3848    2.1062   24.3928 C   0  0  0  0  0  0  0  0  0  0  0  0
  -12.1625    1.4345   23.4406 C   0  0  0  0  0  0  0  0  0  0  0  0
   -9.7189    2.1850   26.0498 C   0  0  0  0  0  0  0  0  0  0  0  0
  1  2  1  0
  2  3  1  6
  2  4  1  0
  4  5  1  0
  1  6  1  0
  5  7  2  3
  7  8  1  0
  8  9  2  0
  4 10  1  6
M  END
$$$$
