No_4961-complexes_sdf/6BKW-FPZ/2024-09-17-14-21-01/
     RDKit          3D

 17 17  0  0  0  0  0  0  0  0999 V2000
   -7.9040    3.9820   27.1177 C   0  0  0  0  0  0  0  0  0  0  0  0
   -9.0711    4.3164   27.0630 C   0  0  0  0  0  0  0  0  0  0  0  0
   -9.8698    3.9665   25.9495 C   0  0  0  0  0  0  0  0  0  0  0  0
   -7.0332    4.5030   28.2025 C   0  0  0  0  0  0  0  0  0  0  0  0
  -10.9909    4.7237   25.5958 C   0  0  0  0  0  0  0  0  0  0  0  0
   -7.4989    5.5573   28.9524 C   0  0  0  0  0  0  0  0  0  0  0  0
  -11.7350    4.2316   24.5284 C   0  0  0  0  0  0  0  0  0  0  0  0
  -11.2912    3.1970   23.7185 C   0  0  0  0  0  0  0  0  0  0  0  0
  -10.1586    2.5464   24.0389 C   0  0  0  0  0  0  0  0  0  0  0  0
   -9.3966    2.9844   25.1500 C   0  0  0  0  0  0  0  0  0  0  0  0
   -8.2731    2.3053   25.4790 N   0  0  0  0  0  0  0  0  0  0  0  0
   -9.6834    1.4430   23.2057 C   0  0  0  0  0  0  0  0  0  0  0  0
  -10.2793    1.9907   23.1713 Br  0  0  0  0  0  0  0  0  0  0  0  0
   -9.2281    2.5615   24.6190 Cl  0  0  0  0  0  0  0  0  0  0  0  0
  -11.1321    2.8366   24.5737 F   0  0  0  0  0  0  0  0  0  0  0  0
  -10.3615    3.7658   23.4787 F   0  0  0  0  0  0  0  0  0  0  0  0
   -7.4482    2.7650   26.4977 C   0  0  0  0  0  0  0  0  0  0  0  0
  1  4  1  0
  3  5  1  0
  4  6  2  0
  5  7  2  3
  7  8  1  0
  8  9  2  3
  9 12  1  0
 12 13  1  0
 10 14  1  0
  8 15  1  0
  9 16  1  0
  1  2  2  0
  2  3  1  0
  3 10  2  0
 10 11  1  0
 11 17  2  0
 17  1  1  0
M  END
$$$$
