No_480-complexes_sdf/6BKW-FPZ/2024-09-17-14-21-01/
     RDKit          3D

 30 35  0  0  0  0  0  0  0  0999 V2000
   -7.2496    3.8871   27.4508 C   0  0  0  0  0  0  0  0  0  0  0  0
   -8.5096    4.0291   27.2770 C   0  0  0  0  0  0  0  0  0  0  0  0
   -9.3451    2.8786   26.9046 C   0  0  0  0  0  0  0  0  0  0  0  0
   -8.7138    1.7135   26.7541 C   0  0  0  0  0  0  0  0  0  0  0  0
   -6.5126    5.0428   28.0087 C   0  0  0  0  0  0  0  0  0  0  0  0
   -7.3423    1.5477   27.0727 C   0  0  0  0  0  0  0  0  0  0  0  0
   -6.6281    2.6908   27.5070 C   0  0  0  0  0  0  0  0  0  0  0  0
   -9.2148    5.3069   27.3906 C   0  0  0  0  0  0  0  0  0  0  0  0
  -10.4458    5.5115   27.4002 C   0  0  0  0  0  0  0  0  0  0  0  0
   -8.3982    6.5258   27.5850 C   0  0  0  0  0  0  0  0  0  0  0  0
   -7.0113    6.2945   27.9102 C   0  0  0  0  0  0  0  0  0  0  0  0
   -9.4390    0.5245   26.3566 C   0  0  0  0  0  0  0  0  0  0  0  0
   -9.0786   -0.5139   26.2910 C   0  0  0  0  0  0  0  0  0  0  0  0
   -7.6127   -0.7558   26.6852 C   0  0  0  0  0  0  0  0  0  0  0  0
   -6.7622    0.2666   27.0710 C   0  0  0  0  0  0  0  0  0  0  0  0
  -10.7408    3.0836   26.7129 C   0  0  0  0  0  0  0  0  0  0  0  0
  -11.3398    4.3718   27.0663 C   0  0  0  0  0  0  0  0  0  0  0  0
   -5.3342    2.5716   27.7758 O   0  0  0  0  0  0  0  0  0  0  0  0
   -7.0100   -2.1461   26.5709 C   0  0  0  0  0  0  0  0  0  0  0  0
   -5.9469   -2.4184   27.2462 C   0  0  0  0  0  0  0  0  0  0  0  0
   -5.4191   -3.7135   27.2540 C   0  0  0  0  0  0  0  0  0  0  0  0
   -6.0347   -4.6323   26.4092 C   0  0  0  0  0  0  0  0  0  0  0  0
   -7.6518   -3.1294   25.9287 C   0  0  0  0  0  0  0  0  0  0  0  0
   -7.1504   -4.3340   25.7851 C   0  0  0  0  0  0  0  0  0  0  0  0
  -12.7832    4.5025   27.0062 C   0  0  0  0  0  0  0  0  0  0  0  0
  -13.5360    3.5801   27.5480 C   0  0  0  0  0  0  0  0  0  0  0  0
  -14.8487    3.7205   27.5730 C   0  0  0  0  0  0  0  0  0  0  0  0
  -15.4555    4.8989   26.9651 C   0  0  0  0  0  0  0  0  0  0  0  0
  -14.6749    5.8098   26.3347 C   0  0  0  0  0  0  0  0  0  0  0  0
  -13.2837    5.6326   26.3953 C   0  0  0  0  0  0  0  0  0  0  0  0
  3  4  1  0
  1  7  1  0
  6  7  1  0
  7 18  2  0
 14 19  1  0
 17 25  1  0
 25 26  2  0
 26 27  1  0
 27 28  2  0
 28 29  1  0
 29 30  2  0
 30 25  1  0
  4  6  2  0
  6 15  1  0
 15 14  2  0
 14 13  1  0
 13 12  2  0
 12  4  1  0
  1  2  2  0
  8 10  2  0
 10 11  1  0
 11  5  2  0
  5  1  1  0
 19 20  2  0
 20 21  1  0
 21 22  2  0
 22 24  1  0
 24 23  2  0
 23 19  1  0
  2  3  1  0
  3 16  2  0
 16 17  1  0
 17  9  2  0
  9  8  1  0
  8  2  1  0
M  END
$$$$
