No_4661-complexes_sdf/6BKW-FPZ/2024-09-17-14-21-01/
     RDKit          3D

  7  6  0  0  0  0  0  0  0  0999 V2000
   -7.7129    4.2099   27.0854 C   0  0  0  0  0  0  0  0  0  0  0  0
   -8.2112    3.0637   26.9225 C   0  0  0  0  0  0  0  0  0  0  0  0
   -9.2642    2.2413   26.6504 C   0  0  0  0  0  0  0  0  0  0  0  0
   -6.6787    4.6845   27.9238 C   0  0  0  0  0  0  0  0  0  0  0  0
   -9.3268    0.9010   26.6342 C   0  0  0  0  0  0  0  0  0  0  0  0
   -8.1527    0.2099   27.0637 C   0  0  0  0  0  0  0  0  0  0  0  0
   -7.0213    0.8324   27.3965 C   0  0  0  0  0  0  0  0  0  0  0  0
  1  2  3  0
  2  3  1  0
  1  4  1  0
  3  5  2  3
  5  6  1  0
  6  7  2  0
M  END
$$$$
