No_4166-complexes_sdf/6BKW-FPZ/2024-09-17-14-21-01/
     RDKit          3D

 16 17  0  0  0  0  0  0  0  0999 V2000
   -7.9040    3.9820   27.1177 C   0  0  0  0  0  0  0  0  0  0  0  0
   -7.8663    4.8694   27.9238 C   0  0  0  0  0  0  0  0  0  0  0  0
   -7.4698    2.6989   27.4277 C   0  0  0  0  0  0  0  0  0  0  0  0
   -7.9683    1.5964   26.8266 C   0  0  0  0  0  0  0  0  0  0  0  0
   -8.9447    1.7923   25.8533 C   0  0  0  0  0  0  0  0  0  0  0  0
   -9.4219    0.6008   25.2035 C   0  0  0  0  0  0  0  0  0  0  0  0
   -8.8283    3.8668   26.0663 C   0  0  0  0  0  0  0  0  0  0  0  0
   -9.3945    2.9673   25.4935 C   0  0  0  0  0  0  0  0  0  0  0  0
   -8.1567    6.3362   27.5983 C   0  0  0  0  0  0  0  0  0  0  0  0
   -8.7774    0.0474   24.1909 C   0  0  0  0  0  0  0  0  0  0  0  0
   -9.2709    6.5648   26.7490 C   0  0  0  0  0  0  0  0  0  0  0  0
   -9.4444    5.4207   25.7688 C   0  0  0  0  0  0  0  0  0  0  0  0
   -7.5218    0.2958   23.8767 C   0  0  0  0  0  0  0  0  0  0  0  0
   -6.8076   -0.3498   22.7520 C   0  0  0  0  0  0  0  0  0  0  0  0
   -7.5952   -1.2009   21.9066 C   0  0  0  0  0  0  0  0  0  0  0  0
   -8.9447   -1.3907   22.1508 C   0  0  0  0  0  0  0  0  0  0  0  0
  1  3  1  0
  3  4  1  0
  4  5  1  0
  5  6  2  3
  5  8  1  0
  7  8  1  0
  6 10  1  0
 10 13  2  3
 13 14  1  0
 14 15  2  3
 15 16  1  0
  1  2  2  0
  2  9  1  0
  9 11  2  0
 11 12  1  0
 12  7  2  0
  7  1  1  0
M  END
$$$$
