No_4908-complexes_sdf/6BKW-FPZ/2024-09-17-14-21-01/
     RDKit          3D

 10 10  0  0  0  0  0  0  0  0999 V2000
   -7.9040    3.9820   27.1177 C   0  0  0  0  0  0  0  0  0  0  0  0
   -8.2057    2.8231   26.8733 C   0  0  0  0  0  0  0  0  0  0  0  0
   -7.4766    1.7477   27.4593 C   0  0  0  0  0  0  0  0  0  0  0  0
   -8.7468    5.1251   26.6967 C   0  0  0  0  0  0  0  0  0  0  0  0
   -8.4775    6.4967   27.1056 C   0  0  0  0  0  0  0  0  0  0  0  0
   -7.7919    0.3946   27.2728 C   0  0  0  0  0  0  0  0  0  0  0  0
   -9.0465    0.1789   26.6180 C   0  0  0  0  0  0  0  0  0  0  0  0
   -9.7757    1.1686   26.0370 C   0  0  0  0  0  0  0  0  0  0  0  0
   -9.3666    2.4927   26.2113 C   0  0  0  0  0  0  0  0  0  0  0  0
   -7.2727    6.5886   27.7273 N   0  0  0  0  0  0  0  0  0  0  0  0
  1  4  1  0
  4  5  1  0
  5 10  1  0
  1  2  1  0
  2  3  2  0
  3  6  1  0
  6  7  2  0
  7  8  1  0
  8  9  2  0
  9  2  1  0
M  END
$$$$
