No_4389-complexes_sdf/6BKW-FPZ/2024-09-17-14-21-01/
     RDKit          3D

 13 14  0  0  0  0  0  0  0  0999 V2000
   -7.9040    3.9820   27.1177 C   0  0  0  0  0  0  0  0  0  0  0  0
   -7.8663    4.8694   27.9238 C   0  0  0  0  0  0  0  0  0  0  0  0
   -9.0501    3.8017   26.2617 C   0  0  0  0  0  0  0  0  0  0  0  0
   -9.1826    2.7026   25.3575 C   0  0  0  0  0  0  0  0  0  0  0  0
   -8.6940    6.0131   27.8614 C   0  0  0  0  0  0  0  0  0  0  0  0
   -9.7382    4.9916   26.1006 C   0  0  0  0  0  0  0  0  0  0  0  0
   -9.6356    6.0254   26.9506 C   0  0  0  0  0  0  0  0  0  0  0  0
  -10.1581    1.9229   25.7167 C   0  0  0  0  0  0  0  0  0  0  0  0
  -10.2017    0.7569   25.0615 C   0  0  0  0  0  0  0  0  0  0  0  0
   -9.9503    0.6847   23.9425 C   0  0  0  0  0  0  0  0  0  0  0  0
   -9.0859    1.6882   23.2417 C   0  0  0  0  0  0  0  0  0  0  0  0
   -8.6894    2.6972   24.0596 C   0  0  0  0  0  0  0  0  0  0  0  0
   -6.8989    2.5413   27.3639 Cl  0  0  0  0  0  0  0  0  0  0  0  0
  3  4  1  0
  1 13  1  0
  4  8  2  0
  8  9  1  0
  9 10  2  0
 10 11  1  0
 11 12  2  0
 12  4  1  0
  1  2  2  0
  2  5  1  0
  5  7  2  0
  7  6  1  0
  6  3  2  0
  3  1  1  0
M  END
$$$$
