No_4902-complexes_sdf/6BKW-FPZ/2024-09-17-14-21-01/
     RDKit          3D

 13 14  0  0  0  0  0  0  0  0999 V2000
   -7.7129    4.2099   27.0854 C   0  0  0  0  0  0  0  0  0  0  0  0
   -7.7814    5.1722   27.8972 C   0  0  0  0  0  0  0  0  0  0  0  0
   -8.8776    3.8408   26.3416 C   0  0  0  0  0  0  0  0  0  0  0  0
   -8.9136    2.6330   25.5655 C   0  0  0  0  0  0  0  0  0  0  0  0
   -8.8361    6.1389   27.9032 C   0  0  0  0  0  0  0  0  0  0  0  0
   -9.9718    4.7048   26.3433 C   0  0  0  0  0  0  0  0  0  0  0  0
   -9.9205    5.8499   27.1013 C   0  0  0  0  0  0  0  0  0  0  0  0
   -8.3007    1.4813   26.1918 C   0  0  0  0  0  0  0  0  0  0  0  0
   -8.3159    0.2547   25.5799 C   0  0  0  0  0  0  0  0  0  0  0  0
   -8.7710    0.2283   24.3094 C   0  0  0  0  0  0  0  0  0  0  0  0
   -9.3986    2.4505   24.3375 C   0  0  0  0  0  0  0  0  0  0  0  0
   -9.3513    1.2747   23.6873 C   0  0  0  0  0  0  0  0  0  0  0  0
   -6.7419    5.5667   28.6626 F   0  0  0  0  0  0  0  0  0  0  0  0
  3  4  1  0
  2 13  1  0
  4  8  2  0
  8  9  1  0
  9 10  2  0
 10 12  1  0
 12 11  2  0
 11  4  1  0
  1  2  2  0
  2  5  1  0
  5  7  2  0
  7  6  1  0
  6  3  2  0
  3  1  1  0
M  END
$$$$
