No_4056-complexes_sdf/6BKW-FPZ/2024-09-17-14-21-01/
     RDKit          3D

 16 17  0  0  0  0  0  0  0  0999 V2000
   -7.7129    4.2099   27.0854 C   0  0  0  0  0  0  0  0  0  0  0  0
   -8.9133    4.4736   27.0998 C   0  0  0  0  0  0  0  0  0  0  0  0
   -9.8363    3.8127   27.2418 C   0  0  0  0  0  0  0  0  0  0  0  0
   -7.2995    2.8520   27.3808 C   0  0  0  0  0  0  0  0  0  0  0  0
   -8.3404    1.9507   27.4989 C   0  0  0  0  0  0  0  0  0  0  0  0
   -9.6166    2.3791   27.4719 C   0  0  0  0  0  0  0  0  0  0  0  0
   -9.1683    6.0342   26.9011 C   0  0  0  0  0  0  0  0  0  0  0  0
   -8.1732    6.9716   27.0509 C   0  0  0  0  0  0  0  0  0  0  0  0
   -8.3805    8.3451   26.6904 C   0  0  0  0  0  0  0  0  0  0  0  0
   -8.0291    0.5031   27.7072 C   0  0  0  0  0  0  0  0  0  0  0  0
   -9.0476   -0.4679   27.6621 C   0  0  0  0  0  0  0  0  0  0  0  0
   -6.7260    0.0688   27.2176 C   0  0  0  0  0  0  0  0  0  0  0  0
   -6.3605   -1.1871   27.2398 C   0  0  0  0  0  0  0  0  0  0  0  0
   -8.6958   -1.8212   27.7500 C   0  0  0  0  0  0  0  0  0  0  0  0
   -7.3862   -2.1518   27.4938 C   0  0  0  0  0  0  0  0  0  0  0  0
   -6.9688   -3.8254   27.4865 Cl  0  0  0  0  0  0  0  0  0  0  0  0
  2  7  1  0
  7  8  2  3
  8  9  1  0
  5 10  1  0
 15 16  1  0
  1  2  2  0
  2  3  1  0
  3  6  2  0
  6  5  1  0
  5  4  2  0
  4  1  1  0
 10 11  2  0
 11 14  1  0
 14 15  2  0
 15 13  1  0
 13 12  2  0
 12 10  1  0
M  END
$$$$
