No_4512-complexes_sdf/6BKW-FPZ/2024-09-17-14-21-01/
     RDKit          3D

 39 44  0  0  0  0  0  0  0  0999 V2000
   -7.9040    3.9820   27.1177 C   0  0  0  0  0  0  0  0  0  0  0  0
   -7.8663    4.8694   27.9238 C   0  0  0  0  0  0  0  0  0  0  0  0
   -7.4698    2.6989   27.4277 C   0  0  0  0  0  0  0  0  0  0  0  0
   -7.9683    1.5964   26.8266 C   0  0  0  0  0  0  0  0  0  0  0  0
   -8.9447    1.7923   25.8533 C   0  0  0  0  0  0  0  0  0  0  0  0
   -9.4405    2.9988   25.5757 C   0  0  0  0  0  0  0  0  0  0  0  0
   -8.9424    4.1117   26.2388 C   0  0  0  0  0  0  0  0  0  0  0  0
   -8.0991    6.0941   27.8047 N   0  0  0  0  0  0  0  0  0  0  0  0
   -7.4449    0.2821   27.0799 C   0  0  0  0  0  0  0  0  0  0  0  0
   -8.1098   -0.8000   26.8128 C   0  0  0  0  0  0  0  0  0  0  0  0
   -9.2416   -0.5994   25.8937 C   0  0  0  0  0  0  0  0  0  0  0  0
   -9.6538    0.5966   25.4137 C   0  0  0  0  0  0  0  0  0  0  0  0
   -9.4542    5.4019   26.0081 C   0  0  0  0  0  0  0  0  0  0  0  0
   -8.9474    6.4693   26.8288 C   0  0  0  0  0  0  0  0  0  0  0  0
  -10.7143    0.6924   24.4726 C   0  0  0  0  0  0  0  0  0  0  0  0
  -11.8182    0.9455   24.7947 N   0  0  0  0  0  0  0  0  0  0  0  0
  -12.4127    0.8704   25.7738 C   0  0  0  0  0  0  0  0  0  0  0  0
  -13.0107    1.2641   26.5523 C   0  0  0  0  0  0  0  0  0  0  0  0
  -13.5259    2.6313   26.6417 C   0  0  0  0  0  0  0  0  0  0  0  0
  -14.1768    3.2468   27.7334 C   0  0  0  0  0  0  0  0  0  0  0  0
  -14.3286    4.6096   27.8729 C   0  0  0  0  0  0  0  0  0  0  0  0
  -14.8029    5.2512   29.0042 C   0  0  0  0  0  0  0  0  0  0  0  0
  -15.0647    4.4502   30.1360 C   0  0  0  0  0  0  0  0  0  0  0  0
  -14.8057    3.0883   30.0700 C   0  0  0  0  0  0  0  0  0  0  0  0
  -14.3051    2.5617   28.9158 C   0  0  0  0  0  0  0  0  0  0  0  0
  -10.2283    0.7408   23.2512 O   0  0  0  0  0  0  0  0  0  0  0  0
  -13.4986    3.3912   25.4276 C   0  0  0  0  0  0  0  0  0  0  0  0
  -14.6699    3.8800   24.8649 C   0  0  0  0  0  0  0  0  0  0  0  0
  -14.5808    4.6746   23.7973 C   0  0  0  0  0  0  0  0  0  0  0  0
  -13.5220    4.7045   23.1277 C   0  0  0  0  0  0  0  0  0  0  0  0
  -12.2762    4.1602   23.5423 C   0  0  0  0  0  0  0  0  0  0  0  0
  -12.2824    3.5155   24.7124 C   0  0  0  0  0  0  0  0  0  0  0  0
   -9.8662   -1.8502   25.4027 C   0  0  0  0  0  0  0  0  0  0  0  0
   -9.2170   -2.4963   24.4136 C   0  0  0  0  0  0  0  0  0  0  0  0
   -9.7921   -3.2905   23.6316 C   0  0  0  0  0  0  0  0  0  0  0  0
  -11.0094   -2.3154   25.9619 C   0  0  0  0  0  0  0  0  0  0  0  0
  -11.6872   -3.3596   25.2816 C   0  0  0  0  0  0  0  0  0  0  0  0
  -11.0683   -3.8857   24.1445 C   0  0  0  0  0  0  0  0  0  0  0  0
  -11.6843   -4.8563   23.5086 F   0  0  0  0  0  0  0  0  0  0  0  0
 12 15  1  0
 15 16  1  0
 16 17  1  0
 17 18  2  3
 18 19  1  0
 19 20  1  0
 15 26  2  0
 19 27  1  0
 11 33  1  0
 38 39  1  0
  5 12  1  0
 12 11  2  0
 11 10  1  0
 10  9  2  0
  9  4  1  0
  1  3  1  0
  3  4  2  0
  4  5  1  0
  5  6  2  0
  6  7  1  0
 33 34  2  0
 34 35  1  0
 35 38  2  0
 38 37  1  0
 37 36  2  0
 36 33  1  0
 27 28  2  0
 28 29  1  0
 29 30  2  0
 30 31  1  0
 31 32  2  0
 32 27  1  0
 20 21  2  0
 21 22  1  0
 22 23  2  0
 23 24  1  0
 24 25  2  0
 25 20  1  0
  1  2  2  0
  2  8  1  0
  8 14  2  0
 14 13  1  0
 13  7  2  0
  7  1  1  0
M  END
$$$$
