No_4664-complexes_sdf/6BKW-FPZ/2024-09-17-14-21-01/
     RDKit          3D

 32 35  0  0  0  0  0  0  0  0999 V2000
   -7.9040    3.9820   27.1177 C   0  0  0  0  0  0  0  0  0  0  0  0
   -7.8663    4.8694   27.9238 C   0  0  0  0  0  0  0  0  0  0  0  0
   -9.0491    3.8523   26.2542 C   0  0  0  0  0  0  0  0  0  0  0  0
   -8.7661    5.9491   27.9690 C   0  0  0  0  0  0  0  0  0  0  0  0
   -9.9295    4.8502   26.2323 C   0  0  0  0  0  0  0  0  0  0  0  0
   -9.8077    5.9288   27.0933 C   0  0  0  0  0  0  0  0  0  0  0  0
   -6.9377    2.5632   27.0872 Cl  0  0  0  0  0  0  0  0  0  0  0  0
   -9.1271    2.8520   25.3386 F   0  0  0  0  0  0  0  0  0  0  0  0
  -10.9013    4.8469   25.3079 O   0  0  0  0  0  0  0  0  0  0  0  0
  -11.8720    4.0249   25.4537 C   0  0  0  0  0  0  0  0  0  0  0  0
  -12.7602    4.0230   24.3479 C   0  0  0  0  0  0  0  0  0  0  0  0
  -13.9666    3.2911   24.3847 C   0  0  0  0  0  0  0  0  0  0  0  0
  -14.1536    2.4833   25.5221 C   0  0  0  0  0  0  0  0  0  0  0  0
  -13.2604    2.4724   26.5649 C   0  0  0  0  0  0  0  0  0  0  0  0
  -12.1274    3.2557   26.5716 C   0  0  0  0  0  0  0  0  0  0  0  0
  -15.4157    1.6642   25.5163 C   0  0  0  0  0  0  0  0  0  0  0  0
  -15.7612    0.9689   26.3642 O   0  0  0  0  0  0  0  0  0  0  0  0
  -16.0142    1.4835   24.2387 N   0  0  0  0  0  0  0  0  0  0  0  0
  -15.7166    2.0646   23.1032 C   0  0  0  0  0  0  0  0  0  0  0  0
  -14.6650    3.1144   23.1679 C   0  0  0  0  0  0  0  0  0  0  0  0
  -16.1520    1.8247   22.1533 F   0  0  0  0  0  0  0  0  0  0  0  0
  -16.9986    0.4191   24.3108 C   0  0  0  0  0  0  0  0  0  0  0  0
  -18.1718    0.5720   24.9335 C   0  0  0  0  0  0  0  0  0  0  0  0
  -18.6670    1.5759   25.3152 C   0  0  0  0  0  0  0  0  0  0  0  0
  -19.6637    2.0780   25.7796 C   0  0  0  0  0  0  0  0  0  0  0  0
  -20.0525    3.4588   26.1541 C   0  0  0  0  0  0  0  0  0  0  0  0
  -19.0772    4.4297   25.9166 C   0  0  0  0  0  0  0  0  0  0  0  0
  -17.8483    4.0637   25.3800 C   0  0  0  0  0  0  0  0  0  0  0  0
  -17.5950    2.7960   25.1030 C   0  0  0  0  0  0  0  0  0  0  0  0
  -17.6941    3.3069   24.0171 C   0  0  0  0  0  0  0  0  0  0  0  0
  -18.9088    3.5952   23.2959 C   0  0  0  0  0  0  0  0  0  0  0  0
  -17.2924    5.0310   23.8525 C   0  0  0  0  0  0  0  0  0  0  0  0
  1  7  1  0
  3  8  1  0
  5  9  1  0
  9 10  1  0
 13 16  1  0
 16 17  2  0
 16 18  1  0
 18 19  1  0
 12 20  1  0
 19 21  1  0
 18 22  1  0
 22 23  1  0
 29 30  1  0
 30 31  1  0
 30 32  1  0
 23 24  1  0
 20 19  1  0
 24 25  2  0
 25 26  1  0
 26 27  2  0
 27 28  1  0
 28 29  2  0
 29 24  1  0
  1  2  2  0
  2  4  1  0
  4  6  2  0
  6  5  1  0
  5  3  2  0
  3  1  1  0
 10 11  2  0
 11 12  1  0
 12 13  2  0
 13 14  1  0
 14 15  2  0
 15 10  1  0
M  END
$$$$
