No_4976-complexes_sdf/6BKW-FPZ/2024-09-17-14-21-01/
     RDKit          3D

 20 22  0  0  0  0  0  0  0  0999 V2000
   -7.9040    3.9820   27.1177 C   0  0  0  0  0  0  0  0  0  0  0  0
   -9.0711    4.3164   27.0630 C   0  0  0  0  0  0  0  0  0  0  0  0
   -9.5182    5.5541   27.5777 C   0  0  0  0  0  0  0  0  0  0  0  0
   -6.9424    4.7983   27.8424 C   0  0  0  0  0  0  0  0  0  0  0  0
   -7.3526    5.9739   28.3909 C   0  0  0  0  0  0  0  0  0  0  0  0
   -8.6479    6.3742   28.2169 C   0  0  0  0  0  0  0  0  0  0  0  0
  -10.0793    3.4689   26.3368 C   0  0  0  0  0  0  0  0  0  0  0  0
  -10.8066    3.4471   25.6317 C   0  0  0  0  0  0  0  0  0  0  0  0
  -11.5555    2.3860   24.9819 C   0  0  0  0  0  0  0  0  0  0  0  0
  -11.1718    1.1467   25.4068 C   0  0  0  0  0  0  0  0  0  0  0  0
   -9.8485    1.8141   26.5475 C   0  0  0  0  0  0  0  0  0  0  0  0
   -9.1024    0.9675   27.2023 C   0  0  0  0  0  0  0  0  0  0  0  0
   -7.8853    1.1651   27.4913 C   0  0  0  0  0  0  0  0  0  0  0  0
   -9.7812   -0.1861   27.6867 C   0  0  0  0  0  0  0  0  0  0  0  0
   -6.9681    0.1171   27.9483 C   0  0  0  0  0  0  0  0  0  0  0  0
   -8.9849   -1.2345   28.3200 C   0  0  0  0  0  0  0  0  0  0  0  0
   -7.5838   -1.0036   28.4232 C   0  0  0  0  0  0  0  0  0  0  0  0
   -6.7817   -2.0581   29.0638 C   0  0  0  0  0  0  0  0  0  0  0  0
   -5.5130   -1.6510   29.2718 C   0  0  0  0  0  0  0  0  0  0  0  0
   -4.8860   -0.4604   28.6976 C   0  0  0  0  0  0  0  0  0  0  0  0
  2  7  1  0
  7  8  2  0
  8  9  1  0
  9 10  2  0
  7 11  1  0
 10 11  1  0
 11 12  1  0
 17 18  1  0
 18 19  2  3
 19 20  1  0
  1  2  2  0
  2  3  1  0
  3  6  2  0
  6  5  1  0
  5  4  2  0
  4  1  1  0
 12 13  2  0
 13 15  1  0
 15 17  2  0
 17 16  1  0
 16 14  2  0
 14 12  1  0
M  END
$$$$
