No_4845-complexes_sdf/6BKW-FPZ/2024-09-17-14-21-01/
     RDKit          3D

 18 20  0  0  0  0  0  0  0  0999 V2000
   -7.7129    4.2099   27.0854 C   0  0  0  0  0  0  0  0  0  0  0  0
   -7.7814    5.1722   27.8972 C   0  0  0  0  0  0  0  0  0  0  0  0
   -8.8255    3.2789   27.1191 C   0  0  0  0  0  0  0  0  0  0  0  0
   -9.9209    3.4734   27.9101 C   0  0  0  0  0  0  0  0  0  0  0  0
  -10.0316    4.7089   28.6463 C   0  0  0  0  0  0  0  0  0  0  0  0
   -8.9258    5.5669   28.6427 C   0  0  0  0  0  0  0  0  0  0  0  0
   -8.6970    1.9978   26.3619 C   0  0  0  0  0  0  0  0  0  0  0  0
   -9.1595    2.0002   25.0585 C   0  0  0  0  0  0  0  0  0  0  0  0
   -8.0652    0.8873   26.9186 C   0  0  0  0  0  0  0  0  0  0  0  0
   -7.9716   -0.2885   26.2783 C   0  0  0  0  0  0  0  0  0  0  0  0
   -9.0889    0.8039   24.3257 C   0  0  0  0  0  0  0  0  0  0  0  0
   -8.4499   -0.3054   24.9156 C   0  0  0  0  0  0  0  0  0  0  0  0
  -11.0608    2.5761   27.9418 C   0  0  0  0  0  0  0  0  0  0  0  0
  -12.2642    2.8524   27.2798 C   0  0  0  0  0  0  0  0  0  0  0  0
  -13.0570    2.0382   26.8150 C   0  0  0  0  0  0  0  0  0  0  0  0
  -10.9837    1.3433   28.5378 C   0  0  0  0  0  0  0  0  0  0  0  0
  -11.9437    0.3456   28.3472 C   0  0  0  0  0  0  0  0  0  0  0  0
  -13.0280    0.7185   27.4805 C   0  0  0  0  0  0  0  0  0  0  0  0
  3  7  1  0
  4 13  1  0
 13 14  2  0
 14 15  1  0
 15 18  2  0
 18 17  1  0
 17 16  2  0
 16 13  1  0
  1  2  2  0
  2  6  1  0
  6  5  2  0
  5  4  1  0
  4  3  2  0
  3  1  1  0
  7  8  2  0
  8 11  1  0
 11 12  2  0
 12 10  1  0
 10  9  2  0
  9  7  1  0
M  END
$$$$
