No_4740-complexes_sdf/6BKW-FPZ/2024-09-17-14-21-01/
     RDKit          3D

 24 26  0  0  0  0  0  0  0  0999 V2000
   -7.9040    3.9820   27.1177 C   0  0  0  0  0  0  0  0  0  0  0  0
   -7.8663    4.8694   27.9238 C   0  0  0  0  0  0  0  0  0  0  0  0
   -9.0501    3.8017   26.2617 C   0  0  0  0  0  0  0  0  0  0  0  0
  -10.0189    4.7608   26.3707 C   0  0  0  0  0  0  0  0  0  0  0  0
   -8.6973    5.9722   27.8968 C   0  0  0  0  0  0  0  0  0  0  0  0
   -9.8216    5.8946   27.1241 C   0  0  0  0  0  0  0  0  0  0  0  0
   -9.1437    2.6293   25.4175 C   0  0  0  0  0  0  0  0  0  0  0  0
  -10.1321    1.8510   25.6641 C   0  0  0  0  0  0  0  0  0  0  0  0
  -11.0784    1.8265   26.2198 C   0  0  0  0  0  0  0  0  0  0  0  0
  -12.0430    0.6917   26.3793 C   0  0  0  0  0  0  0  0  0  0  0  0
  -11.7039   -0.4037   25.6784 C   0  0  0  0  0  0  0  0  0  0  0  0
   -9.9185    0.4815   24.8947 C   0  0  0  0  0  0  0  0  0  0  0  0
  -10.7256   -0.5154   24.9510 C   0  0  0  0  0  0  0  0  0  0  0  0
   -8.6902    0.1960   24.0223 C   0  0  2  0  0  0  0  0  0  0  0  0
   -7.5465   -0.1753   24.3589 C   0  0  0  0  0  0  0  0  0  0  0  0
   -8.9217    0.6071   22.5988 C   0  0  0  0  0  0  0  0  0  0  0  0
   -7.2300   -0.4778   25.7808 C   0  0  0  0  0  0  0  0  0  0  0  0
   -6.4214   -1.0835   26.2567 C   0  0  0  0  0  0  0  0  0  0  0  0
   -5.3434   -1.5506   25.3581 C   0  0  0  0  0  0  0  0  0  0  0  0
   -5.5205   -1.4026   24.0136 C   0  0  0  0  0  0  0  0  0  0  0  0
   -6.6113   -0.7484   23.5187 C   0  0  0  0  0  0  0  0  0  0  0  0
   -9.4764   -0.3852   21.7271 C   0  0  0  0  0  0  0  0  0  0  0  0
   -8.7686   -1.4008   21.4041 C   0  0  0  0  0  0  0  0  0  0  0  0
   -9.1902   -2.3571   20.4036 C   0  0  0  0  0  0  0  0  0  0  0  0
  3  7  1  0
  7  8  1  0
 12 14  1  0
 14 16  1  1
 16 22  1  0
 22 23  2  3
 23 24  1  0
 14 15  1  0
 15 17  2  0
 17 18  1  0
 18 19  2  0
 19 20  1  0
 20 21  2  0
 21 15  1  0
  1  2  2  0
  2  5  1  0
  5  6  2  0
  6  4  1  0
  4  3  2  0
  3  1  1  0
  8  9  2  0
  9 10  1  0
 10 11  2  0
 11 13  1  0
 13 12  2  0
 12  8  1  0
M  END
$$$$
