No_4052-complexes_sdf/6BKW-FPZ/2024-09-17-14-21-01/
     RDKit          3D

 24 27  0  0  0  0  0  0  0  0999 V2000
   -7.9040    3.9820   27.1177 C   0  0  0  0  0  0  0  0  0  0  0  0
   -8.2057    2.8231   26.8733 C   0  0  0  0  0  0  0  0  0  0  0  0
   -7.4766    1.7477   27.4593 C   0  0  1  0  0  0  0  0  0  0  0  0
   -8.7468    5.1251   26.6967 C   0  0  0  0  0  0  0  0  0  0  0  0
   -9.7234    4.8589   25.8202 C   0  0  0  0  0  0  0  0  0  0  0  0
   -9.9711    3.5858   25.4266 C   0  0  0  0  0  0  0  0  0  0  0  0
   -9.2266    2.4957   25.9600 C   0  0  0  0  0  0  0  0  0  0  0  0
   -7.8876    0.4499   27.3622 N   0  0  0  0  0  0  0  0  0  0  0  0
   -7.0850   -0.6038   27.6283 C   0  0  1  0  0  0  0  0  0  0  0  0
   -5.8080   -0.2988   28.0675 C   0  0  1  0  0  0  0  0  0  0  0  0
   -5.3012    1.0168   28.1218 C   0  0  2  0  0  0  0  0  0  0  0  0
   -6.0641    2.0022   27.7192 C   0  0  0  0  0  0  0  0  0  0  0  0
   -8.4246    6.5193   27.1054 C   0  0  0  0  0  0  0  0  0  0  0  0
   -7.9201    7.5779   26.9809 N   0  0  0  0  0  0  0  0  0  0  0  0
   -4.0490    1.2770   28.4946 F   0  0  0  0  0  0  0  0  0  0  0  0
   -7.6043   -1.7786   27.6829 N   0  0  0  0  0  0  0  0  0  0  0  0
   -7.0863   -2.7708   28.0866 C   0  0  2  0  0  0  0  0  0  0  0  0
   -5.7743   -2.7236   28.4937 C   0  0  0  0  0  0  0  0  0  0  0  0
   -5.0476   -1.4718   28.5785 C   0  0  0  0  0  0  0  0  0  0  0  0
  -11.2054    3.1411   24.3437 Cl  0  0  0  0  0  0  0  0  0  0  0  0
   -9.0359   -1.8983   27.1857 C   0  0  0  0  0  0  0  0  0  0  0  0
   -9.6583   -3.1369   27.3577 C   0  0  0  0  0  0  0  0  0  0  0  0
   -9.0464   -3.9645   26.8998 C   0  0  0  0  0  0  0  0  0  0  0  0
   -7.6254   -4.1148   27.6863 C   0  0  0  0  0  0  0  0  0  0  0  0
  3  2  1  6
  3  8  1  0
  9  8  1  1
 10 11  1  0
  3 12  1  0
 11 12  1  0
  4 13  1  0
 13 14  3  0
 11 15  1  6
  9 16  1  0
 16 17  1  0
 10 19  1  1
 18 19  1  0
  6 20  1  0
 16 21  1  0
 22 23  1  0
 17 24  1  6
 23 24  1  0
 22 21  1  0
  9 10  1  0
 18 17  1  0
  1  2  2  0
  2  7  1  0
  7  6  2  0
  6  5  1  0
  5  4  2  0
  4  1  1  0
M  END
$$$$
