No_4584-complexes_sdf/6BKW-FPZ/2024-09-17-14-21-01/
     RDKit          3D

 18 19  0  0  0  0  0  0  0  0999 V2000
   -7.9040    3.9820   27.1177 C   0  0  0  0  0  0  0  0  0  0  0  0
   -8.2057    2.8231   26.8733 C   0  0  0  0  0  0  0  0  0  0  0  0
   -8.7695    5.0740   26.7916 C   0  0  0  0  0  0  0  0  0  0  0  0
   -9.9618    4.7598   26.1630 C   0  0  0  0  0  0  0  0  0  0  0  0
   -9.4200    2.4524   26.2849 C   0  0  0  0  0  0  0  0  0  0  0  0
  -10.2590    3.4815   25.9250 C   0  0  0  0  0  0  0  0  0  0  0  0
   -8.6094    6.4941   27.0911 C   0  0  0  0  0  0  0  0  0  0  0  0
   -8.0678    6.9159   28.1425 N   0  0  0  0  0  0  0  0  0  0  0  0
   -8.8942    7.3845   26.1505 N   0  0  0  0  0  0  0  0  0  0  0  0
   -7.2645    1.6861   27.2891 C   0  0  0  0  0  0  0  0  0  0  0  0
   -7.6023    0.3965   27.1849 N   0  0  0  0  0  0  0  0  0  0  0  0
   -5.9649    1.9736   27.5046 N   0  0  0  0  0  0  0  0  0  0  0  0
   -8.7109   -0.1943   26.9678 C   0  0  0  0  0  0  0  0  0  0  0  0
   -8.8323   -1.4818   27.4517 C   0  0  0  0  0  0  0  0  0  0  0  0
  -10.0515   -2.1642   27.5228 C   0  0  0  0  0  0  0  0  0  0  0  0
  -11.1721   -1.4514   26.9817 C   0  0  0  0  0  0  0  0  0  0  0  0
  -11.0939   -0.2011   26.5401 C   0  0  0  0  0  0  0  0  0  0  0  0
   -9.9017    0.5197   26.6280 C   0  0  0  0  0  0  0  0  0  0  0  0
  3  7  1  0
  7  8  1  0
  7  9  2  0
  2 10  1  0
 10 11  1  0
 10 12  2  0
 11 13  1  0
 13 14  2  0
 14 15  1  0
 15 16  2  0
 16 17  1  0
 17 18  2  0
 18 13  1  0
  1  2  2  0
  2  5  1  0
  5  6  2  0
  6  4  1  0
  4  3  2  0
  3  1  1  0
M  END
$$$$
