No_430-complexes_sdf/6BKW-FPZ/2024-09-17-14-21-01/
     RDKit          3D

 15 16  0  0  0  0  0  0  0  0999 V2000
   -7.7129    4.2099   27.0854 C   0  0  0  0  0  0  0  0  0  0  0  0
   -8.2112    3.0637   26.9225 C   0  0  0  0  0  0  0  0  0  0  0  0
   -8.5108    5.3904   26.9436 C   0  0  0  0  0  0  0  0  0  0  0  0
   -7.9752    6.6981   27.2112 C   0  0  0  0  0  0  0  0  0  0  0  0
   -9.5213    2.8208   26.4688 C   0  0  0  0  0  0  0  0  0  0  0  0
  -10.2979    3.9327   26.2378 C   0  0  0  0  0  0  0  0  0  0  0  0
   -9.7894    5.2123   26.4395 C   0  0  0  0  0  0  0  0  0  0  0  0
   -7.1603    1.9307   27.2243 C   0  0  0  0  0  0  0  0  0  0  0  0
   -5.9952    2.1689   27.8090 C   0  0  0  0  0  0  0  0  0  0  0  0
   -5.0889    1.0597   28.0891 C   0  0  0  0  0  0  0  0  0  0  0  0
   -5.5306   -0.2180   27.9273 C   0  0  0  0  0  0  0  0  0  0  0  0
   -7.5116    0.5684   27.0844 C   0  0  0  0  0  0  0  0  0  0  0  0
   -6.7768   -0.4302   27.4268 C   0  0  0  0  0  0  0  0  0  0  0  0
   -8.6580    7.7955   26.8309 N   0  0  0  0  0  0  0  0  0  0  0  0
   -6.8414    6.8062   27.7617 O   0  0  0  0  0  0  0  0  0  0  0  0
  3  4  1  0
  2  8  1  0
  4 14  1  0
  4 15  2  0
  1  2  2  0
  2  5  1  0
  5  6  2  0
  6  7  1  0
  7  3  2  0
  3  1  1  0
  8  9  2  0
  9 10  1  0
 10 11  2  0
 11 13  1  0
 13 12  2  0
 12  8  1  0
M  END
$$$$
