No_4392-complexes_sdf/6BKW-FPZ/2024-09-17-14-21-01/
     RDKit          3D

 28 31  0  0  0  0  0  0  0  0999 V2000
   -7.7129    4.2099   27.0854 C   0  0  0  0  0  0  0  0  0  0  0  0
   -8.2112    3.0637   26.9225 C   0  0  0  0  0  0  0  0  0  0  0  0
   -8.5108    5.3904   26.9436 C   0  0  0  0  0  0  0  0  0  0  0  0
   -9.7256    5.1955   26.3518 C   0  0  0  0  0  0  0  0  0  0  0  0
   -9.4995    2.8258   26.4878 C   0  0  0  0  0  0  0  0  0  0  0  0
  -10.2542    3.9691   26.2055 C   0  0  0  0  0  0  0  0  0  0  0  0
   -7.8124    6.9180   27.2380 Cl  0  0  0  0  0  0  0  0  0  0  0  0
   -7.2159    2.0520   27.3096 N   0  0  0  0  0  0  0  0  0  0  0  0
   -7.5078    0.7122   27.2785 C   0  0  0  0  0  0  0  0  0  0  0  0
   -6.4388   -0.1409   27.6640 C   0  0  0  0  0  0  0  0  0  0  0  0
   -6.5344   -1.4844   27.7756 C   0  0  0  0  0  0  0  0  0  0  0  0
   -7.7982   -1.9992   27.3394 C   0  0  0  0  0  0  0  0  0  0  0  0
   -8.8219   -1.2190   26.9300 C   0  0  0  0  0  0  0  0  0  0  0  0
   -8.6677    0.1412   26.9620 C   0  0  0  0  0  0  0  0  0  0  0  0
   -5.1422    0.4694   28.0624 C   0  0  1  0  0  0  0  0  0  0  0  0
   -4.8640    1.6775   28.1361 N   0  0  0  0  0  0  0  0  0  0  0  0
   -5.9276    2.5064   27.7698 C   0  0  0  0  0  0  0  0  0  0  0  0
   -4.0277   -0.4334   28.5559 C   0  0  0  0  0  0  0  0  0  0  0  0
   -3.3486   -1.0777   27.8352 C   0  0  0  0  0  0  0  0  0  0  0  0
   -2.1854   -1.8566   28.2932 C   0  0  0  0  0  0  0  0  0  0  0  0
   -3.8810   -0.5356   30.0085 C   0  0  0  0  0  0  0  0  0  0  0  0
   -2.7951   -1.2233   30.5720 C   0  0  0  0  0  0  0  0  0  0  0  0
   -1.9318   -1.8733   29.7215 C   0  0  0  0  0  0  0  0  0  0  0  0
  -11.5746    3.8219   25.5957 C   0  0  0  0  0  0  0  0  0  0  0  0
  -11.7829    3.7594   24.2287 C   0  0  0  0  0  0  0  0  0  0  0  0
  -10.6036    3.8024   23.3284 C   0  0  0  0  0  0  0  0  0  0  0  0
  -10.7769    3.8318   21.9430 C   0  0  0  0  0  0  0  0  0  0  0  0
   -9.6516    3.9140   21.0871 C   0  0  0  0  0  0  0  0  0  0  0  0
  3  7  1  0
  2  8  1  0
  8  9  1  0
 10 15  1  0
 15 16  1  0
  8 17  1  0
 15 18  1  1
  6 24  1  0
 24 25  2  3
 25 26  1  0
 26 27  2  3
 27 28  1  0
 16 17  1  0
  9 14  1  0
 14 13  2  0
 13 12  1  0
 12 11  2  0
 11 10  1  0
 10  9  2  0
  1  2  2  0
  2  5  1  0
  5  6  2  0
  6  4  1  0
  4  3  2  0
  3  1  1  0
 18 19  2  0
 19 20  1  0
 20 23  2  0
 23 22  1  0
 22 21  2  0
 21 18  1  0
M  END
$$$$
