No_4008-complexes_sdf/6BKW-FPZ/2024-09-17-14-21-01/
     RDKit          3D

 27 31  0  0  0  0  0  0  0  0999 V2000
   -7.2496    3.8871   27.4508 C   0  0  0  0  0  0  0  0  0  0  0  0
   -7.6161    2.7143   27.1523 C   0  0  0  0  0  0  0  0  0  0  0  0
   -7.1618    1.8631   27.5233 C   0  0  0  0  0  0  0  0  0  0  0  0
   -8.0384    5.0866   27.3232 C   0  0  0  0  0  0  0  0  0  0  0  0
   -9.1208    5.0561   26.6921 C   0  0  0  0  0  0  0  0  0  0  0  0
   -8.9505    2.6572   26.5814 C   0  0  0  0  0  0  0  0  0  0  0  0
   -9.4902    1.3987   26.1968 C   0  0  0  0  0  0  0  0  0  0  0  0
   -9.7044    3.8296   26.2746 C   0  0  0  0  0  0  0  0  0  0  0  0
   -7.4596    0.4154   27.2286 C   0  0  0  0  0  0  0  0  0  0  0  0
   -8.6841    0.2791   26.5537 C   0  0  0  0  0  0  0  0  0  0  0  0
   -7.4569    6.2584   27.7428 F   0  0  0  0  0  0  0  0  0  0  0  0
   -9.1211   -1.0757   26.2557 C   0  0  0  0  0  0  0  0  0  0  0  0
  -10.2828   -1.3865   26.0393 C   0  0  0  0  0  0  0  0  0  0  0  0
  -10.7435   -2.7144   25.7299 C   0  0  0  0  0  0  0  0  0  0  0  0
   -9.7603   -3.6539   25.6206 C   0  0  0  0  0  0  0  0  0  0  0  0
   -8.4704   -3.3780   25.8260 C   0  0  0  0  0  0  0  0  0  0  0  0
   -8.0222   -2.0782   26.1553 C   0  0  0  0  0  0  0  0  0  0  0  0
  -10.9431    3.8338   25.5358 C   0  0  0  0  0  0  0  0  0  0  0  0
  -11.4468    3.1702   24.8136 C   0  0  0  0  0  0  0  0  0  0  0  0
  -12.6690    3.2786   24.1151 C   0  0  0  0  0  0  0  0  0  0  0  0
  -13.3897    4.3451   24.5434 C   0  0  0  0  0  0  0  0  0  0  0  0
  -13.0380    5.1977   25.5717 C   0  0  0  0  0  0  0  0  0  0  0  0
  -11.8065    4.9676   26.2118 C   0  0  0  0  0  0  0  0  0  0  0  0
  -12.1405   -3.0146   25.4785 C   0  0  0  0  0  0  0  0  0  0  0  0
  -12.5598   -3.7843   24.7732 C   0  0  0  0  0  0  0  0  0  0  0  0
  -11.6916   -4.4757   23.9481 C   0  0  0  0  0  0  0  0  0  0  0  0
  -10.3108   -4.6306   24.4917 C   0  0  0  0  0  0  0  0  0  0  0  0
  4 11  1  0
 10 12  1  0
  8 18  1  0
 12 13  2  0
 13 14  1  0
 15 16  1  0
 16 17  2  0
 17 12  1  0
 18 19  2  0
 19 20  1  0
 20 21  2  0
 21 22  1  0
 22 23  2  0
 23 18  1  0
  1  2  2  0
  6  8  2  0
  8  5  1  0
  5  4  2  0
  4  1  1  0
  2  3  1  0
  3  9  2  0
  9 10  1  0
 10  7  2  0
  7  6  1  0
  6  2  1  0
 14 15  2  0
 15 27  1  0
 27 26  2  0
 26 25  1  0
 25 24  2  0
 24 14  1  0
M  END
$$$$
