No_4007-complexes_sdf/6BKW-FPZ/2024-09-17-14-21-01/
     RDKit          3D

 15 17  0  0  0  0  0  0  0  0999 V2000
   -7.7129    4.2099   27.0854 C   0  0  0  0  0  0  0  0  0  0  0  0
   -8.9133    4.4736   27.0998 C   0  0  0  0  0  0  0  0  0  0  0  0
   -9.8363    3.8127   27.2418 C   0  0  0  0  0  0  0  0  0  0  0  0
   -7.2995    2.8520   27.3808 C   0  0  0  0  0  0  0  0  0  0  0  0
   -8.3404    1.9507   27.4989 C   0  0  0  0  0  0  0  0  0  0  0  0
   -9.6166    2.3791   27.4719 C   0  0  0  0  0  0  0  0  0  0  0  0
   -9.2158    6.2712   26.8813 Cl  0  0  0  0  0  0  0  0  0  0  0  0
   -8.2292    0.4763   27.7018 C   0  0  0  0  0  0  0  0  0  0  0  0
   -6.9059   -0.0415   27.6918 C   0  0  0  0  0  0  0  0  0  0  0  0
   -6.5072   -1.1165   27.9038 C   0  0  0  0  0  0  0  0  0  0  0  0
   -5.1036   -1.4988   27.9167 C   0  0  0  0  0  0  0  0  0  0  0  0
   -4.1100   -0.5552   27.6145 C   0  0  0  0  0  0  0  0  0  0  0  0
   -4.5433    0.7190   27.2978 C   0  0  0  0  0  0  0  0  0  0  0  0
   -5.8804    1.0899   27.4282 C   0  0  0  0  0  0  0  0  0  0  0  0
   -6.2282    2.4092   27.2774 N   0  0  0  0  0  0  0  0  0  0  0  0
  2  7  1  0
  5  8  2  0
  8  9  1  0
 14 15  1  0
 15  4  2  0
  1  2  2  0
  2  3  1  0
  3  6  2  0
  6  5  1  0
  5  4  1  0
  4  1  1  0
  9 10  2  0
 10 11  1  0
 11 12  2  0
 12 13  1  0
 13 14  2  0
 14  9  1  0
M  END
$$$$
