No_4163-complexes_sdf/6BKW-FPZ/2024-09-17-14-21-01/
     RDKit          3D

 18 20  0  0  0  0  0  0  0  0999 V2000
   -7.9040    3.9820   27.1177 C   0  0  0  0  0  0  0  0  0  0  0  0
   -8.2057    2.8231   26.8733 C   0  0  0  0  0  0  0  0  0  0  0  0
   -7.0130    4.3706   28.1140 C   0  0  0  0  0  0  0  0  0  0  0  0
   -9.3829    2.4374   26.1668 C   0  0  0  0  0  0  0  0  0  0  0  0
  -10.0975    3.4171   25.5988 C   0  0  0  0  0  0  0  0  0  0  0  0
   -9.7335    4.7745   25.7705 C   0  0  0  0  0  0  0  0  0  0  0  0
   -8.7317    5.1107   26.5933 C   0  0  0  0  0  0  0  0  0  0  0  0
   -8.3983    6.4679   26.8933 C   0  0  0  0  0  0  0  0  0  0  0  0
   -9.1892    7.5617   26.5156 C   0  0  0  0  0  0  0  0  0  0  0  0
   -7.0679    6.6051   27.5874 C   0  0  0  0  0  0  0  0  0  0  0  0
   -6.6270    5.6836   28.3143 C   0  0  0  0  0  0  0  0  0  0  0  0
   -9.6718    1.0170   25.8224 C   0  0  0  0  0  0  0  0  0  0  0  0
   -9.4152    0.5642   24.8257 C   0  0  0  0  0  0  0  0  0  0  0  0
   -8.8964    1.4126   23.7083 C   0  0  0  0  0  0  0  0  0  0  0  0
   -8.6393    0.8785   22.3748 C   0  0  0  0  0  0  0  0  0  0  0  0
   -8.8406   -0.4590   22.1899 C   0  0  0  0  0  0  0  0  0  0  0  0
   -9.2804   -1.3378   23.1630 C   0  0  0  0  0  0  0  0  0  0  0  0
   -9.5414   -0.8325   24.3833 C   0  0  0  0  0  0  0  0  0  0  0  0
  8  9  1  0
  4 12  1  0
 12 13  1  0
 13 14  2  0
 14 15  1  0
 15 16  2  0
 16 17  1  0
 17 18  2  0
 18 13  1  0
  1  3  1  0
  3 11  2  0
 11 10  1  0
 10  8  2  0
  8  7  1  0
  1  2  2  0
  2  4  1  0
  4  5  2  0
  5  6  1  0
  6  7  2  0
  7  1  1  0
M  END
$$$$
