No_4835-complexes_sdf/6BKW-FPZ/2024-09-17-14-21-01/
     RDKit          3D

 40 44  0  0  0  0  0  0  0  0999 V2000
   -7.9040    3.9820   27.1177 C   0  0  0  0  0  0  0  0  0  0  0  0
   -7.8663    4.8694   27.9238 C   0  0  0  0  0  0  0  0  0  0  0  0
   -9.0491    3.8523   26.2542 C   0  0  0  0  0  0  0  0  0  0  0  0
   -8.7661    5.9491   27.9690 C   0  0  0  0  0  0  0  0  0  0  0  0
   -9.9295    4.8502   26.2323 C   0  0  0  0  0  0  0  0  0  0  0  0
   -9.8077    5.9288   27.0933 C   0  0  0  0  0  0  0  0  0  0  0  0
   -8.8733    2.7302   25.3952 N   0  0  0  0  0  0  0  0  0  0  0  0
   -8.7192    1.5100   25.8479 C   0  0  0  0  0  0  0  0  0  0  0  0
   -9.5556    0.6297   25.7570 C   0  0  2  0  0  0  0  0  0  0  0  0
   -9.4119   -0.4437   26.3451 O   0  0  0  0  0  0  0  0  0  0  0  0
  -10.6303    0.6578   24.9080 N   0  0  0  0  0  0  0  0  0  0  0  0
  -11.5800   -0.3248   24.7304 C   0  0  0  0  0  0  0  0  0  0  0  0
   -7.4871    1.3719   26.3398 O   0  0  0  0  0  0  0  0  0  0  0  0
  -12.4277   -0.0755   23.9621 C   0  0  0  0  0  0  0  0  0  0  0  0
  -12.4330    1.0021   23.1459 C   0  0  0  0  0  0  0  0  0  0  0  0
  -11.4323    2.0030   23.2216 C   0  0  0  0  0  0  0  0  0  0  0  0
  -10.5366    1.7908   24.0261 C   0  0  1  0  0  0  0  0  0  0  0  0
   -9.7646    2.7630   24.2493 C   0  0  0  0  0  0  0  0  0  0  0  0
  -11.5520    3.1690   22.3161 C   0  0  0  0  0  0  0  0  0  0  0  0
  -11.8485    3.0376   21.1781 C   0  0  0  0  0  0  0  0  0  0  0  0
  -12.8855    2.1237   20.8327 C   0  0  0  0  0  0  0  0  0  0  0  0
  -13.2042    1.0574   21.8005 C   0  0  0  0  0  0  0  0  0  0  0  0
   -8.3014   -1.1332   26.5378 C   0  0  0  0  0  0  0  0  0  0  0  0
   -8.4187   -1.9958   27.5402 C   0  0  0  0  0  0  0  0  0  0  0  0
   -9.1975   -2.3852   28.2474 C   0  0  0  0  0  0  0  0  0  0  0  0
  -10.5877   -1.7855   28.1129 C   0  0  0  0  0  0  0  0  0  0  0  0
  -10.6624   -0.5322   28.1335 C   0  0  0  0  0  0  0  0  0  0  0  0
  -11.8160    0.2165   28.5285 N   0  0  0  0  0  0  0  0  0  0  0  0
  -11.9086    1.6078   28.4797 C   0  0  0  0  0  0  0  0  0  0  0  0
  -10.9324    2.2744   28.0709 O   0  0  0  0  0  0  0  0  0  0  0  0
  -13.1028    2.2504   29.0030 C   0  0  0  0  0  0  0  0  0  0  0  0
  -13.8524    1.8180   29.6727 N   0  0  0  0  0  0  0  0  0  0  0  0
  -13.2460    3.6532   28.4872 C   0  0  0  0  0  0  0  0  0  0  0  0
  -14.9684    2.4424   30.2970 C   0  0  0  0  0  0  0  0  0  0  0  0
  -14.3108    4.4138   29.0378 C   0  0  0  0  0  0  0  0  0  0  0  0
  -14.5614    5.7491   28.5935 C   0  0  0  0  0  0  0  0  0  0  0  0
  -15.2009    3.7644   29.9549 C   0  0  0  0  0  0  0  0  0  0  0  0
  -15.2921    6.5808   29.3976 C   0  0  0  0  0  0  0  0  0  0  0  0
  -15.5737    7.8911   28.9914 C   0  0  0  0  0  0  0  0  0  0  0  0
  -16.5272    8.4731   28.7385 C   0  0  0  0  0  0  0  0  0  0  0  0
  3  7  1  0
  7  8  1  0
  8  9  1  0
  9 10  1  6
  9 11  1  0
 11 12  1  0
  8 13  2  0
 14 15  1  0
 11 17  1  0
 16 17  1  0
  7 18  1  0
 17 18  1  1
 10 23  1  0
 23 24  2  3
 24 25  1  0
 25 26  1  0
 26 27  1  0
 27 28  1  0
 28 29  1  0
 29 30  2  0
 29 31  1  0
 35 36  1  0
 36 38  2  3
 38 39  1  0
 39 40  2  0
 12 14  1  0
 15 22  2  0
 22 21  1  0
 21 20  2  0
 20 19  1  0
 19 16  2  0
 16 15  1  0
 31 32  2  0
 32 34  1  0
 34 37  2  0
 37 35  1  0
 35 33  2  0
 33 31  1  0
  1  2  2  0
  2  4  1  0
  4  6  2  0
  6  5  1  0
  5  3  2  0
  3  1  1  0
M  END
$$$$
