No_4454-complexes_sdf/6BKW-FPZ/2024-09-17-14-21-01/
     RDKit          3D

 31 35  0  0  0  0  0  0  0  0999 V2000
   -7.2496    3.8871   27.4508 C   0  0  0  0  0  0  0  0  0  0  0  0
   -8.5096    4.0291   27.2770 C   0  0  2  0  0  0  0  0  0  0  0  0
   -9.3451    2.8786   26.9046 C   0  0  2  0  0  0  0  0  0  0  0  0
  -10.6709    3.0505   26.6789 C   0  0  2  0  0  0  0  0  0  0  0  0
   -6.6727    2.6274   27.4797 N   0  0  0  0  0  0  0  0  0  0  0  0
   -7.3915    1.5417   27.2567 C   0  0  1  0  0  0  0  0  0  0  0  0
   -8.7202    1.6904   27.0096 C   0  0  0  0  0  0  0  0  0  0  0  0
   -9.1069    5.3701   27.1979 C   0  0  1  0  0  0  0  0  0  0  0  0
  -11.3787    4.0774   27.5994 C   0  0  1  0  0  0  0  0  0  0  0  0
  -10.5680    5.3672   27.5721 C   0  0  0  0  0  0  0  0  0  0  0  0
   -6.7017    0.3834   27.2347 N   0  0  0  0  0  0  0  0  0  0  0  0
   -5.3654    0.3126   27.6921 C   0  0  0  0  0  0  0  0  0  0  0  0
   -4.8433   -0.5389   28.2924 C   0  0  2  0  0  0  0  0  0  0  0  0
   -5.4670   -1.6740   28.7714 C   0  0  0  0  0  0  0  0  0  0  0  0
   -6.7951   -1.7916   28.2673 C   0  0  0  0  0  0  0  0  0  0  0  0
   -7.5032   -0.5508   28.1879 C   0  0  0  0  0  0  0  0  0  0  0  0
   -8.4666    6.5539   27.0042 C   0  0  0  0  0  0  0  0  0  0  0  0
   -7.8414    7.6179   27.1061 N   0  0  0  0  0  0  0  0  0  0  0  0
   -3.3112   -0.4346   28.7098 C   0  0  0  0  0  0  0  0  0  0  0  0
   -3.1066   -0.0127   29.8501 F   0  0  0  0  0  0  0  0  0  0  0  0
   -2.6795    0.4153   27.7855 F   0  0  0  0  0  0  0  0  0  0  0  0
   -2.7158   -1.6013   28.5957 F   0  0  0  0  0  0  0  0  0  0  0  0
  -11.5376    2.0817   26.1830 C   0  0  0  0  0  0  0  0  0  0  0  0
  -12.7230    2.4939   25.6899 C   0  0  0  0  0  0  0  0  0  0  0  0
  -13.0878    2.2539   24.7339 C   0  0  0  0  0  0  0  0  0  0  0  0
  -14.4339    2.6713   24.1240 C   0  0  0  0  0  0  0  0  0  0  0  0
  -15.1967    3.5513   24.8606 C   0  0  0  0  0  0  0  0  0  0  0  0
  -14.7093    3.9397   26.1007 C   0  0  0  0  0  0  0  0  0  0  0  0
  -13.4725    3.4672   26.5450 C   0  0  0  0  0  0  0  0  0  0  0  0
  -12.7302    4.4653   26.9109 C   0  0  0  0  0  0  0  0  0  0  0  0
  -11.5427    3.5646   29.0014 C   0  0  0  0  0  0  0  0  0  0  0  0
  2  1  1  6
  2  3  1  0
  1  5  1  0
  5  6  1  0
  3  7  1  1
  6  7  1  0
  2  8  1  0
  4  9  1  0
  9 10  1  0
  6 11  1  6
 11 12  1  0
 13 14  1  0
 11 16  1  0
 15 16  1  0
  8 17  1  1
 17 18  3  0
 13 19  1  1
 19 20  1  0
 19 21  1  0
 19 22  1  0
  4 23  1  1
 23 24  1  0
  9 30  1  0
 29 30  1  0
  9 31  1  1
 12 13  1  0
 14 15  1  0
  4  3  1  0
  8 10  1  0
 24 25  2  0
 25 26  1  0
 26 27  2  0
 27 28  1  0
 28 29  2  0
 29 24  1  0
M  END
$$$$
