No_4533-complexes_sdf/6BKW-FPZ/2024-09-17-14-21-01/
     RDKit          3D

 30 34  0  0  0  0  0  0  0  0999 V2000
   -7.2496    3.8871   27.4508 C   0  0  0  0  0  0  0  0  0  0  0  0
   -8.5096    4.0291   27.2770 C   0  0  0  0  0  0  0  0  0  0  0  0
   -9.3502    2.8685   26.8763 C   0  0  0  0  0  0  0  0  0  0  0  0
   -6.4573    5.0085   27.9854 C   0  0  0  0  0  0  0  0  0  0  0  0
   -9.1981    5.2037   27.6491 C   0  0  0  0  0  0  0  0  0  0  0  0
   -8.4588    6.3530   27.9878 C   0  0  0  0  0  0  0  0  0  0  0  0
   -7.1111    6.2009   28.1683 C   0  0  0  0  0  0  0  0  0  0  0  0
   -8.8055    1.7302   26.6282 N   0  0  0  0  0  0  0  0  0  0  0  0
   -9.5774    0.6933   26.2090 C   0  0  0  0  0  0  0  0  0  0  0  0
  -10.6133    2.6264   27.5285 C   0  0  0  0  0  0  0  0  0  0  0  0
   -8.9270   -0.3841   25.6017 C   0  0  2  0  0  0  0  0  0  0  0  0
  -10.9233    0.6348   26.4518 C   0  0  0  0  0  0  0  0  0  0  0  0
  -11.5308    1.7164   27.0977 C   0  0  0  0  0  0  0  0  0  0  0  0
   -7.9928   -0.9928   26.0567 N   0  0  0  0  0  0  0  0  0  0  0  0
   -7.6782   -0.9648   27.2658 C   0  0  0  0  0  0  0  0  0  0  0  0
   -6.6482   -1.0974   27.9196 C   0  0  0  0  0  0  0  0  0  0  0  0
   -5.3608   -0.9084   27.2973 C   0  0  0  0  0  0  0  0  0  0  0  0
   -5.4699   -1.1464   25.8888 C   0  0  2  0  0  0  0  0  0  0  0  0
   -4.2817   -1.1780   25.0655 C   0  0  0  0  0  0  0  0  0  0  0  0
   -6.7241   -1.0760   25.2047 C   0  0  2  0  0  0  0  0  0  0  0  0
   -3.4370   -2.0552   25.5027 O   0  0  0  0  0  0  0  0  0  0  0  0
   -6.8962   -0.9946   23.9093 N   0  0  0  0  0  0  0  0  0  0  0  0
   -7.7398   -0.4337   23.1685 C   0  0  0  0  0  0  0  0  0  0  0  0
   -8.9835   -0.1481   24.1173 C   0  0  0  0  0  0  0  0  0  0  0  0
  -10.1515    0.3219   23.3831 C   0  0  0  0  0  0  0  0  0  0  0  0
   -9.9902    1.3412   22.6464 C   0  0  0  0  0  0  0  0  0  0  0  0
  -11.0931    2.0153   21.9843 C   0  0  0  0  0  0  0  0  0  0  0  0
  -12.3190    1.4262   22.1124 C   0  0  0  0  0  0  0  0  0  0  0  0
  -12.4510    0.2948   22.9185 C   0  0  0  0  0  0  0  0  0  0  0  0
  -11.4119   -0.2328   23.5879 C   0  0  0  0  0  0  0  0  0  0  0  0
  2  3  1  0
 11  9  1  1
 11 14  1  0
 14 15  1  0
 16 17  1  0
 17 18  1  0
 18 19  1  6
 14 20  1  0
 18 20  1  0
 19 21  1  0
 20 22  1  6
 11 24  1  0
 23 24  1  0
 24 25  1  0
 15 16  1  0
 23 22  1  0
 25 26  2  0
 26 27  1  0
 27 28  2  0
 28 29  1  0
 29 30  2  0
 30 25  1  0
  3  8  2  0
  8  9  1  0
  9 12  2  0
 12 13  1  0
 13 10  2  0
 10  3  1  0
  1  2  2  0
  2  5  1  0
  5  6  2  0
  6  7  1  0
  7  4  2  0
  4  1  1  0
M  END
$$$$
