No_4772-complexes_sdf/6BKW-FPZ/2024-09-17-14-21-01/
     RDKit          3D

 23 25  0  0  0  0  0  0  0  0999 V2000
   -7.2496    3.8871   27.4508 C   0  0  0  0  0  0  0  0  0  0  0  0
   -7.9379    4.9063   27.8518 C   0  0  0  0  0  0  0  0  0  0  0  0
   -9.3460    4.8223   27.8695 C   0  0  0  0  0  0  0  0  0  0  0  0
   -7.8628    2.6163   27.1065 C   0  0  0  0  0  0  0  0  0  0  0  0
   -7.1773    1.4959   26.7593 C   0  0  0  0  0  0  0  0  0  0  0  0
   -9.2781    2.5892   27.1482 C   0  0  0  0  0  0  0  0  0  0  0  0
  -10.0064    3.6800   27.5696 C   0  0  0  0  0  0  0  0  0  0  0  0
   -7.6962    0.5823   25.9946 N   0  0  0  0  0  0  0  0  0  0  0  0
   -8.1797   -0.4798   26.4155 C   0  0  0  0  0  0  0  0  0  0  0  0
   -7.8581   -0.9559   27.5542 C   0  0  0  0  0  0  0  0  0  0  0  0
   -6.9682   -1.4157   27.9228 C   0  0  0  0  0  0  0  0  0  0  0  0
   -5.7846   -1.5066   27.1440 C   0  0  0  0  0  0  0  0  0  0  0  0
   -5.6460   -1.7685   26.0558 C   0  0  0  0  0  0  0  0  0  0  0  0
   -4.3630   -1.9102   25.3306 C   0  0  0  0  0  0  0  0  0  0  0  0
   -3.2016   -1.5135   26.0085 C   0  0  0  0  0  0  0  0  0  0  0  0
   -3.3091   -1.1205   27.3237 C   0  0  0  0  0  0  0  0  0  0  0  0
   -4.4568   -1.1026   27.9689 C   0  0  0  0  0  0  0  0  0  0  0  0
   -4.5502   -0.6578   29.4134 C   0  0  0  0  0  0  0  0  0  0  0  0
   -3.8288    0.5228   29.7787 C   0  0  0  0  0  0  0  0  0  0  0  0
   -4.3468   -1.8527   30.3472 C   0  0  0  0  0  0  0  0  0  0  0  0
   -4.6336   -1.5130   31.5723 C   0  0  0  0  0  0  0  0  0  0  0  0
   -3.8870   -0.3076   32.2057 C   0  0  0  0  0  0  0  0  0  0  0  0
   -3.8271    0.8469   31.2195 C   0  0  0  0  0  0  0  0  0  0  0  0
  4  5  1  0
  5  8  1  0
  8  9  1  0
  9 10  3  0
 10 11  1  0
 11 12  1  0
 17 18  1  0
 12 13  2  0
 13 14  1  0
 14 15  2  0
 15 16  1  0
 16 17  2  0
 17 12  1  0
 18 19  2  0
 19 23  1  0
 23 22  2  0
 22 21  1  0
 21 20  2  0
 20 18  1  0
  1  2  2  0
  2  3  1  0
  3  7  2  0
  7  6  1  0
  6  4  2  0
  4  1  1  0
M  END
$$$$
