No_4161-complexes_sdf/6BKW-FPZ/2024-09-17-14-21-01/
     RDKit          3D

 35 39  0  0  0  0  0  0  0  0999 V2000
   -7.2496    3.8871   27.4508 C   0  0  0  0  0  0  0  0  0  0  0  0
   -7.9379    4.9063   27.8518 C   0  0  0  0  0  0  0  0  0  0  0  0
   -9.3460    4.8223   27.8695 C   0  0  0  0  0  0  0  0  0  0  0  0
   -7.8628    2.6163   27.1065 C   0  0  0  0  0  0  0  0  0  0  0  0
   -9.2787    2.5744   27.1970 C   0  0  0  0  0  0  0  0  0  0  0  0
  -10.0108    3.6770   27.6340 C   0  0  0  0  0  0  0  0  0  0  0  0
  -11.4834    3.5674   27.7432 C   0  0  2  0  0  0  0  0  0  0  0  0
  -12.3295    3.8838   27.2730 C   0  0  0  0  0  0  0  0  0  0  0  0
  -13.7362    3.9080   27.5861 C   0  0  0  0  0  0  0  0  0  0  0  0
  -13.8786    3.2178   28.7549 C   0  0  1  0  0  0  0  0  0  0  0  0
  -12.2189    2.9560   29.1042 C   0  0  0  0  0  0  0  0  0  0  0  0
   -7.0988    1.4815   26.7482 C   0  0  0  0  0  0  0  0  0  0  0  0
   -7.6883    0.5153   25.9297 C   0  0  0  0  0  0  0  0  0  0  0  0
   -6.9624   -0.6245   25.5797 C   0  0  0  0  0  0  0  0  0  0  0  0
   -5.6910   -0.8396   26.1522 C   0  0  0  0  0  0  0  0  0  0  0  0
   -5.1735    0.0819   27.0731 C   0  0  0  0  0  0  0  0  0  0  0  0
   -5.8617    1.2212   27.4015 C   0  0  0  0  0  0  0  0  0  0  0  0
   -7.3129    6.0850   28.1581 O   0  0  0  0  0  0  0  0  0  0  0  0
  -14.8015    2.8031   29.6321 C   0  0  2  0  0  0  0  0  0  0  0  0
  -14.9582    3.2680   30.9080 C   0  0  0  0  0  0  0  0  0  0  0  0
  -14.5409    3.1457   31.8856 C   0  0  0  0  0  0  0  0  0  0  0  0
  -14.6870    3.8553   33.2062 C   0  0  0  0  0  0  0  0  0  0  0  0
  -15.6281    4.8452   33.1582 C   0  0  0  0  0  0  0  0  0  0  0  0
  -16.2678    5.1508   31.9551 C   0  0  0  0  0  0  0  0  0  0  0  0
  -15.9328    4.5092   30.8113 C   0  0  0  0  0  0  0  0  0  0  0  0
  -15.4229    1.5874   29.2486 C   0  0  0  0  0  0  0  0  0  0  0  0
  -15.0948    0.6305   29.0703 C   0  0  0  0  0  0  0  0  0  0  0  0
  -13.6011    0.1722   29.2340 C   0  0  0  0  0  0  0  0  0  0  0  0
  -13.1014   -1.1475   28.8988 C   0  0  0  0  0  0  0  0  0  0  0  0
  -12.0878   -1.5764   29.5669 C   0  0  0  0  0  0  0  0  0  0  0  0
  -11.8903   -2.7944   29.7192 C   0  0  0  0  0  0  0  0  0  0  0  0
  -10.6847   -3.3158   30.4405 C   0  0  0  0  0  0  0  0  0  0  0  0
   -9.6322   -2.4895   30.5970 C   0  0  0  0  0  0  0  0  0  0  0  0
   -9.6845   -1.2019   29.9607 C   0  0  0  0  0  0  0  0  0  0  0  0
  -10.8701   -0.7720   29.4691 C   0  0  0  0  0  0  0  0  0  0  0  0
  7  6  1  1
  7  8  1  0
  8  9  2  0
  9 10  1  0
  7 11  1  0
 10 11  1  1
  4 12  1  0
  2 18  1  0
 10 19  1  0
 19 20  1  1
 19 26  1  0
 26 27  2  3
 27 28  1  0
 28 29  2  3
 29 30  1  0
 12 13  2  0
 13 14  1  0
 14 15  2  0
 15 16  1  0
 16 17  2  0
 17 12  1  0
  1  2  2  0
  2  3  1  0
  3  6  2  0
  6  5  1  0
  5  4  2  0
  4  1  1  0
 30 31  2  0
 31 32  1  0
 32 33  2  0
 33 34  1  0
 34 35  2  0
 35 30  1  0
 20 21  2  0
 21 22  1  0
 22 23  2  0
 23 24  1  0
 24 25  2  0
 25 20  1  0
M  END
$$$$
