No_4336-complexes_sdf/6BKW-FPZ/2024-09-17-14-21-01/
     RDKit          3D

  9  9  0  0  0  0  0  0  0  0999 V2000
   -7.9040    3.9820   27.1177 C   0  0  0  0  0  0  0  0  0  0  0  0
   -8.2057    2.8231   26.8733 C   0  0  0  0  0  0  0  0  0  0  0  0
   -7.4766    1.7477   27.4593 C   0  0  0  0  0  0  0  0  0  0  0  0
   -8.7468    5.1251   26.6967 C   0  0  0  0  0  0  0  0  0  0  0  0
   -8.4775    6.4967   27.1056 C   0  0  0  0  0  0  0  0  0  0  0  0
   -6.1091    2.0776   27.8409 C   0  0  0  0  0  0  0  0  0  0  0  0
   -5.7375    3.4302   27.9848 C   0  0  0  0  0  0  0  0  0  0  0  0
   -6.5927    4.3940   27.6228 C   0  0  0  0  0  0  0  0  0  0  0  0
   -9.7255    4.9157   25.6729 C   0  0  0  0  0  0  0  0  0  0  0  0
  1  4  1  0
  4  5  1  0
  4  9  1  0
  1  2  2  0
  2  3  1  0
  3  6  2  0
  6  7  1  0
  7  8  2  0
  8  1  1  0
M  END
$$$$
