No_4375-complexes_sdf/6BKW-FPZ/2024-09-17-14-21-01/
     RDKit          3D

 19 21  0  0  0  0  0  0  0  0999 V2000
   -7.9040    3.9820   27.1177 C   0  0  0  0  0  0  0  0  0  0  0  0
   -7.8663    4.8694   27.9238 C   0  0  0  0  0  0  0  0  0  0  0  0
   -9.0491    3.8523   26.2542 C   0  0  0  0  0  0  0  0  0  0  0  0
   -8.6019    5.9544   27.7203 C   0  0  0  0  0  0  0  0  0  0  0  0
   -9.7899    4.9178   26.0328 C   0  0  0  0  0  0  0  0  0  0  0  0
   -9.5972    6.0466   26.8396 C   0  0  0  0  0  0  0  0  0  0  0  0
   -7.1080    2.6736   27.3654 C   0  0  0  0  0  0  0  0  0  0  0  0
   -5.8974    2.7606   28.0361 C   0  0  0  0  0  0  0  0  0  0  0  0
   -5.0766    1.6223   28.1546 C   0  0  0  0  0  0  0  0  0  0  0  0
   -5.5413    0.3909   27.7401 C   0  0  0  0  0  0  0  0  0  0  0  0
   -7.5350    1.4372   26.9244 C   0  0  0  0  0  0  0  0  0  0  0  0
   -6.8307    0.3163   27.1674 C   0  0  0  0  0  0  0  0  0  0  0  0
   -4.7506   -0.7920   28.0049 C   0  0  0  0  0  0  0  0  0  0  0  0
   -3.7319   -0.9283   28.4327 C   0  0  0  0  0  0  0  0  0  0  0  0
   -2.9104   -2.1374   28.6858 C   0  0  0  0  0  0  0  0  0  0  0  0
   -1.6698   -2.1212   29.1668 C   0  0  0  0  0  0  0  0  0  0  0  0
   -0.9733   -0.9347   29.3739 C   0  0  0  0  0  0  0  0  0  0  0  0
   -1.6526    0.2655   29.0695 C   0  0  0  0  0  0  0  0  0  0  0  0
   -2.8465    0.2986   28.6720 C   0  0  0  0  0  0  0  0  0  0  0  0
  1  7  1  0
 10 13  1  0
 13 14  1  0
  7  8  2  0
  8  9  1  0
  9 10  2  0
 10 12  1  0
 12 11  2  0
 11  7  1  0
 14 15  2  0
 15 16  1  0
 16 17  2  0
 17 18  1  0
 18 19  2  0
 19 14  1  0
  1  2  2  0
  2  4  1  0
  4  6  2  0
  6  5  1  0
  5  3  2  0
  3  1  1  0
M  END
$$$$
