No_4677-complexes_sdf/6BKW-FPZ/2024-09-17-14-21-01/
     RDKit          3D

 15 16  0  0  0  0  0  0  0  0999 V2000
   -7.7129    4.2099   27.0854 C   0  0  0  0  0  0  0  0  0  0  0  0
   -8.2112    3.0637   26.9225 C   0  0  0  0  0  0  0  0  0  0  0  0
   -9.4446    2.8304   26.1868 C   0  0  0  0  0  0  0  0  0  0  0  0
   -8.4697    5.3956   26.7238 C   0  0  0  0  0  0  0  0  0  0  0  0
   -9.6172    5.2111   25.9513 C   0  0  0  0  0  0  0  0  0  0  0  0
  -10.0424    3.9782   25.6873 C   0  0  0  0  0  0  0  0  0  0  0  0
   -7.5594    1.9037   27.3886 N   0  0  0  0  0  0  0  0  0  0  0  0
   -8.0061    0.6290   27.3328 C   0  0  0  0  0  0  0  0  0  0  0  0
   -7.1336   -0.3928   27.7037 C   0  0  0  0  0  0  0  0  0  0  0  0
   -6.1821    1.9583   27.6977 C   0  0  0  0  0  0  0  0  0  0  0  0
   -5.4580    0.9406   28.0939 N   0  0  0  0  0  0  0  0  0  0  0  0
   -5.9164   -0.2526   28.1323 C   0  0  0  0  0  0  0  0  0  0  0  0
   -7.9662    6.7458   27.0278 C   0  0  0  0  0  0  0  0  0  0  0  0
   -8.4979    7.8223   26.5899 O   0  0  0  0  0  0  0  0  0  0  0  0
   -6.9402    6.7953   27.8901 O   0  0  0  0  0  0  0  0  0  0  0  0
  2  7  1  0
  7  8  1  0
  7 10  1  0
 10 11  1  0
  9 12  1  0
  4 13  1  0
 13 14  2  0
 13 15  1  0
  8  9  1  0
 12 11  1  0
  1  2  2  0
  2  3  1  0
  3  6  2  0
  6  5  1  0
  5  4  2  0
  4  1  1  0
M  END
$$$$
