No_4808-complexes_sdf/6BKW-FPZ/2024-09-17-14-21-01/
     RDKit          3D

 28 30  0  0  0  0  0  0  0  0999 V2000
   -7.7129    4.2099   27.0854 C   0  0  0  0  0  0  0  0  0  0  0  0
   -8.2112    3.0637   26.9225 C   0  0  0  0  0  0  0  0  0  0  0  0
   -7.5138    1.9223   27.4249 C   0  0  0  0  0  0  0  0  0  0  0  0
   -8.5309    5.4147   26.8151 C   0  0  0  0  0  0  0  0  0  0  0  0
   -9.6817    5.2393   26.1100 C   0  0  0  0  0  0  0  0  0  0  0  0
  -10.1032    3.9957   25.8534 C   0  0  0  0  0  0  0  0  0  0  0  0
   -9.4035    2.8430   26.2573 C   0  0  0  0  0  0  0  0  0  0  0  0
   -6.8643    1.0176   26.6720 C   0  0  1  0  0  0  0  0  0  0  0  0
   -6.0028    0.0949   27.2696 C   0  0  0  0  0  0  0  0  0  0  0  0
   -5.0332    0.5768   28.1193 C   0  0  0  0  0  0  0  0  0  0  0  0
   -4.1795   -0.3375   28.8214 C   0  0  0  0  0  0  0  0  0  0  0  0
   -4.2211   -1.6226   28.5026 C   0  0  0  0  0  0  0  0  0  0  0  0
   -5.9878   -1.2579   27.1144 C   0  0  0  0  0  0  0  0  0  0  0  0
   -5.1508   -2.1199   27.6873 C   0  0  0  0  0  0  0  0  0  0  0  0
   -7.9865    6.7686   27.0588 C   0  0  0  0  0  0  0  0  0  0  0  0
   -7.0518    6.8585   27.8922 O   0  0  0  0  0  0  0  0  0  0  0  0
   -8.3166    7.8853   26.3462 N   0  0  0  0  0  0  0  0  0  0  0  0
   -3.0185    0.3910   29.9281 Cl  0  0  0  0  0  0  0  0  0  0  0  0
  -11.2508    3.8614   25.1655 F   0  0  0  0  0  0  0  0  0  0  0  0
   -7.6715    0.3890   25.7721 O   0  0  0  0  0  0  0  0  0  0  0  0
   -7.2422    0.2249   24.5201 C   0  0  0  0  0  0  0  0  0  0  0  0
   -8.3583    0.0928   23.5673 C   0  0  0  0  0  0  0  0  0  0  0  0
   -9.1148   -0.8913   23.7229 C   0  0  0  0  0  0  0  0  0  0  0  0
  -10.3313   -0.9913   22.8590 C   0  0  0  0  0  0  0  0  0  0  0  0
  -11.2420   -2.0481   22.9562 C   0  0  0  0  0  0  0  0  0  0  0  0
  -11.0526   -2.9353   23.9944 C   0  0  0  0  0  0  0  0  0  0  0  0
  -10.0398   -2.8539   24.8804 C   0  0  0  0  0  0  0  0  0  0  0  0
   -9.1330   -1.8709   24.7752 C   0  0  0  0  0  0  0  0  0  0  0  0
  2  3  1  0
  8  3  1  1
  8  9  1  0
  4 15  1  0
 15 16  2  0
 15 17  1  0
 11 18  1  0
  6 19  1  0
  8 20  1  0
 20 21  1  0
 21 22  2  3
 22 23  1  0
 23 24  2  0
 24 25  1  0
 25 26  2  0
 26 27  1  0
 27 28  2  0
 28 23  1  0
  1  2  2  0
  2  7  1  0
  7  6  2  0
  6  5  1  0
  5  4  2  0
  4  1  1  0
  9 10  2  0
 10 11  1  0
 11 12  2  0
 12 14  1  0
 14 13  2  0
 13  9  1  0
M  END
$$$$
