No_4958-complexes_sdf/6BKW-FPZ/2024-09-17-14-21-01/
     RDKit          3D

 35 39  0  0  0  0  0  0  0  0999 V2000
   -7.9040    3.9820   27.1177 C   0  0  0  0  0  0  0  0  0  0  0  0
   -9.0711    4.3164   27.0630 C   0  0  0  0  0  0  0  0  0  0  0  0
   -9.5294    5.4517   27.7215 C   0  0  0  0  0  0  0  0  0  0  0  0
   -7.4336    2.7132   26.5681 C   0  0  0  0  0  0  0  0  0  0  0  0
   -8.3353    1.8569   26.0442 C   0  0  0  0  0  0  0  0  0  0  0  0
   -9.6477    2.2853   25.9146 C   0  0  0  0  0  0  0  0  0  0  0  0
  -10.0346    3.4497   26.4483 C   0  0  2  0  0  0  0  0  0  0  0  0
   -7.8750    0.5509   25.5918 C   0  0  0  0  0  0  0  0  0  0  0  0
   -8.0040    0.2730   24.4392 O   0  0  0  0  0  0  0  0  0  0  0  0
   -7.3963   -0.2648   26.4783 O   0  0  0  0  0  0  0  0  0  0  0  0
   -6.9060    4.6959   27.8685 N   0  0  0  0  0  0  0  0  0  0  0  0
   -7.2515    5.8736   28.4583 C   0  0  0  0  0  0  0  0  0  0  0  0
   -8.5674    6.2499   28.3351 N   0  0  0  0  0  0  0  0  0  0  0  0
  -11.4145    3.8802   26.1654 C   0  0  0  0  0  0  0  0  0  0  0  0
  -12.3028    3.7285   27.2545 C   0  0  0  0  0  0  0  0  0  0  0  0
  -12.9621    2.6840   27.4201 C   0  0  0  0  0  0  0  0  0  0  0  0
  -13.6499    2.4358   28.6561 C   0  0  0  0  0  0  0  0  0  0  0  0
  -13.7982    3.4528   29.6342 C   0  0  0  0  0  0  0  0  0  0  0  0
  -13.2244    4.7049   29.3071 C   0  0  0  0  0  0  0  0  0  0  0  0
  -12.4563    4.8727   28.2330 C   0  0  0  0  0  0  0  0  0  0  0  0
  -12.0091    3.3526   24.9096 C   0  0  0  0  0  0  0  0  0  0  0  0
  -12.7873    2.6079   24.9095 C   0  0  0  0  0  0  0  0  0  0  0  0
  -13.3283    1.9076   26.2870 C   0  0  0  0  0  0  0  0  0  0  0  0
   -6.8524   -1.3878   26.2483 C   0  0  0  0  0  0  0  0  0  0  0  0
   -6.6186   -2.3502   27.3401 C   0  0  0  0  0  0  0  0  0  0  0  0
   -6.3199   -3.3165   27.1863 O   0  0  0  0  0  0  0  0  0  0  0  0
   -7.3729   -1.9765   28.4553 O   0  0  0  0  0  0  0  0  0  0  0  0
  -11.3043    3.8610   23.7055 C   0  0  0  0  0  0  0  0  0  0  0  0
  -10.2699    4.7921   23.6932 C   0  0  0  0  0  0  0  0  0  0  0  0
  -11.9413    3.4981   22.4932 C   0  0  0  0  0  0  0  0  0  0  0  0
  -11.2215    3.6547   21.3833 C   0  0  0  0  0  0  0  0  0  0  0  0
   -9.7826    5.2948   22.4500 C   0  0  0  0  0  0  0  0  0  0  0  0
  -10.2519    4.7336   21.2682 C   0  0  0  0  0  0  0  0  0  0  0  0
  -14.1266    0.7641   26.2286 C   0  0  0  0  0  0  0  0  0  0  0  0
  -14.7789    0.4383   25.3758 O   0  0  0  0  0  0  0  0  0  0  0  0
  1  4  1  0
  4  5  1  0
  5  6  1  0
  2  7  1  0
  6  7  1  0
  5  8  1  0
  8  9  2  0
  8 10  1  0
  7 14  1  6
 10 24  1  0
 24 25  1  0
 25 26  2  0
 25 27  1  0
 21 28  1  0
 23 34  1  0
 34 35  2  0
 16 17  2  0
 17 18  1  0
 18 19  2  0
 19 20  1  0
 20 15  2  0
  1  2  1  0
  2  3  2  0
  3 13  1  0
 13 12  2  0
 12 11  1  0
 11  1  2  0
 28 29  2  0
 29 32  1  0
 32 33  2  0
 33 31  1  0
 31 30  2  0
 30 28  1  0
 14 15  1  0
 15 16  1  0
 16 23  1  0
 23 22  2  0
 22 21  1  0
 21 14  2  0
M  END
$$$$
