No_4834-complexes_sdf/6BKW-FPZ/2024-09-17-14-21-01/
     RDKit          3D

 16 18  0  0  0  0  0  0  0  0999 V2000
   -7.7129    4.2099   27.0854 C   0  0  0  0  0  0  0  0  0  0  0  0
   -7.7814    5.1722   27.8972 C   0  0  0  0  0  0  0  0  0  0  0  0
   -8.8776    3.8408   26.3416 C   0  0  0  0  0  0  0  0  0  0  0  0
   -9.9844    4.6492   26.4743 C   0  0  0  0  0  0  0  0  0  0  0  0
   -8.8033    6.1375   27.8728 C   0  0  0  0  0  0  0  0  0  0  0  0
   -9.9554    5.8280   27.1736 C   0  0  0  0  0  0  0  0  0  0  0  0
   -8.8740    2.6184   25.5584 C   0  0  0  0  0  0  0  0  0  0  0  0
   -8.2513    1.5373   26.0855 N   0  0  0  0  0  0  0  0  0  0  0  0
   -8.1045    0.3937   25.4062 C   0  0  0  0  0  0  0  0  0  0  0  0
   -7.1654   -0.5315   25.8981 C   0  0  0  0  0  0  0  0  0  0  0  0
   -6.6440   -0.2646   26.8749 C   0  0  0  0  0  0  0  0  0  0  0  0
   -6.6406    0.9377   27.7200 C   0  0  0  0  0  0  0  0  0  0  0  0
   -7.4249    1.8876   27.1868 C   0  0  1  0  0  0  0  0  0  0  0  0
   -7.3030    3.1391   27.6431 N   0  0  0  0  0  0  0  0  0  0  0  0
   -9.5552    2.5857   24.5248 O   0  0  0  0  0  0  0  0  0  0  0  0
   -6.7071    5.6243   28.6100 F   0  0  0  0  0  0  0  0  0  0  0  0
  3  7  1  0
  7  8  1  0
  8  9  1  0
 10 11  1  0
  8 13  1  0
 13 12  1  6
  1 14  1  0
 13 14  1  0
  7 15  2  0
  2 16  1  0
  9 10  1  0
 11 12  1  0
  1  2  2  0
  2  5  1  0
  5  6  2  0
  6  4  1  0
  4  3  2  0
  3  1  1  0
M  END
$$$$
