No_4204-complexes_sdf/6BKW-FPZ/2024-09-17-14-21-01/
     RDKit          3D

 31 35  0  0  0  0  0  0  0  0999 V2000
   -7.7129    4.2099   27.0854 C   0  0  0  0  0  0  0  0  0  0  0  0
   -8.2112    3.0637   26.9225 C   0  0  0  0  0  0  0  0  0  0  0  0
   -9.4446    2.8304   26.1868 C   0  0  0  0  0  0  0  0  0  0  0  0
   -8.4697    5.3956   26.7238 C   0  0  0  0  0  0  0  0  0  0  0  0
   -9.6172    5.2111   25.9513 C   0  0  0  0  0  0  0  0  0  0  0  0
  -10.0424    3.9782   25.6873 C   0  0  0  0  0  0  0  0  0  0  0  0
   -7.8256    6.9333   27.0525 Cl  0  0  0  0  0  0  0  0  0  0  0  0
   -7.4841    1.8412   27.3998 C   0  0  0  0  0  0  0  0  0  0  0  0
   -8.0121    0.5246   27.2806 C   0  0  2  0  0  0  0  0  0  0  0  0
   -9.2955    0.5018   26.6130 C   0  0  0  0  0  0  0  0  0  0  0  0
   -9.9608    1.5251   26.0413 C   0  0  0  0  0  0  0  0  0  0  0  0
   -7.3519   -0.5539   27.8752 C   0  0  0  0  0  0  0  0  0  0  0  0
   -6.0236   -0.4611   28.2381 C   0  0  0  0  0  0  0  0  0  0  0  0
   -5.3308   -1.5259   28.8445 C   0  0  0  0  0  0  0  0  0  0  0  0
   -6.0665   -2.6754   29.0836 C   0  0  0  0  0  0  0  0  0  0  0  0
   -8.0552   -1.7296   28.2350 C   0  0  0  0  0  0  0  0  0  0  0  0
   -7.4093   -2.7520   28.8670 C   0  0  0  0  0  0  0  0  0  0  0  0
   -3.8980   -1.3588   29.1437 C   0  0  2  0  0  0  0  0  0  0  0  0
   -3.5902   -0.7347   30.3274 C   0  0  0  0  0  0  0  0  0  0  0  0
   -3.0815   -0.7647   28.0044 C   0  0  0  0  0  0  0  0  0  0  0  0
   -3.7142    0.5237   30.6468 C   0  0  0  0  0  0  0  0  0  0  0  0
   -3.1542   -1.6846   31.4266 C   0  0  0  0  0  0  0  0  0  0  0  0
   -3.1290   -1.2558   32.6530 C   0  0  0  0  0  0  0  0  0  0  0  0
   -3.4894    0.9598   32.0316 N   0  0  0  0  0  0  0  0  0  0  0  0
   -3.0820    0.1734   32.9492 C   0  0  0  0  0  0  0  0  0  0  0  0
   -2.2773   -1.8181   27.4848 C   0  0  0  0  0  0  0  0  0  0  0  0
   -3.0715    0.5119   27.5052 C   0  0  0  0  0  0  0  0  0  0  0  0
   -2.2967    0.8824   26.3793 C   0  0  0  0  0  0  0  0  0  0  0  0
   -1.6823   -1.5049   26.1898 C   0  0  0  0  0  0  0  0  0  0  0  0
   -1.6315   -0.1564   25.7551 N   0  0  0  0  0  0  0  0  0  0  0  0
  -11.0590    1.2858   25.4579 O   0  0  0  0  0  0  0  0  0  0  0  0
  4  7  1  0
  2  8  1  0
  9 10  1  0
  3 11  1  0
 10 11  1  0
  9 12  1  1
 18 14  1  6
 18 19  1  0
 18 20  1  0
 11 31  2  0
  8  9  1  0
  1  2  2  0
  2  3  1  0
  3  6  2  0
  6  5  1  0
  5  4  2  0
  4  1  1  0
 12 13  2  0
 13 14  1  0
 14 15  2  0
 15 17  1  0
 17 16  2  0
 16 12  1  0
 19 21  2  0
 21 24  1  0
 24 25  2  0
 25 23  1  0
 23 22  2  0
 22 19  1  0
 20 26  2  0
 26 29  1  0
 29 30  2  0
 30 28  1  0
 28 27  2  0
 27 20  1  0
M  END
$$$$
