No_4272-complexes_sdf/6BKW-FPZ/2024-09-17-14-21-01/
     RDKit          3D

 30 34  0  0  0  0  0  0  0  0999 V2000
   -7.7129    4.2099   27.0854 C   0  0  0  0  0  0  0  0  0  0  0  0
   -8.2112    3.0637   26.9225 C   0  0  0  0  0  0  0  0  0  0  0  0
   -9.4446    2.8304   26.1868 C   0  0  0  0  0  0  0  0  0  0  0  0
   -8.4697    5.3956   26.7238 C   0  0  0  0  0  0  0  0  0  0  0  0
   -9.6172    5.2111   25.9513 C   0  0  0  0  0  0  0  0  0  0  0  0
  -10.0424    3.9782   25.6873 C   0  0  0  0  0  0  0  0  0  0  0  0
   -7.8256    6.9333   27.0525 Cl  0  0  0  0  0  0  0  0  0  0  0  0
   -7.5378    1.9230   27.3755 N   0  0  0  0  0  0  0  0  0  0  0  0
   -7.9344    0.6408   27.2897 C   0  0  0  0  0  0  0  0  0  0  0  0
   -7.0050   -0.3553   27.6199 C   0  0  0  0  0  0  0  0  0  0  0  0
   -7.3839   -1.6536   27.8227 C   0  0  0  0  0  0  0  0  0  0  0  0
   -8.7734   -1.9298   27.6396 C   0  0  0  0  0  0  0  0  0  0  0  0
   -9.6931   -0.9722   27.3635 C   0  0  0  0  0  0  0  0  0  0  0  0
   -9.2919    0.3771   27.3010 C   0  0  0  0  0  0  0  0  0  0  0  0
   -5.9974    2.2065   27.3738 C   0  0  0  0  0  0  0  0  0  0  0  0
   -5.6070    0.0251   27.8073 C   0  0  2  0  0  0  0  0  0  0  0  0
   -4.6017   -0.9659   28.1641 C   0  0  0  0  0  0  0  0  0  0  0  0
   -5.2236    1.3733   27.7249 C   0  0  0  0  0  0  0  0  0  0  0  0
   -3.2636   -0.5117   28.4165 C   0  0  1  0  0  0  0  0  0  0  0  0
   -2.6499   -0.9210   29.5657 C   0  0  0  0  0  0  0  0  0  0  0  0
   -1.7552   -1.9207   29.6182 C   0  0  0  0  0  0  0  0  0  0  0  0
   -3.0890   -0.2331   30.8435 C   0  0  0  0  0  0  0  0  0  0  0  0
   -2.5399   -0.6778   32.0767 C   0  0  0  0  0  0  0  0  0  0  0  0
   -1.6230   -1.7194   32.1300 C   0  0  0  0  0  0  0  0  0  0  0  0
   -1.2179   -2.2967   30.9103 C   0  0  0  0  0  0  0  0  0  0  0  0
   -2.3767   -0.8377   27.1753 C   0  0  0  0  0  0  0  0  0  0  0  0
  -11.2583    3.6355   24.9360 C   0  0  0  0  0  0  0  0  0  0  0  0
  -11.2793    2.7260   24.0060 C   0  0  0  0  0  0  0  0  0  0  0  0
  -10.1402    2.0907   23.6777 C   0  0  0  0  0  0  0  0  0  0  0  0
   -9.2809    1.8032   24.9532 C   0  0  0  0  0  0  0  0  0  0  0  0
  4  7  1  0
  2  8  1  0
  8  9  1  0
  8 15  1  0
 10 16  1  0
 16 17  1  1
 16 18  1  0
 17 19  1  0
 19 20  1  0
 19 26  1  6
 18 15  1  0
  1  2  2  0
  2  3  1  0
  6  5  1  0
  5  4  2  0
  4  1  1  0
  3  6  2  0
  6 27  1  0
 27 28  2  0
 28 29  1  0
 29 30  2  0
 30  3  1  0
 20 21  2  0
 21 25  1  0
 25 24  2  0
 24 23  1  0
 23 22  2  0
 22 20  1  0
  9 10  1  0
 10 11  2  0
 11 12  1  0
 12 13  2  0
 13 14  1  0
 14  9  2  0
M  END
$$$$
