No_4386-complexes_sdf/6BKW-FPZ/2024-09-17-14-21-01/
     RDKit          3D

 16 18  0  0  0  0  0  0  0  0999 V2000
   -7.9040    3.9820   27.1177 C   0  0  0  0  0  0  0  0  0  0  0  0
   -9.0711    4.3164   27.0630 C   0  0  0  0  0  0  0  0  0  0  0  0
   -9.8698    3.9665   25.9494 C   0  0  0  0  0  0  0  0  0  0  0  0
   -7.0332    4.5030   28.2025 C   0  0  0  0  0  0  0  0  0  0  0  0
   -9.4357    2.9501   25.1393 C   0  0  0  0  0  0  0  0  0  0  0  0
   -8.2567    2.3218   25.4797 C   0  0  0  0  0  0  0  0  0  0  0  0
   -7.5105    2.7966   26.5752 C   0  0  0  0  0  0  0  0  0  0  0  0
  -10.3743    2.6618   24.0569 C   0  0  0  0  0  0  0  0  0  0  0  0
  -10.4296    1.5875   23.4434 C   0  0  0  0  0  0  0  0  0  0  0  0
  -11.1493    1.3386   22.2508 C   0  0  0  0  0  0  0  0  0  0  0  0
  -11.9372    2.4168   21.7929 C   0  0  0  0  0  0  0  0  0  0  0  0
  -11.1332    3.7584   23.3795 C   0  0  0  0  0  0  0  0  0  0  0  0
  -11.8805    3.6406   22.3419 C   0  0  0  0  0  0  0  0  0  0  0  0
   -7.3799    5.7776   28.7879 C   0  0  0  0  0  0  0  0  0  0  0  0
   -8.5867    6.4014   28.1589 C   0  0  0  0  0  0  0  0  0  0  0  0
   -9.4550    5.6768   27.3396 C   0  0  0  0  0  0  0  0  0  0  0  0
  5  8  1  0
  2 16  1  0
 16 15  2  0
 15 14  1  0
 14  4  2  0
  4  1  1  0
  8  9  2  0
  9 10  1  0
 10 11  2  0
 11 13  1  0
 13 12  2  0
 12  8  1  0
  1  2  1  0
  2  3  2  0
  3  5  1  0
  5  6  2  0
  6  7  1  0
  7  1  2  0
M  END
$$$$
