No_4041-complexes_sdf/6BKW-FPZ/2024-09-17-14-21-01/
     RDKit          3D

 14 15  0  0  0  0  0  0  0  0999 V2000
   -7.7129    4.2099   27.0854 C   0  0  0  0  0  0  0  0  0  0  0  0
   -7.7814    5.1722   27.8972 C   0  0  0  0  0  0  0  0  0  0  0  0
   -8.8998    3.8713   26.3707 C   0  0  0  0  0  0  0  0  0  0  0  0
   -9.9938    4.6774   26.5446 C   0  0  0  0  0  0  0  0  0  0  0  0
   -8.7789    6.1536   27.9256 C   0  0  0  0  0  0  0  0  0  0  0  0
   -9.9428    5.8398   27.2296 C   0  0  0  0  0  0  0  0  0  0  0  0
   -8.9119    2.6447   25.5685 C   0  0  0  0  0  0  0  0  0  0  0  0
   -9.7335    1.6985   26.0442 C   0  0  0  0  0  0  0  0  0  0  0  0
   -9.5708    0.4804   25.5508 C   0  0  0  0  0  0  0  0  0  0  0  0
   -8.7850    0.1556   24.7071 C   0  0  0  0  0  0  0  0  0  0  0  0
   -8.1046    1.1864   23.9536 C   0  0  0  0  0  0  0  0  0  0  0  0
   -8.1097    2.3916   24.5675 N   0  0  0  0  0  0  0  0  0  0  0  0
  -11.5250    4.2747   25.5767 Br  0  0  0  0  0  0  0  0  0  0  0  0
   -6.6517    5.6167   28.5938 F   0  0  0  0  0  0  0  0  0  0  0  0
  3  7  1  0
  4 13  1  0
  2 14  1  0
  1  2  2  0
  2  5  1  0
  5  6  2  0
  6  4  1  0
  4  3  2  0
  3  1  1  0
  7  8  2  0
  8  9  1  0
  9 10  2  0
 10 11  1  0
 11 12  2  0
 12  7  1  0
M  END
$$$$
