No_4849-complexes_sdf/6BKW-FPZ/2024-09-17-14-21-01/
     RDKit          3D

 20 23  0  0  0  0  0  0  0  0999 V2000
   -7.7129    4.2099   27.0854 C   0  0  0  0  0  0  0  0  0  0  0  0
   -7.7814    5.1722   27.8972 C   0  0  0  0  0  0  0  0  0  0  0  0
   -8.8776    3.8408   26.3416 C   0  0  0  0  0  0  0  0  0  0  0  0
   -8.9136    2.6330   25.5655 C   0  0  0  0  0  0  0  0  0  0  0  0
   -8.8361    6.1389   27.9032 C   0  0  0  0  0  0  0  0  0  0  0  0
   -9.9718    4.7048   26.3433 C   0  0  0  0  0  0  0  0  0  0  0  0
   -9.9205    5.8499   27.1013 C   0  0  0  0  0  0  0  0  0  0  0  0
   -9.8047    2.4360   24.5690 C   0  0  0  0  0  0  0  0  0  0  0  0
   -9.8408    1.2592   23.8792 C   0  0  0  0  0  0  0  0  0  0  0  0
   -8.8585    0.2408   24.1723 C   0  0  0  0  0  0  0  0  0  0  0  0
   -8.0777    1.3920   25.7588 C   0  0  0  0  0  0  0  0  0  0  0  0
   -8.0317    0.3599   25.1728 C   0  0  0  0  0  0  0  0  0  0  0  0
   -7.0995   -0.7022   25.5065 C   0  0  0  0  0  0  0  0  0  0  0  0
   -7.4306   -1.5869   26.2255 N   0  0  0  0  0  0  0  0  0  0  0  0
   -7.1846   -1.7436   27.4001 C   0  0  0  0  0  0  0  0  0  0  0  0
   -7.9076   -2.8714   28.0684 C   0  0  0  0  0  0  0  0  0  0  0  0
   -8.3774   -2.5522   25.6691 C   0  0  1  0  0  0  0  0  0  0  0  0
   -8.5784   -2.5881   24.3503 C   0  0  0  0  0  0  0  0  0  0  0  0
   -8.8487   -3.4722   26.5764 C   0  0  0  0  0  0  0  0  0  0  0  0
   -9.3503   -1.2668   23.7209 C   0  0  0  0  0  0  0  0  0  0  0  0
  3  4  1  0
 12 13  1  0
 13 14  1  0
 14 15  1  0
 15 16  2  0
 14 17  1  0
 17 18  1  6
 16 19  1  0
 17 19  1  0
 10 20  1  0
 18 20  1  0
  4  8  2  0
  8  9  1  0
  9 10  2  0
 10 12  1  0
 12 11  2  0
 11  4  1  0
  1  2  2  0
  2  5  1  0
  5  7  2  0
  7  6  1  0
  6  3  2  0
  3  1  1  0
M  END
$$$$
