No_4904-complexes_sdf/6BKW-FPZ/2024-09-17-14-21-01/
     RDKit          3D

 17 18  0  0  0  0  0  0  0  0999 V2000
   -7.7129    4.2099   27.0854 C   0  0  0  0  0  0  0  0  0  0  0  0
   -8.2112    3.0637   26.9225 C   0  0  0  0  0  0  0  0  0  0  0  0
   -7.0021    4.5281   28.2396 C   0  0  0  0  0  0  0  0  0  0  0  0
   -9.4237    2.7810   26.2714 C   0  0  0  0  0  0  0  0  0  0  0  0
   -9.8781    3.7859   25.4663 C   0  0  0  0  0  0  0  0  0  0  0  0
   -9.3689    5.0975   25.5965 C   0  0  0  0  0  0  0  0  0  0  0  0
   -8.4784    5.3402   26.5448 C   0  0  0  0  0  0  0  0  0  0  0  0
  -10.9887    3.5347   24.5135 C   0  0  0  0  0  0  0  0  0  0  0  0
  -12.1661    3.1796   24.9300 C   0  0  0  0  0  0  0  0  0  0  0  0
  -10.8644    4.0498   23.1901 C   0  0  0  0  0  0  0  0  0  0  0  0
  -11.8189    3.9327   22.2604 C   0  0  0  0  0  0  0  0  0  0  0  0
  -13.2305    3.0105   24.0075 C   0  0  0  0  0  0  0  0  0  0  0  0
  -13.0387    3.4413   22.6688 C   0  0  0  0  0  0  0  0  0  0  0  0
   -7.7277    1.9705   27.5952 F   0  0  0  0  0  0  0  0  0  0  0  0
  -14.5504    2.5172   24.3944 C   0  0  0  0  0  0  0  0  0  0  0  0
  -14.6884    2.1315   25.7213 C   0  0  0  0  0  0  0  0  0  0  0  0
  -13.6095    2.2907   26.6272 C   0  0  0  0  0  0  0  0  0  0  0  0
  5  8  1  0
  2 14  1  0
 12 15  1  0
 15 16  2  3
 16 17  1  0
  3  1  1  0
  8  9  2  0
  9 12  1  0
 12 13  2  0
 13 11  1  0
 11 10  2  0
 10  8  1  0
  1  2  2  0
  2  4  1  0
  4  5  2  0
  5  6  1  0
  6  7  2  0
  7  1  1  0
M  END
$$$$
