No_4837-complexes_sdf/6BKW-FPZ/2024-09-17-14-21-01/
     RDKit          3D

 31 34  0  0  0  0  0  0  0  0999 V2000
   -7.2496    3.8871   27.4508 C   0  0  0  0  0  0  0  0  0  0  0  0
   -7.6161    2.7143   27.1523 C   0  0  0  0  0  0  0  0  0  0  0  0
   -7.1618    1.8631   27.5232 C   0  0  1  0  0  0  0  0  0  0  0  0
   -8.0384    5.0866   27.3232 C   0  0  0  0  0  0  0  0  0  0  0  0
   -9.1224    5.1097   26.4856 C   0  0  0  0  0  0  0  0  0  0  0  0
   -8.8783    2.5973   26.4116 C   0  0  0  0  0  0  0  0  0  0  0  0
   -9.5900    3.8077   26.0949 C   0  0  0  0  0  0  0  0  0  0  0  0
   -6.6818    0.7927   27.2109 N   0  0  0  0  0  0  0  0  0  0  0  0
   -5.8615   -0.0637   27.8738 C   0  0  0  0  0  0  0  0  0  0  0  0
   -5.1321    0.7423   28.6992 C   0  0  0  0  0  0  0  0  0  0  0  0
   -5.8094    2.1537   28.4326 C   0  0  0  0  0  0  0  0  0  0  0  0
   -7.5289    6.4540   27.7725 C   0  0  0  0  0  0  0  0  0  0  0  0
   -4.0296    0.5603   29.5152 C   0  0  0  0  0  0  0  0  0  0  0  0
   -3.9618   -0.1269   30.5990 C   0  0  0  0  0  0  0  0  0  0  0  0
   -5.0702   -0.8351   31.1898 C   0  0  0  0  0  0  0  0  0  0  0  0
   -4.9325   -1.5172   32.4213 C   0  0  0  0  0  0  0  0  0  0  0  0
   -3.6761   -1.4581   33.0866 C   0  0  0  0  0  0  0  0  0  0  0  0
   -2.5626   -0.8069   32.5537 C   0  0  0  0  0  0  0  0  0  0  0  0
   -2.7073   -0.1398   31.4243 C   0  0  0  0  0  0  0  0  0  0  0  0
   -7.6747   -0.0638   26.3080 C   0  0  0  0  0  0  0  0  0  0  0  0
   -6.9937   -0.7302   25.3598 C   0  0  0  0  0  0  0  0  0  0  0  0
   -6.0086   -1.2781   25.4204 C   0  0  0  0  0  0  0  0  0  0  0  0
   -5.4977   -2.0174   24.2274 C   0  0  0  0  0  0  0  0  0  0  0  0
   -6.2550   -1.9467   23.0633 C   0  0  0  0  0  0  0  0  0  0  0  0
   -7.6586   -0.7947   24.0403 C   0  0  0  0  0  0  0  0  0  0  0  0
   -7.3521   -1.2869   22.9792 C   0  0  0  0  0  0  0  0  0  0  0  0
   -8.2711    7.5017   27.2972 N   0  0  0  0  0  0  0  0  0  0  0  0
   -6.0875   -2.1903   33.0272 C   0  0  0  0  0  0  0  0  0  0  0  0
   -7.1782   -1.7584   32.5291 F   0  0  0  0  0  0  0  0  0  0  0  0
   -6.1010   -1.9110   34.3598 F   0  0  0  0  0  0  0  0  0  0  0  0
   -5.9380   -3.4621   32.8697 F   0  0  0  0  0  0  0  0  0  0  0  0
  3  2  1  6
  3  8  1  0
  8  9  1  0
  9 10  2  0
  3 11  1  0
 10 11  1  0
  4 12  1  0
 10 13  1  0
  8 20  1  0
 20 21  1  0
 12 27  1  0
 16 28  1  0
 28 29  1  0
 28 30  1  0
 28 31  1  0
 13 14  1  0
 14 15  2  0
 15 16  1  0
 16 17  2  0
 17 18  1  0
 18 19  2  0
 19 14  1  0
 21 22  2  0
 22 23  1  0
 23 24  2  0
 24 26  1  0
 26 25  2  0
 25 21  1  0
  1  2  2  0
  2  6  1  0
  6  7  2  0
  7  5  1  0
  5  4  2  0
  4  1  1  0
M  END
$$$$
