No_4813-complexes_sdf/6BKW-FPZ/2024-09-17-14-21-01/
     RDKit          3D

 15 16  0  0  0  0  0  0  0  0999 V2000
   -7.7129    4.2099   27.0854 C   0  0  0  0  0  0  0  0  0  0  0  0
   -7.7814    5.1722   27.8972 C   0  0  0  0  0  0  0  0  0  0  0  0
   -8.8776    3.8408   26.3416 C   0  0  0  0  0  0  0  0  0  0  0  0
   -8.9136    2.6330   25.5655 C   0  0  0  0  0  0  0  0  0  0  0  0
   -8.8361    6.1389   27.9032 C   0  0  0  0  0  0  0  0  0  0  0  0
   -9.9718    4.7048   26.3433 C   0  0  0  0  0  0  0  0  0  0  0  0
   -9.9205    5.8499   27.1013 C   0  0  0  0  0  0  0  0  0  0  0  0
   -8.2915    1.4822   26.1745 C   0  0  0  0  0  0  0  0  0  0  0  0
   -8.1032    0.3138   25.5111 C   0  0  0  0  0  0  0  0  0  0  0  0
   -7.4580   -0.7350   26.1256 C   0  0  0  0  0  0  0  0  0  0  0  0
   -6.8952   -0.5752   27.0409 C   0  0  0  0  0  0  0  0  0  0  0  0
   -6.8105    0.6451   27.8870 C   0  0  0  0  0  0  0  0  0  0  0  0
   -7.4730    1.6907   27.3886 C   0  0  0  0  0  0  0  0  0  0  0  0
   -9.6583    2.4985   24.4306 C   0  0  0  0  0  0  0  0  0  0  0  0
  -10.4975    3.4907   23.9894 C   0  0  0  0  0  0  0  0  0  0  0  0
  3  4  1  0
  4  8  1  0
  4 14  1  0
 14 15  2  0
  8  9  2  0
  9 10  1  0
 10 11  2  0
 11 12  1  0
 12 13  2  0
 13  8  1  0
  1  2  2  0
  2  5  1  0
  5  7  2  0
  7  6  1  0
  6  3  2  0
  3  1  1  0
M  END
$$$$
