No_4442-complexes_sdf/6BKW-FPZ/2024-09-17-14-21-01/
     RDKit          3D

 37 41  0  0  0  0  0  0  0  0999 V2000
   -7.2496    3.8871   27.4508 C   0  0  0  0  0  0  0  0  0  0  0  0
   -7.9379    4.9063   27.8518 C   0  0  0  0  0  0  0  0  0  0  0  0
   -9.3460    4.8223   27.8695 C   0  0  0  0  0  0  0  0  0  0  0  0
   -7.8628    2.6163   27.1065 C   0  0  0  0  0  0  0  0  0  0  0  0
   -7.1773    1.4959   26.7593 C   0  0  0  0  0  0  0  0  0  0  0  0
   -9.2781    2.5892   27.1482 C   0  0  0  0  0  0  0  0  0  0  0  0
   -9.9152    1.3696   26.8084 C   0  0  0  0  0  0  0  0  0  0  0  0
  -10.0185    3.6972   27.5880 C   0  0  0  0  0  0  0  0  0  0  0  0
   -9.2107    0.2538   26.6211 C   0  0  0  0  0  0  0  0  0  0  0  0
   -7.8075    0.3082   26.5235 C   0  0  0  0  0  0  0  0  0  0  0  0
  -11.4661    3.6117   27.7921 C   0  0  0  0  0  0  0  0  0  0  0  0
  -11.9922    3.2032   28.8594 C   0  0  0  0  0  0  0  0  0  0  0  0
  -13.4009    3.1852   29.2000 C   0  0  0  0  0  0  0  0  0  0  0  0
  -14.2293    3.8149   28.2581 C   0  0  0  0  0  0  0  0  0  0  0  0
  -12.3245    4.3251   26.8565 C   0  0  0  0  0  0  0  0  0  0  0  0
  -13.6781    4.4165   27.1254 C   0  0  0  0  0  0  0  0  0  0  0  0
   -7.4311    6.1249   28.3134 N   0  0  0  0  0  0  0  0  0  0  0  0
  -13.9725    2.6168   30.4397 C   0  0  0  0  0  0  0  0  0  0  0  0
  -13.8770    1.4074   30.5208 O   0  0  0  0  0  0  0  0  0  0  0  0
  -14.4226    3.3858   31.3429 O   0  0  0  0  0  0  0  0  0  0  0  0
   -7.0230   -0.8879   26.2440 C   0  0  0  0  0  0  0  0  0  0  0  0
   -6.4991   -1.5542   27.0232 O   0  0  0  0  0  0  0  0  0  0  0  0
   -6.9490   -1.1599   24.9376 O   0  0  0  0  0  0  0  0  0  0  0  0
  -14.7806    3.2405   32.3649 C   0  0  0  0  0  0  0  0  0  0  0  0
  -14.9567    4.3083   33.2452 C   0  0  0  0  0  0  0  0  0  0  0  0
  -14.2511    5.1912   33.2926 C   0  0  0  0  0  0  0  0  0  0  0  0
  -14.2048    6.3438   34.2769 C   0  0  0  0  0  0  0  0  0  0  0  0
  -14.6533    5.9149   35.4117 C   0  0  0  0  0  0  0  0  0  0  0  0
  -14.6449    6.9288   36.5081 C   0  0  0  0  0  0  0  0  0  0  0  0
  -14.8856    6.7023   37.8515 C   0  0  0  0  0  0  0  0  0  0  0  0
  -14.6922    7.6471   38.8733 C   0  0  0  0  0  0  0  0  0  0  0  0
  -14.7944    7.3682   40.2342 C   0  0  0  0  0  0  0  0  0  0  0  0
  -15.1752    6.0895   40.5528 C   0  0  0  0  0  0  0  0  0  0  0  0
  -15.3643    5.1395   39.5980 C   0  0  0  0  0  0  0  0  0  0  0  0
  -15.1512    5.3982   38.2172 C   0  0  0  0  0  0  0  0  0  0  0  0
  -15.8500    4.1417   34.4646 C   0  0  0  0  0  0  0  0  0  0  0  0
  -15.7045    5.0230   35.5370 C   0  0  0  0  0  0  0  0  0  0  0  0
  8 11  1  0
  2 17  1  0
 13 18  1  0
 18 19  2  0
 18 20  1  0
 10 21  1  0
 21 22  1  0
 21 23  2  0
 20 24  1  0
 24 25  1  0
 28 29  1  0
 29 30  1  0
 25 26  2  0
 26 27  1  0
 27 28  2  0
 28 37  1  0
 37 36  2  0
 36 25  1  0
 30 31  2  0
 31 32  1  0
 32 33  2  0
 33 34  1  0
 34 35  2  0
 35 30  1  0
 11 12  2  0
 12 13  1  0
 13 14  2  0
 14 16  1  0
 16 15  2  0
 15 11  1  0
  4  5  2  0
  5 10  1  0
 10  9  2  0
  9  7  1  0
  7  6  2  0
  1  2  2  0
  2  3  1  0
  3  8  2  0
  8  6  1  0
  6  4  1  0
  4  1  1  0
M  END
$$$$
