No_4962-complexes_sdf/6BKW-FPZ/2024-09-17-14-21-01/
     RDKit          3D

 29 32  0  0  0  0  0  0  0  0999 V2000
   -7.7129    4.2099   27.0854 C   0  0  0  0  0  0  0  0  0  0  0  0
   -8.2112    3.0637   26.9225 C   0  0  0  0  0  0  0  0  0  0  0  0
   -8.5108    5.3904   26.9436 C   0  0  0  0  0  0  0  0  0  0  0  0
   -9.7256    5.1955   26.3518 C   0  0  0  0  0  0  0  0  0  0  0  0
   -9.4995    2.8258   26.4878 C   0  0  0  0  0  0  0  0  0  0  0  0
  -10.2542    3.9691   26.2055 C   0  0  0  0  0  0  0  0  0  0  0  0
   -7.6460    6.8595   27.1892 Cl  0  0  0  0  0  0  0  0  0  0  0  0
   -7.3770    1.8233   27.2529 C   0  0  0  0  0  0  0  0  0  0  0  0
   -6.2309    2.0007   27.7844 O   0  0  0  0  0  0  0  0  0  0  0  0
   -7.8167    0.5984   27.0852 N   0  0  0  0  0  0  0  0  0  0  0  0
   -7.0278   -0.5909   27.3958 C   0  0  1  0  0  0  0  0  0  0  0  0
   -7.7198   -1.5642   27.8973 C   0  0  0  0  0  0  0  0  0  0  0  0
   -7.1816   -2.2800   28.9386 C   0  0  0  0  0  0  0  0  0  0  0  0
   -7.9303   -3.2096   29.7524 C   0  0  0  0  0  0  0  0  0  0  0  0
   -8.9990   -3.1627   29.7851 C   0  0  0  0  0  0  0  0  0  0  0  0
   -9.8582   -2.3562   28.8755 C   0  0  0  0  0  0  0  0  0  0  0  0
   -9.1429   -1.4842   28.0789 C   0  0  0  0  0  0  0  0  0  0  0  0
   -6.3476   -1.0150   26.0990 C   0  0  0  0  0  0  0  0  0  0  0  0
   -5.0136   -1.1785   26.0857 C   0  0  0  0  0  0  0  0  0  0  0  0
   -7.1823   -1.3686   25.0154 C   0  0  0  0  0  0  0  0  0  0  0  0
   -6.5992   -1.5978   23.8006 C   0  0  0  0  0  0  0  0  0  0  0  0
   -4.3756   -1.4992   24.8210 C   0  0  0  0  0  0  0  0  0  0  0  0
   -5.2031   -1.7396   23.7099 C   0  0  0  0  0  0  0  0  0  0  0  0
   -7.4858   -1.7763   22.6352 C   0  0  0  0  0  0  0  0  0  0  0  0
   -8.7768   -2.1775   22.8599 C   0  0  0  0  0  0  0  0  0  0  0  0
   -9.6465   -1.9410   21.8836 C   0  0  0  0  0  0  0  0  0  0  0  0
   -9.1639   -1.6944   20.5145 C   0  0  0  0  0  0  0  0  0  0  0  0
   -7.8183   -1.5625   20.3121 C   0  0  0  0  0  0  0  0  0  0  0  0
   -6.9036   -1.4978   21.3795 C   0  0  0  0  0  0  0  0  0  0  0  0
  3  7  1  0
  2  8  1  0
  8  9  2  0
  8 10  1  0
 11 10  1  6
 11 12  1  0
 11 18  1  0
 21 24  1  0
 12 13  2  0
 13 14  1  0
 14 15  2  0
 15 16  1  0
 16 17  2  0
 17 12  1  0
 24 25  2  0
 25 26  1  0
 26 27  2  0
 27 28  1  0
 28 29  2  0
 29 24  1  0
 18 19  2  0
 19 22  1  0
 22 23  2  0
 23 21  1  0
 21 20  2  0
 20 18  1  0
  1  2  2  0
  2  5  1  0
  5  6  2  0
  6  4  1  0
  4  3  2  0
  3  1  1  0
M  END
$$$$
