No_4217-complexes_sdf/6BKW-FPZ/2024-09-17-14-21-01/
     RDKit          3D

 22 23  0  0  0  0  0  0  0  0999 V2000
   -7.7129    4.2099   27.0854 C   0  0  0  0  0  0  0  0  0  0  0  0
   -8.9133    4.4736   27.0998 C   0  0  0  0  0  0  0  0  0  0  0  0
   -9.4643    5.5426   27.7628 C   0  0  0  0  0  0  0  0  0  0  0  0
   -9.8667    3.2949   27.0778 C   0  0  0  0  0  0  0  0  0  0  0  0
  -10.1240    2.9067   25.8803 C   0  0  0  0  0  0  0  0  0  0  0  0
   -9.9618    3.6899   24.7968 C   0  0  0  0  0  0  0  0  0  0  0  0
  -10.3591    1.5172   25.5208 C   0  0  0  0  0  0  0  0  0  0  0  0
  -10.3733    0.5759   26.3632 C   0  0  1  0  0  0  0  0  0  0  0  0
  -10.4845    1.1153   24.1223 C   0  0  0  0  0  0  0  0  0  0  0  0
  -10.2287    3.4659   23.4305 C   0  0  0  0  0  0  0  0  0  0  0  0
  -10.5010    2.1374   23.1185 C   0  0  0  0  0  0  0  0  0  0  0  0
   -9.3999   -0.0505   26.8212 C   0  0  0  0  0  0  0  0  0  0  0  0
   -8.0936    0.4243   26.8797 C   0  0  0  0  0  0  0  0  0  0  0  0
   -6.9447   -0.2339   27.3195 C   0  0  0  0  0  0  0  0  0  0  0  0
   -7.0921   -1.4100   28.0092 C   0  0  0  0  0  0  0  0  0  0  0  0
   -8.3887   -1.9447   28.1868 C   0  0  0  0  0  0  0  0  0  0  0  0
   -9.4978   -1.2975   27.6462 C   0  0  0  0  0  0  0  0  0  0  0  0
  -11.7590    0.3451   26.9035 C   0  0  0  0  0  0  0  0  0  0  0  0
  -12.8532    0.7720   26.4746 C   0  0  0  0  0  0  0  0  0  0  0  0
  -14.0595    0.4661   27.0913 C   0  0  0  0  0  0  0  0  0  0  0  0
  -14.0261   -0.4211   28.1587 C   0  0  0  0  0  0  0  0  0  0  0  0
  -12.8734   -0.9493   28.6977 C   0  0  0  0  0  0  0  0  0  0  0  0
  1  2  1  0
  2  3  1  0
  2  4  1  0
  4  5  1  0
  8  7  1  1
  8 12  1  0
  8 18  1  0
 18 19  2  3
 19 20  1  0
 20 21  2  3
 21 22  1  0
 12 13  2  0
 13 14  1  0
 14 15  2  0
 15 16  1  0
 16 17  2  0
 17 12  1  0
  5  6  2  0
  6 10  1  0
 10 11  2  0
 11  9  1  0
  9  7  2  0
  7  5  1  0
M  END
$$$$
