No_43-complexes_sdf/6BKW-FPZ/2024-09-17-14-21-01/
     RDKit          3D

 13 14  0  0  0  0  0  0  0  0999 V2000
   -7.7129    4.2099   27.0854 C   0  0  0  0  0  0  0  0  0  0  0  0
   -8.9133    4.4736   27.0998 C   0  0  0  0  0  0  0  0  0  0  0  0
   -9.4643    5.5426   27.7628 C   0  0  0  0  0  0  0  0  0  0  0  0
   -9.8091    3.6358   26.2841 C   0  0  0  0  0  0  0  0  0  0  0  0
  -10.3717    2.5594   26.9241 C   0  0  0  0  0  0  0  0  0  0  0  0
  -10.3040    2.3353   28.2164 C   0  0  0  0  0  0  0  0  0  0  0  0
   -6.8256    4.9273   28.0591 C   0  0  0  0  0  0  0  0  0  0  0  0
   -8.6286    6.4498   28.4781 C   0  0  0  0  0  0  0  0  0  0  0  0
   -7.2720    6.0303   28.5446 C   0  0  0  0  0  0  0  0  0  0  0  0
  -11.0251    1.4983   26.1161 C   0  0  0  0  0  0  0  0  0  0  0  0
  -11.1292    1.7259   24.8546 C   0  0  0  0  0  0  0  0  0  0  0  0
  -10.5122    2.8965   24.1993 C   0  0  0  0  0  0  0  0  0  0  0  0
   -9.8270    3.8332   24.9244 C   0  0  0  0  0  0  0  0  0  0  0  0
  2  4  1  0
  6  5  1  0
  1  2  2  0
  2  3  1  0
  3  8  2  0
  8  9  1  0
  9  7  2  0
  7  1  1  0
  4  5  2  0
  5 10  1  0
 10 11  2  0
 11 12  1  0
 12 13  2  0
 13  4  1  0
M  END
$$$$
