No_4387-complexes_sdf/6BKW-FPZ/2024-09-17-14-21-01/
     RDKit          3D

 22 24  0  0  0  0  0  0  0  0999 V2000
   -7.9040    3.9820   27.1177 C   0  0  0  0  0  0  0  0  0  0  0  0
   -7.8663    4.8694   27.9238 C   0  0  0  0  0  0  0  0  0  0  0  0
   -7.4547    2.7080   27.4594 C   0  0  0  0  0  0  0  0  0  0  0  0
   -7.9337    1.5946   26.8372 C   0  0  0  0  0  0  0  0  0  0  0  0
   -8.9032    1.7881   25.8510 C   0  0  0  0  0  0  0  0  0  0  0  0
   -9.3787    2.9871   25.5530 C   0  0  0  0  0  0  0  0  0  0  0  0
   -8.9781    4.0300   26.2200 C   0  0  0  0  0  0  0  0  0  0  0  0
   -8.2132    6.2312   27.6173 N   0  0  0  0  0  0  0  0  0  0  0  0
   -9.1014    6.5119   26.6241 C   0  0  0  0  0  0  0  0  0  0  0  0
   -9.5143    5.3947   25.8857 C   0  0  0  0  0  0  0  0  0  0  0  0
   -7.3340    0.2629   27.1258 C   0  0  0  0  0  0  0  0  0  0  0  0
   -8.0394   -0.8639   27.0769 C   0  0  0  0  0  0  0  0  0  0  0  0
   -7.4803   -2.1019   27.4661 C   0  0  0  0  0  0  0  0  0  0  0  0
   -6.2026   -2.0883   28.0377 C   0  0  0  0  0  0  0  0  0  0  0  0
   -5.4827   -0.9300   28.1942 C   0  0  0  0  0  0  0  0  0  0  0  0
   -6.0306    0.2761   27.8053 C   0  0  0  0  0  0  0  0  0  0  0  0
   -4.1203   -0.9041   28.7792 C   0  0  0  0  0  0  0  0  0  0  0  0
   -4.0613   -0.4822   30.1351 C   0  0  2  0  0  0  0  0  0  0  0  0
   -4.2126    0.7755   30.4226 C   0  0  0  0  0  0  0  0  0  0  0  0
   -3.6153   -1.4923   31.0914 C   0  0  0  0  0  0  0  0  0  0  0  0
   -3.0415   -2.3694   30.9495 C   0  0  0  0  0  0  0  0  0  0  0  0
   -4.1661    1.0232   31.8039 N   0  0  0  0  0  0  0  0  0  0  0  0
  4 11  1  0
 15 17  1  0
 18 17  1  6
 18 19  1  0
 18 20  1  0
 20 21  2  0
 19 22  1  0
 11 12  2  0
 12 13  1  0
 13 14  2  0
 14 15  1  0
 15 16  2  0
 16 11  1  0
  1  2  2  0
  2  8  1  0
  8  9  2  0
  9 10  1  0
 10  7  2  0
  1  3  1  0
  3  4  2  0
  4  5  1  0
  5  6  2  0
  6  7  1  0
  7  1  1  0
M  END
$$$$
