No_4927-complexes_sdf/6BKW-FPZ/2024-09-17-14-21-01/
     RDKit          3D

 14 14  0  0  0  0  0  0  0  0999 V2000
   -7.7129    4.2099   27.0854 C   0  0  0  0  0  0  0  0  0  0  0  0
   -8.9133    4.4736   27.0998 C   0  0  0  0  0  0  0  0  0  0  0  0
   -9.4643    5.5426   27.7628 C   0  0  0  0  0  0  0  0  0  0  0  0
   -7.2009    2.9448   26.6134 C   0  0  0  0  0  0  0  0  0  0  0  0
   -8.1365    1.9533   26.2981 C   0  0  0  0  0  0  0  0  0  0  0  0
   -9.4501    2.2651   26.2497 C   0  0  0  0  0  0  0  0  0  0  0  0
   -9.8615    3.4703   26.6763 C   0  0  0  0  0  0  0  0  0  0  0  0
   -7.5886    0.6540   25.9006 C   0  0  1  0  0  0  0  0  0  0  0  0
   -6.7458    0.1054   26.6097 O   0  0  0  0  0  0  0  0  0  0  0  0
   -5.9137   -0.7844   26.2421 C   0  0  0  0  0  0  0  0  0  0  0  0
   -8.6785   -0.3185   25.7511 C   0  0  0  0  0  0  0  0  0  0  0  0
   -9.2427   -0.5769   24.8370 C   0  0  0  0  0  0  0  0  0  0  0  0
  -10.3480   -1.5009   24.6412 C   0  0  0  0  0  0  0  0  0  0  0  0
  -11.0347   -1.6290   23.4286 C   0  0  0  0  0  0  0  0  0  0  0  0
  5  8  1  0
  8  9  1  1
  9 10  1  0
  8 11  1  0
 11 12  2  3
 12 13  1  0
 13 14  2  0
  3  2  1  0
  1  2  2  0
  2  7  1  0
  7  6  2  0
  6  5  1  0
  5  4  2  0
  4  1  1  0
M  END
$$$$
