No_4666-complexes_sdf/6BKW-FPZ/2024-09-17-14-21-01/
     RDKit          3D

 21 22  0  0  0  0  0  0  0  0999 V2000
   -7.2496    3.8871   27.4508 C   0  0  0  0  0  0  0  0  0  0  0  0
   -7.9379    4.9063   27.8518 C   0  0  0  0  0  0  0  0  0  0  0  0
   -7.5112    6.1898   27.6280 C   0  0  0  0  0  0  0  0  0  0  0  0
   -7.8078    2.6331   27.2522 C   0  0  2  0  0  0  0  0  0  0  0  0
   -7.1538    1.5087   26.7509 C   0  0  0  0  0  0  0  0  0  0  0  0
   -9.2627    2.5305   27.2363 C   0  0  0  0  0  0  0  0  0  0  0  0
  -10.0152    3.3691   27.9604 C   0  0  1  0  0  0  0  0  0  0  0  0
   -9.4363    4.7531   28.0605 C   0  0  0  0  0  0  0  0  0  0  0  0
   -5.9077    1.5613   27.2032 F   0  0  0  0  0  0  0  0  0  0  0  0
   -7.6341    0.3844   27.5263 F   0  0  0  0  0  0  0  0  0  0  0  0
   -7.3067    1.1622   25.5557 F   0  0  0  0  0  0  0  0  0  0  0  0
  -11.3975    3.2196   28.2855 C   0  0  0  0  0  0  0  0  0  0  0  0
  -11.9303    3.1288   29.1971 C   0  0  0  0  0  0  0  0  0  0  0  0
  -13.3467    2.9827   29.6503 C   0  0  0  0  0  0  0  0  0  0  0  0
  -14.2038    3.0572   28.6093 C   0  0  0  0  0  0  0  0  0  0  0  0
  -12.3617    3.2348   27.1216 C   0  0  0  0  0  0  0  0  0  0  0  0
  -13.6943    3.1961   27.3183 C   0  0  0  0  0  0  0  0  0  0  0  0
  -14.6298    3.2545   26.1447 C   0  0  0  0  0  0  0  0  0  0  0  0
  -15.2356    4.2553   25.8795 C   0  0  0  0  0  0  0  0  0  0  0  0
  -15.0500    5.5137   26.6927 C   0  0  0  0  0  0  0  0  0  0  0  0
  -14.2517    5.5863   27.7710 C   0  0  0  0  0  0  0  0  0  0  0  0
  1  2  1  0
  2  3  2  0
  1  4  1  0
  4  5  1  6
  4  6  1  0
  6  7  1  0
  2  8  1  0
  7  8  1  0
  5  9  1  0
  5 10  1  0
  5 11  1  0
  7 12  1  6
 17 18  1  0
 18 19  2  3
 19 20  1  0
 20 21  2  0
 12 13  2  0
 13 14  1  0
 14 15  2  0
 15 17  1  0
 17 16  2  0
 16 12  1  0
M  END
$$$$
