No_4520-complexes_sdf/6BKW-FPZ/2024-09-17-14-21-01/
     RDKit          3D

 17 19  0  0  0  0  0  0  0  0999 V2000
   -7.9040    3.9820   27.1177 C   0  0  0  0  0  0  0  0  0  0  0  0
   -8.2057    2.8231   26.8733 C   0  0  0  0  0  0  0  0  0  0  0  0
   -7.4766    1.7477   27.4593 C   0  0  0  0  0  0  0  0  0  0  0  0
   -8.7468    5.1251   26.6967 C   0  0  0  0  0  0  0  0  0  0  0  0
   -8.4775    6.4967   27.1056 C   0  0  0  0  0  0  0  0  0  0  0  0
   -6.1172    2.0790   27.8378 C   0  0  0  0  0  0  0  0  0  0  0  0
   -5.8043    3.4004   27.9818 N   0  0  0  0  0  0  0  0  0  0  0  0
   -6.5925    4.3715   27.6552 C   0  0  0  0  0  0  0  0  0  0  0  0
   -7.1697    6.7475   27.6510 C   0  0  0  0  0  0  0  0  0  0  0  0
   -6.3916    5.7134   27.9656 N   0  0  0  0  0  0  0  0  0  0  0  0
   -5.2603    1.1255   28.2431 N   0  0  0  0  0  0  0  0  0  0  0  0
   -5.5361   -0.2212   28.2404 C   0  0  0  0  0  0  0  0  0  0  0  0
   -6.8195   -0.5947   27.7512 C   0  0  0  0  0  0  0  0  0  0  0  0
   -7.7348    0.3427   27.3331 C   0  0  0  0  0  0  0  0  0  0  0  0
   -4.5691   -1.1784   28.7072 C   0  0  0  0  0  0  0  0  0  0  0  0
   -3.5932   -1.0682   28.9868 C   0  0  0  0  0  0  0  0  0  0  0  0
   -2.8779    0.3228   28.9336 C   0  0  0  0  0  0  0  0  0  0  0  0
 12 15  1  0
 15 16  2  3
 16 17  1  0
  6 11  2  0
 11 12  1  0
 12 13  2  0
 13 14  1  0
 14  3  2  0
  1  4  1  0
  4  5  2  0
  5  9  1  0
  9 10  2  0
 10  8  1  0
  1  2  2  0
  2  3  1  0
  3  6  1  0
  6  7  1  0
  7  8  2  0
  8  1  1  0
M  END
$$$$
