No_467-complexes_sdf/6BKW-FPZ/2024-09-17-14-21-01/
     RDKit          3D

 26 28  0  0  0  0  0  0  0  0999 V2000
   -7.7129    4.2099   27.0854 C   0  0  0  0  0  0  0  0  0  0  0  0
   -7.7814    5.1722   27.8972 C   0  0  0  0  0  0  0  0  0  0  0  0
   -8.7889    3.2468   27.2220 C   0  0  0  0  0  0  0  0  0  0  0  0
   -8.5940    1.9755   26.6525 C   0  0  0  0  0  0  0  0  0  0  0  0
   -7.5537    1.2112   27.0910 C   0  0  0  0  0  0  0  0  0  0  0  0
   -6.8821    6.1591   27.9047 C   0  0  0  0  0  0  0  0  0  0  0  0
   -7.2377   -0.0431   26.5732 C   0  0  0  0  0  0  0  0  0  0  0  0
   -9.9607    3.6018   27.8972 C   0  0  1  0  0  0  0  0  0  0  0  0
  -10.9736    2.6945   28.1277 C   0  0  0  0  0  0  0  0  0  0  0  0
  -12.1865    3.0377   27.6574 C   0  0  0  0  0  0  0  0  0  0  0  0
   -8.0271   -0.4502   25.5386 C   0  0  0  0  0  0  0  0  0  0  0  0
   -9.4347    1.4454   25.7235 C   0  0  0  0  0  0  0  0  0  0  0  0
   -9.0967    0.2724   25.0659 C   0  0  0  0  0  0  0  0  0  0  0  0
  -12.5602    4.3439   27.8026 C   0  0  0  0  0  0  0  0  0  0  0  0
  -13.9021    4.7330   27.5282 C   0  0  0  0  0  0  0  0  0  0  0  0
  -14.7386    3.9605   26.8365 C   0  0  0  0  0  0  0  0  0  0  0  0
  -14.3779    2.6104   26.7054 C   0  0  0  0  0  0  0  0  0  0  0  0
  -13.1715    2.1570   27.1519 C   0  0  0  0  0  0  0  0  0  0  0  0
   -9.3829    4.6264   28.9748 C   0  0  0  0  0  0  0  0  0  0  0  0
   -8.8561    5.3314   28.8444 C   0  0  0  0  0  0  0  0  0  0  0  0
   -9.9337   -0.2244   23.9665 C   0  0  0  0  0  0  0  0  0  0  0  0
   -9.4897   -0.6813   23.0404 C   0  0  0  0  0  0  0  0  0  0  0  0
   -8.1194   -0.4389   22.6856 C   0  0  0  0  0  0  0  0  0  0  0  0
   -7.4801   -0.5980   21.9166 C   0  0  0  0  0  0  0  0  0  0  0  0
   -7.8168   -1.5861   20.9339 C   0  0  0  0  0  0  0  0  0  0  0  0
   -9.1881   -1.9373   20.9329 C   0  0  0  0  0  0  0  0  0  0  0  0
  1  2  1  0
  1  3  1  0
  3  4  1  0
  2  6  1  0
  3  8  1  0
  8  9  1  1
  9 10  1  0
  8 19  1  0
  2 20  1  0
 19 20  1  0
 13 21  1  0
 21 22  2  3
 22 23  1  0
 23 24  1  0
 24 25  2  3
 25 26  1  0
  4  5  2  0
  5  7  1  0
  7 11  2  0
 11 13  1  0
 13 12  2  0
 12  4  1  0
 10 14  2  0
 14 15  1  0
 15 16  2  0
 16 17  1  0
 17 18  2  0
 18 10  1  0
M  END
$$$$
