No_4203-complexes_sdf/6BKW-FPZ/2024-09-17-14-21-01/
     RDKit          3D

 23 25  0  0  0  0  0  0  0  0999 V2000
   -7.9040    3.9820   27.1177 C   0  0  0  0  0  0  0  0  0  0  0  0
   -9.0711    4.3164   27.0630 C   0  0  0  0  0  0  0  0  0  0  0  0
   -9.5294    5.4517   27.7215 C   0  0  0  0  0  0  0  0  0  0  0  0
   -9.9845    3.5634   26.2189 C   0  0  0  0  0  0  0  0  0  0  0  0
   -9.6295    2.5733   25.6121 C   0  0  0  0  0  0  0  0  0  0  0  0
   -6.9226    4.6383   28.0851 C   0  0  0  0  0  0  0  0  0  0  0  0
  -10.1348    1.3526   25.8548 C   0  0  2  0  0  0  0  0  0  0  0  0
   -9.4072    0.2552   25.5295 C   0  0  0  0  0  0  0  0  0  0  0  0
   -8.8498   -0.4759   26.4788 C   0  0  0  0  0  0  0  0  0  0  0  0
   -7.7069   -1.2554   26.3972 C   0  0  0  0  0  0  0  0  0  0  0  0
   -7.2683   -1.5376   25.1559 C   0  0  0  0  0  0  0  0  0  0  0  0
   -7.7573   -0.8486   24.0267 C   0  0  0  0  0  0  0  0  0  0  0  0
   -8.7895    0.1075   24.2595 C   0  0  0  0  0  0  0  0  0  0  0  0
  -11.5528    1.1869   25.1833 C   0  0  2  0  0  0  0  0  0  0  0  0
  -12.5826    1.4649   25.9933 C   0  0  0  0  0  0  0  0  0  0  0  0
  -13.8224    1.3897   25.5474 C   0  0  0  0  0  0  0  0  0  0  0  0
   -7.3457    5.8621   28.5997 C   0  0  0  0  0  0  0  0  0  0  0  0
   -8.6676    6.3163   28.4068 C   0  0  0  0  0  0  0  0  0  0  0  0
  -14.0246    1.0211   24.2107 C   0  0  0  0  0  0  0  0  0  0  0  0
  -12.1147    0.7696   24.0249 C   0  0  0  0  0  0  0  0  0  0  0  0
  -13.1261    0.6561   23.5278 C   0  0  1  0  0  0  0  0  0  0  0  0
  -13.3532    0.1823   22.1180 C   0  0  0  0  0  0  0  0  0  0  0  0
  -12.3583    0.1482   23.9451 Br  0  0  0  0  0  0  0  0  0  0  0  0
  2  4  1  0
  4  5  1  0
  7  5  1  6
  7  8  1  0
  7 14  1  0
 14 15  1  0
 15 16  2  0
 16 19  1  0
 14 20  1  1
 19 20  1  0
 20 21  1  0
 21 22  1  6
 21 23  1  0
  1  2  2  0
  2  3  1  0
  3 18  2  0
 18 17  1  0
 17  6  2  0
  6  1  1  0
  8  9  2  0
  9 10  1  0
 10 11  2  0
 11 12  1  0
 12 13  2  0
 13  8  1  0
M  END
$$$$
