No_4989-complexes_sdf/6BKW-FPZ/2024-09-17-14-21-01/
     RDKit          3D

 15 16  0  0  0  0  0  0  0  0999 V2000
   -7.7129    4.2099   27.0854 C   0  0  0  0  0  0  0  0  0  0  0  0
   -8.9133    4.4736   27.0998 C   0  0  0  0  0  0  0  0  0  0  0  0
   -9.7937    3.7367   26.2091 C   0  0  0  0  0  0  0  0  0  0  0  0
   -6.8266    5.0441   28.0594 C   0  0  0  0  0  0  0  0  0  0  0  0
  -11.0884    4.1572   25.9278 C   0  0  0  0  0  0  0  0  0  0  0  0
  -11.8573    3.5481   24.9807 C   0  0  0  0  0  0  0  0  0  0  0  0
  -11.2980    2.5062   24.2454 C   0  0  0  0  0  0  0  0  0  0  0  0
  -10.0337    2.1019   24.4722 C   0  0  0  0  0  0  0  0  0  0  0  0
   -9.2188    2.7542   25.3939 C   0  0  0  0  0  0  0  0  0  0  0  0
   -9.4404    5.5388   27.8703 C   0  0  0  0  0  0  0  0  0  0  0  0
   -8.6695    6.4398   28.5977 C   0  0  0  0  0  0  0  0  0  0  0  0
   -7.3193    6.0211   28.6616 C   0  0  0  0  0  0  0  0  0  0  0  0
   -9.4503    0.9813   23.6714 C   0  0  0  0  0  0  0  0  0  0  0  0
   -9.6970    0.8449   22.4272 N   0  0  0  0  0  0  0  0  0  0  0  0
   -9.1055   -0.1872   21.7582 C   0  0  0  0  0  0  0  0  0  0  0  0
  2  3  1  0
  8 13  1  0
 13 14  2  3
 14 15  1  0
  3  5  2  0
  5  6  1  0
  6  7  2  0
  7  8  1  0
  8  9  2  0
  9  3  1  0
  1  2  2  0
  2 10  1  0
 10 11  2  0
 11 12  1  0
 12  4  2  0
  4  1  1  0
M  END
$$$$
