No_4879-complexes_sdf/6BKW-FPZ/2024-09-17-14-21-01/
     RDKit          3D

  6  5  0  0  0  0  0  0  0  0999 V2000
   -7.7129    4.2099   27.0854 C   0  0  0  0  0  0  0  0  0  0  0  0
   -8.2112    3.0637   26.9225 C   0  0  0  0  0  0  0  0  0  0  0  0
   -8.8911    2.3657   26.0965 C   0  0  0  0  0  0  0  0  0  0  0  0
   -6.9272    4.7244   28.2109 C   0  0  0  0  0  0  0  0  0  0  0  0
   -9.6621    3.0457   25.1748 C   0  0  0  0  0  0  0  0  0  0  0  0
   -9.4425    4.5721   25.2941 C   0  0  0  0  0  0  0  0  0  0  0  0
  1  2  3  0
  2  3  1  0
  1  4  1  0
  3  5  2  3
  5  6  1  0
M  END
$$$$
