No_401-complexes_sdf/6BKW-FPZ/2024-09-17-14-21-01/
     RDKit          3D

 20 22  0  0  0  0  0  0  0  0999 V2000
   -7.9040    3.9820   27.1177 C   0  0  0  0  0  0  0  0  0  0  0  0
   -7.8663    4.8694   27.9238 C   0  0  0  0  0  0  0  0  0  0  0  0
   -9.0491    3.8523   26.2542 C   0  0  0  0  0  0  0  0  0  0  0  0
   -8.6019    5.9544   27.7203 C   0  0  0  0  0  0  0  0  0  0  0  0
   -9.7838    4.9247   26.0626 C   0  0  0  0  0  0  0  0  0  0  0  0
   -9.6083    6.0325   26.8808 C   0  0  0  0  0  0  0  0  0  0  0  0
   -7.0940    2.6762   27.3407 C   0  0  0  0  0  0  0  0  0  0  0  0
   -5.9733    2.7330   28.0103 N   0  0  0  0  0  0  0  0  0  0  0  0
   -7.4825    1.4114   26.8646 C   0  0  0  0  0  0  0  0  0  0  0  0
   -6.6208    0.4176   27.1956 C   0  0  0  0  0  0  0  0  0  0  0  0
   -5.4537    0.5491   27.8059 C   0  0  0  0  0  0  0  0  0  0  0  0
   -5.1073    1.8718   28.2168 C   0  0  0  0  0  0  0  0  0  0  0  0
   -4.4021   -0.4423   28.1758 C   0  0  0  0  0  0  0  0  0  0  0  0
   -4.5733   -1.2415   28.8148 C   0  0  0  0  0  0  0  0  0  0  0  0
   -3.5339   -2.3000   29.2099 C   0  0  0  0  0  0  0  0  0  0  0  0
   -2.2841   -2.1138   28.6953 C   0  0  0  0  0  0  0  0  0  0  0  0
   -3.0314   -0.2543   27.6980 C   0  0  0  0  0  0  0  0  0  0  0  0
   -2.0255   -1.0192   27.9231 C   0  0  0  0  0  0  0  0  0  0  0  0
  -10.9642    4.9236   24.8221 Cl  0  0  0  0  0  0  0  0  0  0  0  0
   -7.0716   -1.2096   26.6874 Cl  0  0  0  0  0  0  0  0  0  0  0  0
  1  7  1  0
 11 13  1  0
  5 19  1  0
 10 20  1  0
  1  2  2  0
  2  4  1  0
  4  6  2  0
  6  5  1  0
  5  3  2  0
  3  1  1  0
  7  8  2  0
  8 12  1  0
 12 11  2  0
 11 10  1  0
 10  9  2  0
  9  7  1  0
 13 14  2  0
 14 15  1  0
 15 16  2  0
 16 18  1  0
 18 17  2  0
 17 13  1  0
M  END
$$$$
