No_4186-complexes_sdf/6BKW-FPZ/2024-09-17-14-21-01/
     RDKit          3D

 21 23  0  0  0  0  0  0  0  0999 V2000
   -7.9040    3.9820   27.1177 C   0  0  0  0  0  0  0  0  0  0  0  0
   -7.8663    4.8694   27.9238 C   0  0  0  0  0  0  0  0  0  0  0  0
   -9.0953    3.1697   27.0532 C   0  0  0  0  0  0  0  0  0  0  0  0
  -10.1313    3.4052   27.8871 C   0  0  0  0  0  0  0  0  0  0  0  0
   -8.9489    5.3814   28.6671 C   0  0  0  0  0  0  0  0  0  0  0  0
  -11.3390    2.6523   27.8968 C   0  0  0  0  0  0  0  0  0  0  0  0
  -10.0808    4.5561   28.7249 C   0  0  0  0  0  0  0  0  0  0  0  0
  -12.5026    3.1695   28.2289 C   0  0  0  0  0  0  0  0  0  0  0  0
  -13.6368    2.3582   28.2976 C   0  0  0  0  0  0  0  0  0  0  0  0
  -13.5054    0.9985   28.0340 C   0  0  0  0  0  0  0  0  0  0  0  0
  -11.2986    1.1719   27.8428 C   0  0  0  0  0  0  0  0  0  0  0  0
  -12.3324    0.4169   27.8705 C   0  0  0  0  0  0  0  0  0  0  0  0
   -8.9982    1.9246   26.2285 C   0  0  0  0  0  0  0  0  0  0  0  0
   -9.0357    2.0275   25.0235 C   0  0  0  0  0  0  0  0  0  0  0  0
   -9.3658    1.0412   24.1220 C   0  0  0  0  0  0  0  0  0  0  0  0
   -9.3195   -0.2500   24.5999 C   0  0  0  0  0  0  0  0  0  0  0  0
   -9.6835   -1.2462   23.7096 C   0  0  0  0  0  0  0  0  0  0  0  0
   -8.9802    0.6373   26.7949 C   0  0  0  0  0  0  0  0  0  0  0  0
   -9.0800   -0.4409   25.9097 C   0  0  0  0  0  0  0  0  0  0  0  0
  -10.7284   -1.4820   23.1338 C   0  0  0  0  0  0  0  0  0  0  0  0
  -10.9993   -2.5683   22.2325 C   0  0  0  0  0  0  0  0  0  0  0  0
  4  6  1  0
  3 13  1  0
 16 17  1  0
 17 20  2  3
 20 21  1  0
 13 14  2  0
 14 15  1  0
 15 16  2  0
 16 19  1  0
 19 18  2  0
 18 13  1  0
  6  8  2  0
  8  9  1  0
  9 10  2  0
 10 12  1  0
 12 11  2  0
 11  6  1  0
  1  2  2  0
  2  5  1  0
  5  7  2  0
  7  4  1  0
  4  3  2  0
  3  1  1  0
M  END
$$$$
