No_4777-complexes_sdf/6BKW-FPZ/2024-09-17-14-21-01/
     RDKit          3D

 33 38  0  0  0  0  0  0  0  0999 V2000
   -7.9040    3.9820   27.1177 C   0  0  0  0  0  0  0  0  0  0  0  0
   -7.8663    4.8694   27.9238 C   0  0  0  0  0  0  0  0  0  0  0  0
   -9.0953    3.1697   27.0532 C   0  0  0  0  0  0  0  0  0  0  0  0
   -9.1405    2.0104   26.1761 C   0  0  0  0  0  0  0  0  0  0  0  0
   -9.0299    5.5381   28.3948 C   0  0  0  0  0  0  0  0  0  0  0  0
  -10.2709    4.9222   28.1362 C   0  0  0  0  0  0  0  0  0  0  0  0
  -10.2487    3.7550   27.4045 C   0  0  0  0  0  0  0  0  0  0  0  0
   -9.8414    1.7696   25.2539 C   0  0  0  0  0  0  0  0  0  0  0  0
   -9.7739    0.5809   24.4617 C   0  0  0  0  0  0  0  0  0  0  0  0
   -8.8358   -0.0465   24.6629 C   0  0  0  0  0  0  0  0  0  0  0  0
   -7.9913    1.0250   26.2137 C   0  0  0  0  0  0  0  0  0  0  0  0
   -7.8550   -0.0041   25.5825 C   0  0  0  0  0  0  0  0  0  0  0  0
  -11.5527    3.0761   27.1736 C   0  0  0  0  0  0  0  0  0  0  0  0
  -12.5784    3.2905   28.1153 C   0  0  0  0  0  0  0  0  0  0  0  0
  -13.7452    2.6486   28.0361 C   0  0  0  0  0  0  0  0  0  0  0  0
  -13.9340    1.8641   26.8733 C   0  0  0  0  0  0  0  0  0  0  0  0
  -12.9929    1.7454   25.9116 C   0  0  0  0  0  0  0  0  0  0  0  0
  -11.7831    2.3583   26.0688 C   0  0  0  0  0  0  0  0  0  0  0  0
  -11.1853    2.3214   24.9443 N   0  0  0  0  0  0  0  0  0  0  0  0
  -11.4132    2.9992   23.8255 C   0  0  0  0  0  0  0  0  0  0  0  0
  -11.1322    4.3343   23.7561 C   0  0  0  0  0  0  0  0  0  0  0  0
  -11.8995    2.3626   22.6690 C   0  0  0  0  0  0  0  0  0  0  0  0
  -12.0317    2.9587   21.5344 C   0  0  0  0  0  0  0  0  0  0  0  0
  -11.2611    5.0804   22.5524 C   0  0  0  0  0  0  0  0  0  0  0  0
  -11.6849    4.3962   21.4185 C   0  0  0  0  0  0  0  0  0  0  0  0
  -15.2271    1.1388   26.7517 C   0  0  0  0  0  0  0  0  0  0  0  0
  -15.5476    0.5289   25.7603 C   0  0  0  0  0  0  0  0  0  0  0  0
  -14.5362    0.4014   24.7160 C   0  0  0  0  0  0  0  0  0  0  0  0
  -13.3566    0.9753   24.8694 C   0  0  0  0  0  0  0  0  0  0  0  0
  -14.8925   -0.4302   23.4914 C   0  0  0  0  0  0  0  0  0  0  0  0
  -15.7217   -1.1157   23.7780 F   0  0  0  0  0  0  0  0  0  0  0  0
  -13.7697   -1.0518   23.1275 F   0  0  0  0  0  0  0  0  0  0  0  0
  -15.1861    0.5062   22.5656 F   0  0  0  0  0  0  0  0  0  0  0  0
  3  4  1  0
  7 13  1  0
  8 19  1  0
 18 19  1  0
 19 20  1  0
 28 30  1  0
 30 31  1  0
 30 32  1  0
 30 33  1  0
  1  2  2  0
  2  5  1  0
  5  6  2  0
  6  7  1  0
  7  3  2  0
  3  1  1  0
  4  8  2  0
  8  9  1  0
  9 10  2  0
 10 12  1  0
 12 11  2  0
 11  4  1  0
 17 29  1  0
 29 28  2  0
 28 27  1  0
 27 26  2  0
 26 16  1  0
 20 21  2  0
 21 24  1  0
 24 25  2  0
 25 23  1  0
 23 22  2  0
 22 20  1  0
 13 14  2  0
 14 15  1  0
 15 16  2  0
 16 17  1  0
 17 18  2  0
 18 13  1  0
M  END
$$$$
