No_465-complexes_sdf/6BKW-FPZ/2024-09-17-14-21-01/
     RDKit          3D

 22 24  0  0  0  0  0  0  0  0999 V2000
   -7.2496    3.8871   27.4508 C   0  0  0  0  0  0  0  0  0  0  0  0
   -7.9379    4.9063   27.8518 C   0  0  0  0  0  0  0  0  0  0  0  0
   -9.3460    4.8223   27.8695 C   0  0  0  0  0  0  0  0  0  0  0  0
   -7.8628    2.6163   27.1065 C   0  0  0  0  0  0  0  0  0  0  0  0
   -9.2787    2.5744   27.1970 C   0  0  0  0  0  0  0  0  0  0  0  0
  -10.0108    3.6770   27.6340 C   0  0  0  0  0  0  0  0  0  0  0  0
  -11.4834    3.5674   27.7432 C   0  0  0  0  0  0  0  0  0  0  0  0
  -12.3295    3.8838   27.2730 C   0  0  0  0  0  0  0  0  0  0  0  0
  -13.3572    4.0099   27.2530 C   0  0  0  0  0  0  0  0  0  0  0  0
  -14.0871    3.4965   28.3847 C   0  0  0  0  0  0  0  0  0  0  0  0
  -13.2861    2.9199   29.3167 C   0  0  0  0  0  0  0  0  0  0  0  0
  -11.8737    2.9562   29.0926 C   0  0  0  0  0  0  0  0  0  0  0  0
   -7.1043    1.4678   26.7692 C   0  0  0  0  0  0  0  0  0  0  0  0
   -6.0605    0.9956   27.6650 C   0  0  0  0  0  0  0  0  0  0  0  0
   -5.3722   -0.1526   27.4435 C   0  0  0  0  0  0  0  0  0  0  0  0
   -5.7908   -0.9638   26.4172 C   0  0  0  0  0  0  0  0  0  0  0  0
   -7.5063    0.4912   25.9203 C   0  0  0  0  0  0  0  0  0  0  0  0
   -6.8761   -0.6229   25.6528 C   0  0  0  0  0  0  0  0  0  0  0  0
   -4.1939   -0.4636   28.3225 C   0  0  0  0  0  0  0  0  0  0  0  0
   -4.1097    0.0775   29.4051 O   0  0  0  0  0  0  0  0  0  0  0  0
   -3.4315   -1.3457   27.9389 F   0  0  0  0  0  0  0  0  0  0  0  0
   -7.3281    6.1011   28.1253 O   0  0  0  0  0  0  0  0  0  0  0  0
  6  7  1  0
  4 13  1  0
 15 19  1  0
 19 20  2  0
 19 21  1  0
  2 22  1  0
  1  2  2  0
  2  3  1  0
  3  6  2  0
  6  5  1  0
  5  4  2  0
  4  1  1  0
 13 14  2  0
 14 15  1  0
 15 16  2  0
 16 18  1  0
 18 17  2  0
 17 13  1  0
  7  8  2  0
  8  9  1  0
  9 10  2  0
 10 11  1  0
 11 12  2  0
 12  7  1  0
M  END
$$$$
