No_408-complexes_sdf/6BKW-FPZ/2024-09-17-14-21-01/
     RDKit          3D

 40 44  0  0  0  0  0  0  0  0999 V2000
   -7.2496    3.8871   27.4508 C   0  0  0  0  0  0  0  0  0  0  0  0
   -7.9379    4.9063   27.8518 C   0  0  0  0  0  0  0  0  0  0  0  0
   -9.3460    4.8223   27.8695 C   0  0  0  0  0  0  0  0  0  0  0  0
   -7.8628    2.6163   27.1065 C   0  0  0  0  0  0  0  0  0  0  0  0
   -9.2787    2.5744   27.1970 C   0  0  0  0  0  0  0  0  0  0  0  0
  -10.0108    3.6770   27.6340 C   0  0  0  0  0  0  0  0  0  0  0  0
  -11.4855    3.5731   27.7420 C   0  0  0  0  0  0  0  0  0  0  0  0
  -12.3115    4.3555   27.3965 C   0  0  0  0  0  0  0  0  0  0  0  0
  -13.6950    4.4264   27.6217 C   0  0  0  0  0  0  0  0  0  0  0  0
  -12.0456    2.7616   28.8226 C   0  0  0  0  0  0  0  0  0  0  0  0
  -13.3111    2.6538   29.1891 C   0  0  0  0  0  0  0  0  0  0  0  0
  -14.1752    3.5794   28.5803 C   0  0  0  0  0  0  0  0  0  0  0  0
   -7.1357    1.5705   26.7870 N   0  0  0  0  0  0  0  0  0  0  0  0
   -6.1544    1.0966   27.6190 C   0  0  0  0  0  0  0  0  0  0  0  0
   -5.4630   -0.1305   27.3397 C   0  0  2  0  0  0  0  0  0  0  0  0
   -7.6018    0.6442   25.8875 C   0  0  0  0  0  0  0  0  0  0  0  0
   -7.5181   -0.4720   26.0809 C   0  0  0  0  0  0  0  0  0  0  0  0
   -6.2876   -1.0010   26.6653 C   0  0  0  0  0  0  0  0  0  0  0  0
   -7.3249    6.0663   28.1457 F   0  0  0  0  0  0  0  0  0  0  0  0
  -13.8084    1.6790   30.1843 C   0  0  0  0  0  0  0  0  0  0  0  0
  -13.8145    0.4741   29.8767 O   0  0  0  0  0  0  0  0  0  0  0  0
  -14.2185    2.1156   31.3556 O   0  0  0  0  0  0  0  0  0  0  0  0
   -4.3212   -0.5113   28.1859 C   0  0  0  0  0  0  0  0  0  0  0  0
   -3.3118    0.0907   27.7624 F   0  0  0  0  0  0  0  0  0  0  0  0
   -4.4317   -0.0338   29.4843 F   0  0  0  0  0  0  0  0  0  0  0  0
   -4.1140   -1.7642   28.2011 F   0  0  0  0  0  0  0  0  0  0  0  0
  -15.3328    2.0167   31.8009 C   0  0  0  0  0  0  0  0  0  0  0  0
  -15.7384    2.8876   32.4492 C   0  0  0  0  0  0  0  0  0  0  0  0
  -14.8495    3.7605   33.1341 C   0  0  0  0  0  0  0  0  0  0  0  0
  -15.1704    5.0249   33.7678 C   0  0  0  0  0  0  0  0  0  0  0  0
  -14.1298    5.8438   34.2803 C   0  0  0  0  0  0  0  0  0  0  0  0
  -12.8235    5.3970   34.3259 C   0  0  0  0  0  0  0  0  0  0  0  0
  -12.5316    4.1403   33.7780 C   0  0  0  0  0  0  0  0  0  0  0  0
  -13.4905    3.4429   33.2119 C   0  0  0  0  0  0  0  0  0  0  0  0
  -15.6318    3.6434   28.9042 C   0  0  0  0  0  0  0  0  0  0  0  0
  -16.0505    4.8432   29.2542 C   0  0  0  0  0  0  0  0  0  0  0  0
  -17.4653    5.0581   29.5473 C   0  0  0  0  0  0  0  0  0  0  0  0
  -18.2931    3.9528   29.5259 C   0  0  0  0  0  0  0  0  0  0  0  0
  -17.7649    2.7238   29.0998 C   0  0  0  0  0  0  0  0  0  0  0  0
  -16.4152    2.5899   28.7788 C   0  0  0  0  0  0  0  0  0  0  0  0
  6  7  1  0
  4 13  1  0
 13 14  1  0
 13 16  1  0
 15 18  1  0
 17 18  1  0
  2 19  1  0
 11 20  1  0
 20 21  2  0
 20 22  1  0
 15 23  1  1
 23 24  1  0
 23 25  1  0
 23 26  1  0
 22 27  1  0
 27 28  2  3
 28 29  1  0
 12 35  1  0
 14 15  1  0
 17 16  1  0
  1  2  2  0
  2  3  1  0
  3  6  2  0
  6  5  1  0
  5  4  2  0
  4  1  1  0
 35 36  2  0
 36 37  1  0
 37 38  2  0
 38 39  1  0
 39 40  2  0
 40 35  1  0
  7  8  2  0
  8  9  1  0
  9 12  2  0
 12 11  1  0
 11 10  2  0
 10  7  1  0
 29 30  2  0
 30 31  1  0
 31 32  2  0
 32 33  1  0
 33 34  2  0
 34 29  1  0
M  END
$$$$
