No_4214-complexes_sdf/6BKW-FPZ/2024-09-17-14-21-01/
     RDKit          3D

 18 19  0  0  0  0  0  0  0  0999 V2000
   -7.9040    3.9820   27.1177 C   0  0  0  0  0  0  0  0  0  0  0  0
   -9.0711    4.3164   27.0630 C   0  0  0  0  0  0  0  0  0  0  0  0
   -9.5182    5.5541   27.5777 C   0  0  0  0  0  0  0  0  0  0  0  0
   -6.9424    4.7983   27.8424 C   0  0  0  0  0  0  0  0  0  0  0  0
   -7.3526    5.9739   28.3909 C   0  0  0  0  0  0  0  0  0  0  0  0
   -8.6479    6.3742   28.2170 C   0  0  0  0  0  0  0  0  0  0  0  0
  -10.2021    3.5782   26.4472 C   0  0  0  0  0  0  0  0  0  0  0  0
  -11.2960    3.3861   26.7088 C   0  0  0  0  0  0  0  0  0  0  0  0
  -12.3511    2.6357   26.0680 C   0  0  0  0  0  0  0  0  0  0  0  0
   -9.9867    3.5179   24.9091 C   0  0  0  0  0  0  0  0  0  0  0  0
  -10.8343    2.8649   24.1314 C   0  0  0  0  0  0  0  0  0  0  0  0
  -12.0798    2.4985   24.7107 C   0  0  0  0  0  0  0  0  0  0  0  0
  -10.5713    2.6725   22.7319 C   0  0  1  0  0  0  0  0  0  0  0  0
  -10.8388    3.5629   21.7683 C   0  0  0  0  0  0  0  0  0  0  0  0
   -9.9050    1.4691   22.3213 C   0  0  0  0  0  0  0  0  0  0  0  0
   -9.1390    0.6975   23.2314 C   0  0  0  0  0  0  0  0  0  0  0  0
   -8.5038   -0.4797   22.7234 C   0  0  0  0  0  0  0  0  0  0  0  0
   -8.7802   -0.9011   21.4308 C   0  0  0  0  0  0  0  0  0  0  0  0
  2  7  1  0
 11 13  1  0
 13 14  1  1
 13 15  1  0
 15 16  2  3
 16 17  1  0
 17 18  2  0
  1  2  2  0
  2  3  1  0
  3  6  2  0
  6  5  1  0
  5  4  2  0
  4  1  1  0
  7  8  2  0
  8  9  1  0
  9 12  2  0
 12 11  1  0
 11 10  2  0
 10  7  1  0
M  END
$$$$
