No_4784-complexes_sdf/6BKW-FPZ/2024-09-17-14-21-01/
     RDKit          3D

 36 40  0  0  0  0  0  0  0  0999 V2000
   -7.9040    3.9820   27.1177 C   0  0  0  0  0  0  0  0  0  0  0  0
   -8.2057    2.8231   26.8733 C   0  0  0  0  0  0  0  0  0  0  0  0
   -8.7695    5.0740   26.7916 C   0  0  0  0  0  0  0  0  0  0  0  0
   -9.9618    4.7598   26.1630 C   0  0  0  0  0  0  0  0  0  0  0  0
   -9.4200    2.4524   26.2849 C   0  0  0  0  0  0  0  0  0  0  0  0
  -10.2590    3.4815   25.9250 C   0  0  0  0  0  0  0  0  0  0  0  0
   -8.3840    6.4693   27.0829 C   0  0  0  0  0  0  0  0  0  0  0  0
   -7.7453    6.8270   28.1334 N   0  0  0  0  0  0  0  0  0  0  0  0
   -8.8431    7.4339   26.3634 O   0  0  0  0  0  0  0  0  0  0  0  0
   -7.2735    1.6676   27.2781 C   0  0  0  0  0  0  0  0  0  0  0  0
   -7.6008    0.4579   27.2651 O   0  0  0  0  0  0  0  0  0  0  0  0
   -5.9239    1.9779   27.5567 O   0  0  0  0  0  0  0  0  0  0  0  0
   -5.0573    0.9954   27.8966 C   0  0  0  0  0  0  0  0  0  0  0  0
   -4.8919    0.6892   28.8620 C   0  0  0  0  0  0  0  0  0  0  0  0
   -3.7866   -0.3597   29.2001 C   0  0  0  0  0  0  0  0  0  0  0  0
   -2.8896   -0.6213   28.1740 C   0  0  0  0  0  0  0  0  0  0  0  0
   -3.1065   -0.0281   26.9205 C   0  0  0  0  0  0  0  0  0  0  0  0
   -4.1498    0.7864   26.7517 C   0  0  0  0  0  0  0  0  0  0  0  0
   -3.5886   -0.8760   30.5861 C   0  0  0  0  0  0  0  0  0  0  0  0
   -2.9697   -1.9881   30.7603 C   0  0  0  0  0  0  0  0  0  0  0  0
   -4.0717   -0.0780   31.6959 C   0  0  0  0  0  0  0  0  0  0  0  0
   -3.8907   -0.5671   32.9983 C   0  0  1  0  0  0  0  0  0  0  0  0
   -2.7454   -2.4727   32.1065 C   0  0  0  0  0  0  0  0  0  0  0  0
   -3.2210   -1.7425   33.2439 C   0  0  0  0  0  0  0  0  0  0  0  0
   -2.9985   -2.2323   34.6086 C   0  0  0  0  0  0  0  0  0  0  0  0
   -2.8868   -1.7575   35.5955 C   0  0  0  0  0  0  0  0  0  0  0  0
   -2.7362   -1.7041   36.7253 C   0  0  0  0  0  0  0  0  0  0  0  0
   -2.6964   -0.6665   37.8120 C   0  0  0  0  0  0  0  0  0  0  0  0
   -2.9107    0.6900   37.3369 C   0  0  0  0  0  0  0  0  0  0  0  0
   -3.1639    0.8125   36.0271 N   0  0  0  0  0  0  0  0  0  0  0  0
   -3.1472   -0.1731   35.2149 C   0  0  2  0  0  0  0  0  0  0  0  0
   -3.5594    0.1053   33.9490 O   0  0  0  0  0  0  0  0  0  0  0  0
   -2.9500    1.6912   38.0954 F   0  0  0  0  0  0  0  0  0  0  0  0
   -2.0204   -3.7759   32.1854 C   0  0  0  0  0  0  0  0  0  0  0  0
   -1.3857   -4.1285   31.3338 C   0  0  0  0  0  0  0  0  0  0  0  0
   -1.5903   -3.6577   29.9605 C   0  0  0  0  0  0  0  0  0  0  0  0
  1  2  2  0
  1  3  1  0
  3  4  2  0
  2  5  1  0
  4  6  1  0
  5  6  2  0
  3  7  1  0
  7  8  1  0
  7  9  2  0
  2 10  1  0
 10 11  2  0
 10 12  1  0
 12 13  1  0
 13 14  2  0
 14 15  1  0
 15 16  2  0
 16 17  1  0
 13 18  1  0
 17 18  2  0
 15 19  1  0
 19 20  2  0
 19 21  1  0
 22 21  1  6
 20 23  1  0
 22 24  1  0
 23 24  1  0
 24 25  1  0
 25 26  2  0
 26 27  1  0
 27 28  2  0
 28 29  1  0
 29 30  2  0
 26 31  1  0
 30 31  1  0
 22 32  1  0
 31 32  1  1
 29 33  1  0
 23 34  1  0
 34 35  2  3
 35 36  1  0
M  END
$$$$
