No_4139-complexes_sdf/6BKW-FPZ/2024-09-17-14-21-01/
     RDKit          3D

 12 12  0  0  0  0  0  0  0  0999 V2000
   -7.2496    3.8871   27.4508 C   0  0  0  0  0  0  0  0  0  0  0  0
   -8.5096    4.0291   27.2770 C   0  0  0  0  0  0  0  0  0  0  0  0
   -9.3451    2.8786   26.9046 C   0  0  0  0  0  0  0  0  0  0  0  0
   -6.6065    2.5680   27.5073 C   0  0  0  0  0  0  0  0  0  0  0  0
   -7.4233    1.4858   27.2402 C   0  0  0  0  0  0  0  0  0  0  0  0
   -8.7362    1.6525   26.9989 C   0  0  0  0  0  0  0  0  0  0  0  0
   -8.9197    5.4826   27.2215 C   0  0  0  0  0  0  0  0  0  0  0  0
   -8.1138    6.5118   27.4531 C   0  0  0  0  0  0  0  0  0  0  0  0
   -8.6288    7.8252   27.3415 C   0  0  0  0  0  0  0  0  0  0  0  0
   -6.6138    0.2154   27.3131 C   0  0  0  0  0  0  0  0  0  0  0  0
   -6.9802   -0.7185   26.7562 O   0  0  0  0  0  0  0  0  0  0  0  0
   -5.6048    0.4620   27.8072 F   0  0  0  0  0  0  0  0  0  0  0  0
  2  7  1  0
  7  8  2  3
  8  9  1  0
  5 10  1  0
 10 11  2  0
 10 12  1  0
  1  2  2  0
  2  3  1  0
  3  6  2  0
  6  5  1  0
  5  4  2  0
  4  1  1  0
M  END
$$$$
