No_4918-complexes_sdf/6BKW-FPZ/2024-09-17-14-21-01/
     RDKit          3D

 12 13  0  0  0  0  0  0  0  0999 V2000
   -7.9040    3.9820   27.1177 C   0  0  0  0  0  0  0  0  0  0  0  0
   -8.2057    2.8231   26.8733 C   0  0  0  0  0  0  0  0  0  0  0  0
   -7.4766    1.7477   27.4593 C   0  0  0  0  0  0  0  0  0  0  0  0
   -6.7221    4.3631   27.8544 C   0  0  0  0  0  0  0  0  0  0  0  0
   -7.8124    0.3771   27.2172 C   0  0  0  0  0  0  0  0  0  0  0  0
   -5.8627    3.2946   28.1755 C   0  0  0  0  0  0  0  0  0  0  0  0
   -6.2236    2.0117   28.0119 C   0  0  0  0  0  0  0  0  0  0  0  0
   -9.1861    0.0318   27.1845 C   0  0  0  0  0  0  0  0  0  0  0  0
   -9.5826   -1.3341   27.1897 C   0  0  0  0  0  0  0  0  0  0  0  0
   -8.5515   -2.2621   27.1957 C   0  0  0  0  0  0  0  0  0  0  0  0
   -7.0952   -0.7997   27.3955 C   0  0  0  0  0  0  0  0  0  0  0  0
   -7.3420   -2.0183   27.3590 C   0  0  0  0  0  0  0  0  0  0  0  0
  3  5  1  0
  5  8  2  0
  8  9  1  0
  9 10  2  0
 10 12  1  0
 12 11  2  0
 11  5  1  0
  1  2  2  0
  2  3  1  0
  3  7  2  0
  7  6  1  0
  6  4  2  0
  4  1  1  0
M  END
$$$$
