No_4285-complexes_sdf/6BKW-FPZ/2024-09-17-14-21-01/
     RDKit          3D

 24 26  0  0  0  0  0  0  0  0999 V2000
   -7.7129    4.2099   27.0854 C   0  0  0  0  0  0  0  0  0  0  0  0
   -7.7814    5.1722   27.8972 C   0  0  0  0  0  0  0  0  0  0  0  0
   -8.8998    3.8713   26.3707 C   0  0  0  0  0  0  0  0  0  0  0  0
   -8.9563    2.6796   25.5490 C   0  0  0  0  0  0  0  0  0  0  0  0
   -8.8131    6.1334   27.9344 C   0  0  0  0  0  0  0  0  0  0  0  0
   -9.9804    5.8121   27.1929 C   0  0  0  0  0  0  0  0  0  0  0  0
   -9.9861    4.6836   26.4532 C   0  0  0  0  0  0  0  0  0  0  0  0
   -8.3357    1.4961   26.0703 C   0  0  0  0  0  0  0  0  0  0  0  0
   -8.2040    0.3562   25.3419 C   0  0  0  0  0  0  0  0  0  0  0  0
   -8.8256    0.3872   24.0713 C   0  0  0  0  0  0  0  0  0  0  0  0
   -9.4862    1.4967   23.5498 C   0  0  0  0  0  0  0  0  0  0  0  0
   -9.4639    2.6572   24.2913 C   0  0  0  0  0  0  0  0  0  0  0  0
  -10.0314    1.4967   22.2172 C   0  0  0  0  0  0  0  0  0  0  0  0
  -10.1834    0.3763   21.4963 C   0  0  0  0  0  0  0  0  0  0  0  0
   -9.4217   -0.7721   21.9894 C   0  0  0  0  0  0  0  0  0  0  0  0
   -8.8146   -0.7741   23.2075 C   0  0  0  0  0  0  0  0  0  0  0  0
   -9.4457   -1.9872   21.1051 C   0  0  0  0  0  0  0  0  0  0  0  0
  -10.2353   -2.8392   21.4289 O   0  0  0  0  0  0  0  0  0  0  0  0
   -8.5939   -2.0773   20.1208 O   0  0  0  0  0  0  0  0  0  0  0  0
   -7.5821   -0.8104   25.8825 C   0  0  0  0  0  0  0  0  0  0  0  0
   -6.8006   -0.8418   26.5987 O   0  0  0  0  0  0  0  0  0  0  0  0
   -7.7683   -1.9586   25.1123 O   0  0  0  0  0  0  0  0  0  0  0  0
   -6.6517    5.4430   28.6392 O   0  0  0  0  0  0  0  0  0  0  0  0
   -7.1870   -2.9955   25.8087 C   0  0  0  0  0  0  0  0  0  0  0  0
  3  4  1  0
 15 17  1  0
 17 18  2  0
 17 19  1  0
  9 20  1  0
 20 21  2  0
 20 22  1  0
  2 23  1  0
 22 24  1  0
  4  8  2  0
  8  9  1  0
  9 10  2  0
 11 12  2  0
 12  4  1  0
  1  2  2  0
  2  5  1  0
  5  6  2  0
  6  7  1  0
  7  3  2  0
  3  1  1  0
 10 11  1  0
 11 13  1  0
 13 14  2  0
 14 15  1  0
 15 16  2  0
 16 10  1  0
M  END
$$$$
