No_4858-complexes_sdf/6BKW-FPZ/2024-09-17-14-21-01/
     RDKit          3D

 29 31  0  0  0  0  0  0  0  0999 V2000
   -7.9040    3.9820   27.1177 C   0  0  0  0  0  0  0  0  0  0  0  0
   -9.0711    4.3164   27.0630 C   0  0  0  0  0  0  0  0  0  0  0  0
   -9.5182    5.5541   27.5777 C   0  0  0  0  0  0  0  0  0  0  0  0
   -6.9424    4.7983   27.8424 C   0  0  0  0  0  0  0  0  0  0  0  0
   -7.3526    5.9739   28.3909 C   0  0  0  0  0  0  0  0  0  0  0  0
   -8.6479    6.3742   28.2169 C   0  0  0  0  0  0  0  0  0  0  0  0
  -10.0793    3.4689   26.3368 C   0  0  0  0  0  0  0  0  0  0  0  0
   -9.6567    2.5965   25.4484 C   0  0  0  0  0  0  0  0  0  0  0  0
  -10.5086    1.8159   24.6228 C   0  0  0  0  0  0  0  0  0  0  0  0
  -11.8698    2.1070   24.6818 C   0  0  0  0  0  0  0  0  0  0  0  0
  -11.5100    3.6494   26.3434 C   0  0  0  0  0  0  0  0  0  0  0  0
  -12.3579    3.0256   25.6196 C   0  0  0  0  0  0  0  0  0  0  0  0
   -9.9679    0.8464   23.6790 C   0  0  1  0  0  0  0  0  0  0  0  0
   -9.8206    1.1764   22.4369 C   0  0  0  0  0  0  0  0  0  0  0  0
  -10.1091    2.3918   21.8651 C   0  0  0  0  0  0  0  0  0  0  0  0
  -10.3717    3.4637   22.4748 C   0  0  0  0  0  0  0  0  0  0  0  0
  -10.5848    4.7807   21.8020 C   0  0  0  0  0  0  0  0  0  0  0  0
  -10.9426    5.9183   22.5410 C   0  0  0  0  0  0  0  0  0  0  0  0
  -13.7858    3.2945   25.6809 C   0  0  0  0  0  0  0  0  0  0  0  0
  -14.4192    3.6090   24.7755 C   0  0  0  0  0  0  0  0  0  0  0  0
  -15.8748    3.9232   24.7695 C   0  0  0  0  0  0  0  0  0  0  0  0
  -16.4735    3.9334   26.0455 C   0  0  0  0  0  0  0  0  0  0  0  0
  -14.3544    3.4038   27.0543 C   0  0  0  0  0  0  0  0  0  0  0  0
  -15.6856    3.7080   27.2056 C   0  0  0  0  0  0  0  0  0  0  0  0
   -9.5479   -0.3650   24.3123 C   0  0  0  0  0  0  0  0  0  0  0  0
   -9.4012   -0.6501   25.3737 O   0  0  0  0  0  0  0  0  0  0  0  0
   -9.3392   -1.3777   23.2996 N   0  0  0  0  0  0  0  0  0  0  0  0
   -8.9452   -2.6696   23.7109 C   0  0  0  0  0  0  0  0  0  0  0  0
  -11.0108    5.5757   23.9927 C   0  0  0  0  0  0  0  0  0  0  0  0
  2  7  1  0
  9 13  1  0
 13 14  1  1
 14 15  1  0
 15 16  2  3
 16 17  1  0
 17 18  2  3
 12 19  1  0
 13 25  1  0
 25 26  2  0
 25 27  1  0
 27 28  1  0
 18 29  1  0
  7  8  2  0
  8  9  1  0
  9 10  2  0
 10 12  1  0
 12 11  2  0
 11  7  1  0
  1  2  2  0
  2  3  1  0
  3  6  2  0
  6  5  1  0
  5  4  2  0
  4  1  1  0
 19 20  2  0
 20 21  1  0
 21 22  2  0
 22 24  1  0
 24 23  2  0
 23 19  1  0
M  END
$$$$
