No_4765-complexes_sdf/6BKW-FPZ/2024-09-17-14-21-01/
     RDKit          3D

 15 16  0  0  0  0  0  0  0  0999 V2000
   -7.7129    4.2099   27.0854 C   0  0  0  0  0  0  0  0  0  0  0  0
   -7.7814    5.1722   27.8972 C   0  0  0  0  0  0  0  0  0  0  0  0
   -7.2983    2.9533   27.5684 C   0  0  0  0  0  0  0  0  0  0  0  0
   -7.6908    1.8111   26.9553 C   0  0  0  0  0  0  0  0  0  0  0  0
   -7.2237    0.5782   27.3450 C   0  0  0  0  0  0  0  0  0  0  0  0
   -5.9667    0.5292   27.9479 C   0  0  0  0  0  0  0  0  0  0  0  0
   -5.4162   -0.7296   28.3909 C   0  0  0  0  0  0  0  0  0  0  0  0
   -4.1975   -0.7374   29.0806 C   0  0  0  0  0  0  0  0  0  0  0  0
   -3.7465   -1.8829   29.6943 C   0  0  0  0  0  0  0  0  0  0  0  0
   -4.4132   -3.0154   29.5588 C   0  0  0  0  0  0  0  0  0  0  0  0
   -6.0935   -1.9088   28.4460 C   0  0  0  0  0  0  0  0  0  0  0  0
   -5.6332   -3.0126   28.9793 C   0  0  0  0  0  0  0  0  0  0  0  0
   -5.2631    1.7636   28.2112 C   0  0  0  0  0  0  0  0  0  0  0  0
   -5.8502    2.9942   27.8597 C   0  0  0  0  0  0  0  0  0  0  0  0
   -8.4664    6.5046   27.6126 C   0  0  0  0  0  0  0  0  0  0  0  0
  1  2  2  3
  1  3  1  0
  6  7  1  0
  2 15  1  0
  7  8  2  0
  8  9  1  0
  9 10  2  0
 10 12  1  0
 12 11  2  0
 11  7  1  0
  3  4  2  0
  4  5  1  0
  5  6  2  0
  6 13  1  0
 13 14  2  0
 14  3  1  0
M  END
$$$$
