No_4070-complexes_sdf/6BKW-FPZ/2024-09-17-14-21-01/
     RDKit          3D

 39 42  0  0  0  0  0  0  0  0999 V2000
   -7.9040    3.9820   27.1177 C   0  0  0  0  0  0  0  0  0  0  0  0
   -9.0711    4.3164   27.0630 C   0  0  0  0  0  0  0  0  0  0  0  0
   -9.5294    5.4517   27.7215 C   0  0  0  0  0  0  0  0  0  0  0  0
   -7.4336    2.7132   26.5681 C   0  0  0  0  0  0  0  0  0  0  0  0
   -8.3353    1.8569   26.0442 C   0  0  0  0  0  0  0  0  0  0  0  0
   -7.9243    0.5609   25.6726 C   0  0  0  0  0  0  0  0  0  0  0  0
  -10.0396    3.4856   26.3639 C   0  0  2  0  0  0  0  0  0  0  0  0
   -9.6183    2.2835   25.9020 C   0  0  0  0  0  0  0  0  0  0  0  0
   -7.0531   -0.1529   26.4800 C   0  0  0  0  0  0  0  0  0  0  0  0
   -6.3867   -1.2000   26.0544 C   0  0  0  0  0  0  0  0  0  0  0  0
   -6.7397   -1.7167   24.7926 C   0  0  0  0  0  0  0  0  0  0  0  0
   -8.0450    0.0093   24.4329 C   0  0  0  0  0  0  0  0  0  0  0  0
   -7.4775   -1.0351   23.9223 C   0  0  0  0  0  0  0  0  0  0  0  0
   -6.8576    4.7409   27.9559 C   0  0  0  0  0  0  0  0  0  0  0  0
   -7.3155    5.9966   28.4747 C   0  0  0  0  0  0  0  0  0  0  0  0
   -8.6609    6.3430   28.3463 C   0  0  0  0  0  0  0  0  0  0  0  0
  -11.3887    3.8824   26.0610 C   0  0  1  0  0  0  0  0  0  0  0  0
  -11.9767    3.8593   24.9336 C   0  0  0  0  0  0  0  0  0  0  0  0
  -11.2354    4.0094   23.7900 C   0  0  0  0  0  0  0  0  0  0  0  0
  -11.7472    4.1312   22.4926 C   0  0  0  0  0  0  0  0  0  0  0  0
  -10.8459    4.2424   21.4038 C   0  0  0  0  0  0  0  0  0  0  0  0
  -10.4508    3.2383   20.6457 C   0  0  0  0  0  0  0  0  0  0  0  0
  -12.2731    3.4642   27.2969 C   0  0  0  0  0  0  0  0  0  0  0  0
  -12.9504    2.6022   27.4227 C   0  0  0  0  0  0  0  0  0  0  0  0
  -12.7048    1.4403   26.6036 C   0  0  0  0  0  0  0  0  0  0  0  0
  -13.7489    0.5009   26.3465 C   0  0  0  0  0  0  0  0  0  0  0  0
  -13.4727   -0.4428   25.4098 C   0  0  0  0  0  0  0  0  0  0  0  0
  -14.3630   -1.3813   25.0503 C   0  0  0  0  0  0  0  0  0  0  0  0
  -12.1709   -0.4931   24.7077 C   0  0  0  0  0  0  0  0  0  0  0  0
  -11.9162   -1.5077   23.8622 C   0  0  0  0  0  0  0  0  0  0  0  0
  -14.1016   -2.3984   24.0752 C   0  0  0  0  0  0  0  0  0  0  0  0
  -12.8478   -2.4094   23.4815 C   0  0  0  0  0  0  0  0  0  0  0  0
  -14.1944   -0.0867   27.6611 C   0  0  0  0  0  0  0  0  0  0  0  0
  -10.7267    2.0147   20.9853 C   0  0  0  0  0  0  0  0  0  0  0  0
  -11.8453    1.5270   21.4412 C   0  0  0  0  0  0  0  0  0  0  0  0
  -12.0717    0.1704   21.5721 C   0  0  0  0  0  0  0  0  0  0  0  0
  -13.3999   -0.3051   21.6503 C   0  0  0  0  0  0  0  0  0  0  0  0
  -14.0416    0.2292   20.5147 C   0  0  0  0  0  0  0  0  0  0  0  0
  -14.0610    1.6637   20.3624 C   0  0  0  0  0  0  0  0  0  0  0  0
  1  4  1  0
  4  5  1  0
  5  6  1  0
  2  7  1  0
  5  8  1  0
  7  8  1  6
  7 17  1  0
 17 18  1  6
 18 19  1  0
 19 20  2  3
 20 21  1  0
 21 22  1  0
 17 23  1  0
 23 24  2  3
 24 25  1  0
 25 26  2  3
 26 27  1  0
 26 33  1  0
 22 34  1  0
 34 35  2  3
 35 36  1  0
 36 37  2  3
 37 38  1  0
 38 39  2  0
  6  9  2  0
  9 10  1  0
 10 11  2  0
 11 13  1  0
 13 12  2  0
 12  6  1  0
  1  2  1  0
  2  3  2  0
  3 16  1  0
 16 15  2  0
 15 14  1  0
 14  1  2  0
 27 28  2  0
 28 31  1  0
 31 32  2  0
 32 30  1  0
 30 29  2  0
 29 27  1  0
M  END
$$$$
