No_4529-complexes_sdf/6BKW-FPZ/2024-09-17-14-21-01/
     RDKit          3D

 23 26  0  0  0  0  0  0  0  0999 V2000
   -7.2496    3.8871   27.4508 C   0  0  0  0  0  0  0  0  0  0  0  0
   -8.5096    4.0291   27.2770 C   0  0  0  0  0  0  0  0  0  0  0  0
   -9.3451    2.8786   26.9046 C   0  0  0  0  0  0  0  0  0  0  0  0
   -6.6065    2.5680   27.5073 C   0  0  0  0  0  0  0  0  0  0  0  0
   -7.4233    1.4858   27.2402 C   0  0  0  0  0  0  0  0  0  0  0  0
   -8.7362    1.6525   26.9989 C   0  0  0  0  0  0  0  0  0  0  0  0
   -9.1023    5.3710   27.2131 C   0  0  0  0  0  0  0  0  0  0  0  0
  -10.3176    5.4276   27.6392 F   0  0  0  0  0  0  0  0  0  0  0  0
   -8.3884    6.2664   28.0320 F   0  0  0  0  0  0  0  0  0  0  0  0
   -9.0168    5.8639   25.9493 F   0  0  0  0  0  0  0  0  0  0  0  0
   -5.3235    2.4564   27.8014 N   0  0  0  0  0  0  0  0  0  0  0  0
   -6.7806    0.1957   27.2365 C   0  0  1  0  0  0  0  0  0  0  0  0
   -5.4325    0.0427   27.6196 C   0  0  0  0  0  0  0  0  0  0  0  0
   -4.7114    1.2619   27.9049 C   0  0  0  0  0  0  0  0  0  0  0  0
   -3.4755    1.1013   28.3607 O   0  0  0  0  0  0  0  0  0  0  0  0
   -9.6567    0.5103   26.7148 C   0  0  0  0  0  0  0  0  0  0  0  0
  -11.0266    0.6583   26.8328 C   0  0  0  0  0  0  0  0  0  0  0  0
  -11.8726   -0.4822   26.6531 C   0  0  0  0  0  0  0  0  0  0  0  0
  -11.2472   -1.6781   26.3358 C   0  0  0  0  0  0  0  0  0  0  0  0
   -9.9211   -1.8080   26.2248 C   0  0  0  0  0  0  0  0  0  0  0  0
   -9.0881   -0.7578   26.4468 C   0  0  0  0  0  0  0  0  0  0  0  0
   -7.6838   -0.9325   26.8905 C   0  0  0  0  0  0  0  0  0  0  0  0
   -7.1408   -2.1149   26.8098 O   0  0  0  0  0  0  0  0  0  0  0  0
  2  7  1  0
  7  8  1  0
  7  9  1  0
  7 10  1  0
  4 11  1  0
  5 12  1  0
 11 14  1  0
 13 14  1  0
 14 15  2  0
  6 16  1  0
 12 22  1  0
 21 22  1  0
 22 23  2  0
 12 13  1  1
  1  2  2  0
  2  3  1  0
  3  6  2  0
  6  5  1  0
  5  4  2  0
  4  1  1  0
 16 17  2  0
 17 18  1  0
 18 19  2  0
 19 20  1  0
 20 21  2  0
 21 16  1  0
M  END
$$$$
