No_4027-complexes_sdf/6BKW-FPZ/2024-09-17-14-21-01/
     RDKit          3D

 14 15  0  0  0  0  0  0  0  0999 V2000
   -7.9040    3.9820   27.1177 C   0  0  0  0  0  0  0  0  0  0  0  0
   -7.8663    4.8694   27.9238 C   0  0  0  0  0  0  0  0  0  0  0  0
   -9.0501    3.8017   26.2617 C   0  0  0  0  0  0  0  0  0  0  0  0
  -10.0189    4.7608   26.3707 C   0  0  0  0  0  0  0  0  0  0  0  0
   -8.6973    5.9722   27.8968 C   0  0  0  0  0  0  0  0  0  0  0  0
   -9.8216    5.8946   27.1241 C   0  0  0  0  0  0  0  0  0  0  0  0
   -9.1445    2.6271   25.4265 C   0  0  0  0  0  0  0  0  0  0  0  0
  -10.0991    1.9696   25.4849 N   0  0  0  0  0  0  0  0  0  0  0  0
  -10.2034    0.7936   24.7479 C   0  0  0  0  0  0  0  0  0  0  0  0
  -11.3496    0.0526   24.8236 C   0  0  0  0  0  0  0  0  0  0  0  0
   -9.1668    0.3303   23.8974 C   0  0  0  0  0  0  0  0  0  0  0  0
   -9.3411   -0.8118   23.0991 C   0  0  0  0  0  0  0  0  0  0  0  0
  -11.4843   -1.1287   24.0547 C   0  0  0  0  0  0  0  0  0  0  0  0
  -10.4740   -1.5275   23.1947 C   0  0  0  0  0  0  0  0  0  0  0  0
  3  7  1  0
  7  8  2  3
  8  9  1  0
  9 10  2  0
 10 13  1  0
 13 14  2  0
 14 12  1  0
 12 11  2  0
 11  9  1  0
  1  2  2  0
  2  5  1  0
  5  6  2  0
  6  4  1  0
  4  3  2  0
  3  1  1  0
M  END
$$$$
