No_4747-complexes_sdf/6BKW-FPZ/2024-09-17-14-21-01/
     RDKit          3D

 29 32  0  0  0  0  0  0  0  0999 V2000
   -7.9040    3.9820   27.1177 C   0  0  0  0  0  0  0  0  0  0  0  0
   -7.8663    4.8694   27.9238 C   0  0  0  0  0  0  0  0  0  0  0  0
   -7.4547    2.7080   27.4594 C   0  0  0  0  0  0  0  0  0  0  0  0
   -8.7044    6.0412   27.8492 C   0  0  0  0  0  0  0  0  0  0  0  0
   -7.9501    1.5743   26.8848 C   0  0  0  0  0  0  0  0  0  0  0  0
   -8.8711    1.7575   25.8527 C   0  0  0  0  0  0  0  0  0  0  0  0
   -9.3585    2.9740   25.5109 C   0  0  0  0  0  0  0  0  0  0  0  0
   -8.8963    4.1169   26.2090 C   0  0  0  0  0  0  0  0  0  0  0  0
   -9.5489    5.3391   26.1902 C   0  0  0  0  0  0  0  0  0  0  0  0
   -9.3820    6.3910   26.9038 C   0  0  0  0  0  0  0  0  0  0  0  0
   -7.3369    0.2514   27.1196 C   0  0  0  0  0  0  0  0  0  0  0  0
   -6.0578    0.1272   27.6729 C   0  0  0  0  0  0  0  0  0  0  0  0
   -5.5396   -1.0824   28.0659 C   0  0  0  0  0  0  0  0  0  0  0  0
   -6.3769   -2.1724   27.9089 C   0  0  0  0  0  0  0  0  0  0  0  0
   -7.9629   -1.0043   27.1865 C   0  0  0  0  0  0  0  0  0  0  0  0
   -7.5746   -2.1313   27.5278 C   0  0  0  0  0  0  0  0  0  0  0  0
   -4.1243   -1.1040   28.5834 C   0  0  2  0  0  0  0  0  0  0  0  0
   -3.9588   -0.6425   29.9499 C   0  0  2  0  0  0  0  0  0  0  0  0
   -4.1603    0.6591   30.2099 C   0  0  0  0  0  0  0  0  0  0  0  0
   -2.5315   -1.0443   30.4571 C   0  0  0  0  0  0  0  0  0  0  0  0
   -4.9219   -1.5366   30.8602 C   0  0  0  0  0  0  0  0  0  0  0  0
   -4.6203   -1.3117   32.2464 C   0  0  0  0  0  0  0  0  0  0  0  0
   -3.3836   -1.7724   32.6974 C   0  0  1  0  0  0  0  0  0  0  0  0
   -2.2499   -0.9856   31.9472 C   0  0  0  0  0  0  0  0  0  0  0  0
   -3.1421   -1.4203   27.6588 C   0  0  0  0  0  0  0  0  0  0  0  0
   -3.1425   -1.5432   34.1919 C   0  0  0  0  0  0  0  0  0  0  0  0
   -2.4080   -0.6655   34.6844 C   0  0  0  0  0  0  0  0  0  0  0  0
   -2.2008   -0.4530   36.0943 C   0  0  0  0  0  0  0  0  0  0  0  0
   -3.1225   -0.8613   36.9172 N   0  0  0  0  0  0  0  0  0  0  0  0
  5 11  1  0
 13 17  1  0
 17 18  1  0
 18 19  1  6
 18 20  1  0
 18 21  1  0
 21 22  1  0
 23 22  1  6
 20 24  1  0
 23 24  1  0
 17 25  1  6
 23 26  1  0
 26 27  2  3
 27 28  1  0
 28 29  2  0
  1  3  1  0
  3  5  2  0
  5  6  1  0
  6  7  2  0
  7  8  1  0
 11 12  2  0
 12 13  1  0
 13 14  2  0
 14 16  1  0
 16 15  2  0
 15 11  1  0
  1  2  2  0
  2  4  1  0
  4 10  2  0
 10  9  1  0
  9  8  2  0
  8  1  1  0
M  END
$$$$
