No_4232-complexes_sdf/6BKW-FPZ/2024-09-17-14-21-01/
     RDKit          3D

 40 45  0  0  0  0  0  0  0  0999 V2000
   -7.9040    3.9820   27.1177 C   0  0  0  0  0  0  0  0  0  0  0  0
   -8.2057    2.8231   26.8733 C   0  0  0  0  0  0  0  0  0  0  0  0
   -7.4766    1.7477   27.4593 C   0  0  0  0  0  0  0  0  0  0  0  0
   -6.7221    4.3631   27.8544 C   0  0  0  0  0  0  0  0  0  0  0  0
   -6.1698    2.0708   27.9540 C   0  0  0  0  0  0  0  0  0  0  0  0
   -5.3297    1.0905   28.3358 N   0  0  0  0  0  0  0  0  0  0  0  0
   -5.8262    3.4361   28.2149 C   0  0  0  0  0  0  0  0  0  0  0  0
   -4.0883    1.2221   28.7646 C   0  0  0  0  0  0  0  0  0  0  0  0
   -5.6293   -0.2853   27.7843 C   0  0  0  0  0  0  0  0  0  0  0  0
   -8.7913    5.1506   26.7228 C   0  0  2  0  0  0  0  0  0  0  0  0
   -8.8613    6.3353   27.4554 C   0  0  0  0  0  0  0  0  0  0  0  0
  -10.1331    4.6008   26.2827 C   0  0  0  0  0  0  0  0  0  0  0  0
  -10.6526    4.6690   25.1061 C   0  0  0  0  0  0  0  0  0  0  0  0
  -11.8288    4.1220   24.6406 C   0  0  0  0  0  0  0  0  0  0  0  0
  -12.6932    3.6778   25.6212 C   0  0  0  0  0  0  0  0  0  0  0  0
  -11.2341    4.1029   27.1725 C   0  0  0  0  0  0  0  0  0  0  0  0
  -12.3801    3.7270   26.9504 C   0  0  0  0  0  0  0  0  0  0  0  0
   -5.4467   -1.2322   28.4286 C   0  0  0  0  0  0  0  0  0  0  0  0
   -3.5044    0.0496   29.5369 C   0  0  0  0  0  0  0  0  0  0  0  0
   -4.0325   -1.2267   29.2349 C   0  0  0  0  0  0  0  0  0  0  0  0
  -12.1714    4.1543   23.2068 C   0  0  0  0  0  0  0  0  0  0  0  0
  -11.8530    3.0154   22.6218 C   0  0  0  0  0  0  0  0  0  0  0  0
  -11.7563    2.9673   21.2994 C   0  0  0  0  0  0  0  0  0  0  0  0
  -12.0706    4.1631   20.5002 C   0  0  0  0  0  0  0  0  0  0  0  0
  -12.3312    5.2752   21.2105 C   0  0  0  0  0  0  0  0  0  0  0  0
  -12.3081    5.3785   22.5434 C   0  0  0  0  0  0  0  0  0  0  0  0
  -13.3389    3.2636   27.9615 C   0  0  0  0  0  0  0  0  0  0  0  0
  -13.1064    2.6711   29.0473 C   0  0  0  0  0  0  0  0  0  0  0  0
  -13.9873    2.3035   30.1059 C   0  0  0  0  0  0  0  0  0  0  0  0
  -13.5073    1.7659   31.2713 C   0  0  0  0  0  0  0  0  0  0  0  0
  -14.4692    1.5361   32.2929 C   0  0  0  0  0  0  0  0  0  0  0  0
  -15.7857    1.7815   32.1095 C   0  0  0  0  0  0  0  0  0  0  0  0
  -15.3698    2.6205   29.9123 C   0  0  0  0  0  0  0  0  0  0  0  0
  -16.2388    2.3061   30.9564 C   0  0  0  0  0  0  0  0  0  0  0  0
  -14.7341    3.7136   27.7089 C   0  0  0  0  0  0  0  0  0  0  0  0
  -15.7191    3.3097   28.7699 C   0  0  0  0  0  0  0  0  0  0  0  0
  -11.5110    1.8987   23.2497 F   0  0  0  0  0  0  0  0  0  0  0  0
  -13.9002    0.9470   33.5986 C   0  0  0  0  0  0  0  0  0  0  0  0
  -13.8584   -0.3626   33.8591 N   0  0  0  0  0  0  0  0  0  0  0  0
  -13.4875   -1.1815   33.0551 C   0  0  0  0  0  0  0  0  0  0  0  0
  5  6  1  0
  6  8  1  0
  6  9  1  0
  1 10  1  0
 10 11  1  1
 10 12  1  0
  8 19  1  0
 18 20  1  0
 14 21  1  0
 17 27  1  0
 22 37  1  0
 31 38  1  0
 38 39  1  0
 39 40  1  0
 19 20  1  0
 18  9  1  0
 29 30  2  0
 30 31  1  0
 31 32  2  0
 32 34  1  0
 34 33  2  0
 12 13  2  0
 13 14  1  0
 14 15  2  0
 15 17  1  0
 17 16  2  0
 16 12  1  0
  1  2  2  0
  2  3  1  0
  3  5  2  0
  5  7  1  0
  7  4  2  0
  4  1  1  0
 27 28  2  0
 28 29  1  0
 29 33  1  0
 33 36  1  0
 36 35  2  0
 35 27  1  0
 21 22  2  0
 22 23  1  0
 23 24  2  0
 24 25  1  0
 25 26  2  0
 26 21  1  0
M  END
$$$$
