No_4150-complexes_sdf/6BKW-FPZ/2024-09-17-14-21-01/
     RDKit          3D

 25 28  0  0  0  0  0  0  0  0999 V2000
   -7.7129    4.2099   27.0854 C   0  0  0  0  0  0  0  0  0  0  0  0
   -7.7814    5.1722   27.8972 C   0  0  0  0  0  0  0  0  0  0  0  0
   -8.8776    3.8408   26.3416 C   0  0  0  0  0  0  0  0  0  0  0  0
   -9.9844    4.6492   26.4743 C   0  0  0  0  0  0  0  0  0  0  0  0
   -8.8033    6.1375   27.8728 C   0  0  0  0  0  0  0  0  0  0  0  0
   -9.9554    5.8280   27.1737 C   0  0  0  0  0  0  0  0  0  0  0  0
   -8.8727    2.4212   25.4324 Cl  0  0  0  0  0  0  0  0  0  0  0  0
  -11.1508    4.3356   25.6510 C   0  0  0  0  0  0  0  0  0  0  0  0
  -11.0967    4.3881   24.2912 C   0  0  0  0  0  0  0  0  0  0  0  0
  -12.1555    4.1394   23.4648 C   0  0  0  0  0  0  0  0  0  0  0  0
  -13.4084    3.9693   24.0666 C   0  0  0  0  0  0  0  0  0  0  0  0
  -12.3972    4.1683   26.1603 C   0  0  0  0  0  0  0  0  0  0  0  0
  -12.5074    4.1558   27.6581 C   0  0  0  0  0  0  0  0  0  0  0  0
  -13.5194    3.9998   25.3927 C   0  0  0  0  0  0  0  0  0  0  0  0
  -11.9638    3.1188   28.3860 C   0  0  0  0  0  0  0  0  0  0  0  0
  -13.4375    5.0488   28.3053 C   0  0  0  0  0  0  0  0  0  0  0  0
  -12.5832    2.4852   29.4460 C   0  0  0  0  0  0  0  0  0  0  0  0
  -13.4002    3.4301   30.2314 C   0  0  0  0  0  0  0  0  0  0  0  0
  -14.0425    3.0279   31.4148 C   0  0  0  0  0  0  0  0  0  0  0  0
  -13.9448    4.6218   29.5368 C   0  0  0  0  0  0  0  0  0  0  0  0
  -15.1126    2.8657   31.5690 C   0  0  0  0  0  0  0  0  0  0  0  0
  -15.7306    2.5031   32.8637 C   0  0  0  0  0  0  0  0  0  0  0  0
  -14.8525    2.2564   33.9387 C   0  0  0  0  0  0  0  0  0  0  0  0
  -13.4676    2.4053   33.7448 C   0  0  0  0  0  0  0  0  0  0  0  0
  -12.9992    2.8184   32.5977 C   0  0  0  0  0  0  0  0  0  0  0  0
  3  7  1  0
  4  8  1  0
 12 13  1  0
 18 19  1  0
  8  9  2  0
  9 10  1  0
 10 11  2  0
 11 14  1  0
 14 12  2  0
 12  8  1  0
 19 21  2  0
 21 22  1  0
 22 23  2  0
 23 24  1  0
 24 25  2  0
 25 19  1  0
  1  2  2  0
  2  5  1  0
  5  6  2  0
  6  4  1  0
  4  3  2  0
  3  1  1  0
 13 15  2  0
 15 17  1  0
 17 18  2  0
 18 20  1  0
 20 16  2  0
 16 13  1  0
M  END
$$$$
