No_4531-complexes_sdf/6BKW-FPZ/2024-09-17-14-21-01/
     RDKit          3D

 13 14  0  0  0  0  0  0  0  0999 V2000
   -7.7129    4.2099   27.0854 C   0  0  0  0  0  0  0  0  0  0  0  0
   -8.2112    3.0637   26.9225 C   0  0  0  0  0  0  0  0  0  0  0  0
   -8.5108    5.3904   26.9436 C   0  0  0  0  0  0  0  0  0  0  0  0
   -7.9752    6.6981   27.2112 C   0  0  0  0  0  0  0  0  0  0  0  0
   -9.5213    2.8208   26.4688 C   0  0  0  0  0  0  0  0  0  0  0  0
  -10.1533    3.7902   26.2835 C   0  0  0  0  0  0  0  0  0  0  0  0
   -9.7656    5.1718   26.4451 C   0  0  0  0  0  0  0  0  0  0  0  0
   -7.2776    1.8304   27.1916 C   0  0  0  0  0  0  0  0  0  0  0  0
   -7.6353    0.5270   26.9602 C   0  0  0  0  0  0  0  0  0  0  0  0
   -8.9379    0.2989   26.5542 C   0  0  0  0  0  0  0  0  0  0  0  0
   -9.8405    1.3939   26.2869 C   0  0  0  0  0  0  0  0  0  0  0  0
   -8.6519    7.7866   26.8355 N   0  0  0  0  0  0  0  0  0  0  0  0
   -6.8531    6.7912   27.8104 O   0  0  0  0  0  0  0  0  0  0  0  0
  3  4  1  0
  4 12  1  0
  4 13  2  0
  5 11  1  0
 11 10  2  0
 10  9  1  0
  9  8  2  0
  8  2  1  0
  1  2  2  0
  2  5  1  0
  5  6  2  0
  6  7  1  0
  7  3  2  0
  3  1  1  0
M  END
$$$$
