No_4816-complexes_sdf/6BKW-FPZ/2024-09-17-14-21-01/
     RDKit          3D

 16 18  0  0  0  0  0  0  0  0999 V2000
   -7.7129    4.2099   27.0854 C   0  0  0  0  0  0  0  0  0  0  0  0
   -7.7814    5.1722   27.8972 C   0  0  0  0  0  0  0  0  0  0  0  0
   -8.8776    3.8408   26.3416 C   0  0  0  0  0  0  0  0  0  0  0  0
   -8.9136    2.6330   25.5655 C   0  0  0  0  0  0  0  0  0  0  0  0
   -8.8361    6.1389   27.9032 C   0  0  0  0  0  0  0  0  0  0  0  0
  -10.0140    4.6007   26.4589 C   0  0  0  0  0  0  0  0  0  0  0  0
  -11.0945    4.2687   25.7155 C   0  0  0  0  0  0  0  0  0  0  0  0
   -9.9716    5.7939   27.1971 C   0  0  0  0  0  0  0  0  0  0  0  0
   -8.2287    1.5154   26.0464 C   0  0  0  0  0  0  0  0  0  0  0  0
   -9.5165    2.6151   24.3117 C   0  0  0  0  0  0  0  0  0  0  0  0
  -10.6209    3.4292   24.2240 C   0  0  0  0  0  0  0  0  0  0  0  0
   -7.9200    1.3515   27.4464 C   0  0  0  0  0  0  0  0  0  0  0  0
   -7.8065    0.4723   25.1920 C   0  0  0  0  0  0  0  0  0  0  0  0
   -7.3020    0.1652   27.8677 C   0  0  0  0  0  0  0  0  0  0  0  0
   -7.1879   -0.6549   25.6438 C   0  0  0  0  0  0  0  0  0  0  0  0
   -6.8793   -0.7897   26.9907 C   0  0  0  0  0  0  0  0  0  0  0  0
  4  9  1  0
  3  4  2  0
  4 10  1  0
 10 11  2  0
 11  7  1  0
  7  6  2  0
  1  2  2  0
  2  5  1  0
  5  8  2  0
  8  6  1  0
  6  3  1  0
  3  1  1  0
  9 12  2  0
 12 14  1  0
 14 16  2  0
 16 15  1  0
 15 13  2  0
 13  9  1  0
M  END
$$$$
