No_4371-complexes_sdf/6BKW-FPZ/2024-09-17-14-21-01/
     RDKit          3D

 34 39  0  0  0  0  0  0  0  0999 V2000
   -7.9040    3.9820   27.1177 C   0  0  0  0  0  0  0  0  0  0  0  0
   -8.2057    2.8231   26.8733 C   0  0  0  0  0  0  0  0  0  0  0  0
   -7.4766    1.7477   27.4593 C   0  0  0  0  0  0  0  0  0  0  0  0
   -8.7468    5.1251   26.6967 C   0  0  0  0  0  0  0  0  0  0  0  0
   -9.7234    4.8589   25.8202 C   0  0  0  0  0  0  0  0  0  0  0  0
   -9.9711    3.5858   25.4266 C   0  0  0  0  0  0  0  0  0  0  0  0
   -9.2266    2.4957   25.9600 C   0  0  0  0  0  0  0  0  0  0  0  0
   -7.8394    0.3721   27.3404 C   0  0  0  0  0  0  0  0  0  0  0  0
   -8.9869    0.1878   26.4476 C   0  0  0  0  0  0  0  0  0  0  0  0
   -9.6379    1.1710   25.7653 C   0  0  0  0  0  0  0  0  0  0  0  0
   -8.6203    6.5526   27.0798 C   0  0  0  0  0  0  0  0  0  0  0  0
   -7.8997    7.6016   27.0271 N   0  0  0  0  0  0  0  0  0  0  0  0
   -7.1519   -0.6692   27.9933 C   0  0  0  0  0  0  0  0  0  0  0  0
   -5.8574   -0.4853   28.4297 C   0  0  0  0  0  0  0  0  0  0  0  0
   -5.1577   -1.4939   29.1996 C   0  0  0  0  0  0  0  0  0  0  0  0
   -5.8983   -2.6236   29.5113 C   0  0  0  0  0  0  0  0  0  0  0  0
   -7.5711   -1.8860   28.6244 C   0  0  0  0  0  0  0  0  0  0  0  0
   -7.1042   -2.7628   29.3176 C   0  0  0  0  0  0  0  0  0  0  0  0
   -3.7008   -1.2304   29.4924 C   0  0  0  0  0  0  0  0  0  0  0  0
   -3.0862   -0.2619   28.8223 C   0  0  0  0  0  0  0  0  0  0  0  0
   -3.8538    0.7468   28.1010 C   0  0  0  0  0  0  0  0  0  0  0  0
   -5.0667    0.6027   27.8681 C   0  0  0  0  0  0  0  0  0  0  0  0
   -2.8672   -2.3312   30.4741 Cl  0  0  0  0  0  0  0  0  0  0  0  0
  -11.0304    3.3560   24.4154 C   0  0  0  0  0  0  0  0  0  0  0  0
  -12.2787    3.2098   24.7799 C   0  0  0  0  0  0  0  0  0  0  0  0
  -13.3040    3.0883   23.9449 C   0  0  0  0  0  0  0  0  0  0  0  0
  -10.6372    3.2253   23.0799 C   0  0  0  0  0  0  0  0  0  0  0  0
  -11.5744    3.1457   22.1083 C   0  0  0  0  0  0  0  0  0  0  0  0
  -12.9555    3.0949   22.5240 C   0  0  0  0  0  0  0  0  0  0  0  0
  -10.9593    0.7587   24.8526 Cl  0  0  0  0  0  0  0  0  0  0  0  0
   -7.8698   -3.9302   29.7943 C   0  0  0  0  0  0  0  0  0  0  0  0
   -8.9975   -4.1364   29.5240 N   0  0  0  0  0  0  0  0  0  0  0  0
   -9.7303   -3.3998   28.9068 C   0  0  0  0  0  0  0  0  0  0  0  0
   -9.1734   -2.1738   28.2718 C   0  0  0  0  0  0  0  0  0  0  0  0
  4 11  1  0
 11 12  3  0
  8 13  1  0
 19 23  1  0
  6 24  1  0
 10 30  1  0
 18 31  2  0
 31 32  1  0
 32 33  2  0
 33 34  1  0
 34 17  2  0
  1  2  2  0
  7  6  2  0
  6  5  1  0
  5  4  2  0
  4  1  1  0
 24 25  2  0
 25 26  1  0
 26 29  2  0
 29 28  1  0
 28 27  2  0
 27 24  1  0
 13 14  2  0
 15 16  2  0
 16 18  1  0
 18 17  1  0
 17 13  1  0
  2  3  1  0
  3  8  2  0
  8  9  1  0
  9 10  2  0
 10  7  1  0
  7  2  1  0
 14 15  1  0
 15 19  1  0
 19 20  2  0
 20 21  1  0
 21 22  2  0
 22 14  1  0
M  END
$$$$
