No_4317-complexes_sdf/6BKW-FPZ/2024-09-17-14-21-01/
     RDKit          3D

 16 16  0  0  0  0  0  0  0  0999 V2000
   -7.9040    3.9820   27.1177 C   0  0  0  0  0  0  0  0  0  0  0  0
   -7.8663    4.8694   27.9238 C   0  0  0  0  0  0  0  0  0  0  0  0
   -9.0491    3.8523   26.2542 C   0  0  0  0  0  0  0  0  0  0  0  0
   -8.7661    5.9491   27.9690 C   0  0  0  0  0  0  0  0  0  0  0  0
   -9.9295    4.8502   26.2323 C   0  0  0  0  0  0  0  0  0  0  0  0
   -9.8077    5.9288   27.0933 C   0  0  0  0  0  0  0  0  0  0  0  0
   -6.8002    2.6256   27.2024 Cl  0  0  0  0  0  0  0  0  0  0  0  0
   -9.0815    2.8240   25.3662 F   0  0  0  0  0  0  0  0  0  0  0  0
  -10.8783    4.8298   25.3122 F   0  0  0  0  0  0  0  0  0  0  0  0
   -6.7982    5.0398   28.8093 O   0  0  0  0  0  0  0  0  0  0  0  0
   -5.6399    5.7146   28.3698 C   0  0  0  0  0  0  0  0  0  0  0  0
   -5.7748    6.8264   27.7034 O   0  0  0  0  0  0  0  0  0  0  0  0
   -4.5629    5.0293   28.5660 O   0  0  0  0  0  0  0  0  0  0  0  0
   -6.8230    7.5138   27.6437 C   0  0  0  0  0  0  0  0  0  0  0  0
   -7.6006    7.9569   26.4457 C   0  0  0  0  0  0  0  0  0  0  0  0
   -7.1714    7.6058   25.3403 N   0  0  0  0  0  0  0  0  0  0  0  0
  1  7  1  0
  3  8  1  0
  5  9  1  0
  2 10  1  0
 10 11  1  0
 11 12  1  0
 11 13  2  0
 12 14  1  0
 14 15  1  0
 15 16  2  0
  1  2  2  0
  2  4  1  0
  4  6  2  0
  6  5  1  0
  5  3  2  0
  3  1  1  0
M  END
$$$$
