No_417-complexes_sdf/6BKW-FPZ/2024-09-17-14-21-01/
     RDKit          3D

 12 12  0  0  0  0  0  0  0  0999 V2000
   -7.9040    3.9820   27.1177 C   0  0  0  0  0  0  0  0  0  0  0  0
   -8.2057    2.8231   26.8733 C   0  0  0  0  0  0  0  0  0  0  0  0
   -8.7463    4.9537   27.6708 C   0  0  0  0  0  0  0  0  0  0  0  0
  -10.0901    4.5164   28.0293 C   0  0  0  0  0  0  0  0  0  0  0  0
   -7.3231    1.8031   26.4889 C   0  0  0  0  0  0  0  0  0  0  0  0
   -9.5595    2.3317   27.2576 C   0  0  0  0  0  0  0  0  0  0  0  0
  -10.4347    3.2449   27.8461 C   0  0  0  0  0  0  0  0  0  0  0  0
   -6.3167    1.4251   27.5695 C   0  0  0  0  0  0  0  0  0  0  0  0
   -5.5571    0.2657   27.4846 C   0  0  0  0  0  0  0  0  0  0  0  0
   -4.4250    0.1552   28.4106 C   0  0  0  0  0  0  0  0  0  0  0  0
   -3.8073   -1.0645   28.6087 C   0  0  0  0  0  0  0  0  0  0  0  0
   -4.1941   -2.1090   27.8017 C   0  0  0  0  0  0  0  0  0  0  0  0
  2  5  1  0
  5  8  1  0
  8  9  2  3
  9 10  1  0
 10 11  2  3
 11 12  1  0
  1  2  2  0
  2  6  1  0
  6  7  2  0
  7  4  1  0
  4  3  2  0
  3  1  1  0
M  END
$$$$
