No_4608-complexes_sdf/6BKW-FPZ/2024-09-17-14-21-01/
     RDKit          3D

 35 40  0  0  0  0  0  0  0  0999 V2000
   -7.2496    3.8871   27.4508 C   0  0  0  0  0  0  0  0  0  0  0  0
   -8.5096    4.0291   27.2770 C   0  0  0  0  0  0  0  0  0  0  0  0
   -9.2677    5.1714   27.5773 C   0  0  0  0  0  0  0  0  0  0  0  0
   -6.5711    2.6400   27.2842 C   0  0  2  0  0  0  0  0  0  0  0  0
   -7.2939    1.5094   27.0532 C   0  0  1  0  0  0  0  0  0  0  0  0
   -8.6122    1.6580   26.7575 C   0  0  0  0  0  0  0  0  0  0  0  0
   -9.2984    2.8495   26.9904 C   0  0  0  0  0  0  0  0  0  0  0  0
   -8.5439    6.4004   27.5644 C   0  0  0  0  0  0  0  0  0  0  0  0
  -10.6456    5.1416   27.8945 C   0  0  0  0  0  0  0  0  0  0  0  0
   -6.5903    0.2717   26.8533 C   0  0  0  0  0  0  0  0  0  0  0  0
   -5.5944   -0.0203   27.7908 C   0  0  0  0  0  0  0  0  0  0  0  0
   -4.9918   -1.1556   27.9252 C   0  0  0  0  0  0  0  0  0  0  0  0
   -3.9892   -1.3065   28.9488 C   0  0  0  0  0  0  0  0  0  0  0  0
   -3.5673   -0.2473   29.7848 C   0  0  0  0  0  0  0  0  0  0  0  0
   -4.1903    1.0150   29.5201 C   0  0  0  0  0  0  0  0  0  0  0  0
   -5.1067    1.0987   28.6132 C   0  0  0  0  0  0  0  0  0  0  0  0
   -5.6874    2.4042   28.3272 N   0  0  0  0  0  0  0  0  0  0  0  0
   -8.1868    7.1340   26.6747 N   0  0  0  0  0  0  0  0  0  0  0  0
   -8.7307    7.1634   25.4735 C   0  0  0  0  0  0  0  0  0  0  0  0
   -7.1181    8.1838   26.8354 C   0  0  0  0  0  0  0  0  0  0  0  0
   -9.4341    0.5329   26.2711 C   0  0  0  0  0  0  0  0  0  0  0  0
  -10.6452    0.3983   26.7561 C   0  0  0  0  0  0  0  0  0  0  0  0
  -11.2788    1.2194   27.4612 C   0  0  1  0  0  0  0  0  0  0  0  0
  -10.6640    2.6354   27.6172 C   0  0  2  0  0  0  0  0  0  0  0  0
  -11.4893    3.9701   27.5304 C   0  0  0  0  0  0  0  0  0  0  0  0
  -12.5200    1.2636   27.9287 F   0  0  0  0  0  0  0  0  0  0  0  0
   -2.5318   -0.4270   30.8079 C   0  0  0  0  0  0  0  0  0  0  0  0
   -2.8722    0.0566   32.0440 N   0  0  0  0  0  0  0  0  0  0  0  0
   -1.5698   -1.1882   30.7092 O   0  0  0  0  0  0  0  0  0  0  0  0
   -5.3911   -2.3558   27.2490 C   0  0  2  0  0  0  0  0  0  0  0  0
   -5.0430   -2.4677   25.9979 C   0  0  0  0  0  0  0  0  0  0  0  0
   -5.4761   -2.4316   25.0852 C   0  0  0  0  0  0  0  0  0  0  0  0
   -6.9312   -2.2088   24.9890 C   0  0  0  0  0  0  0  0  0  0  0  0
   -7.6151   -2.8629   25.9592 C   0  0  0  0  0  0  0  0  0  0  0  0
   -6.7589   -2.8140   27.3750 C   0  0  0  0  0  0  0  0  0  0  0  0
  1  2  1  0
  2  3  2  0
  4  1  1  1
  4  5  1  0
  5  6  1  0
  2  7  1  0
  6  7  2  0
  3  8  1  0
  3  9  1  0
  5 10  1  6
 10 11  1  0
 11 12  2  0
 12 13  1  0
 13 14  2  0
 14 15  1  0
 11 16  1  0
 15 16  1  0
  4 17  1  0
 16 17  2  0
  8 18  1  0
 18 19  1  0
 18 20  1  0
  6 21  1  0
 21 22  2  0
 22 23  1  0
  7 24  1  0
 23 24  1  0
  9 25  2  0
 24 25  1  6
 23 26  1  6
 14 27  1  0
 27 28  1  0
 27 29  2  0
 30 12  1  6
 30 31  1  0
 31 32  2  0
 32 33  1  0
 33 34  2  0
 30 35  1  0
 34 35  1  0
M  END
$$$$
