No_4445-complexes_sdf/6BKW-FPZ/2024-09-17-14-21-01/
     RDKit          3D

 28 30  0  0  0  0  0  0  0  0999 V2000
   -7.9040    3.9820   27.1177 C   0  0  0  0  0  0  0  0  0  0  0  0
   -9.0711    4.3164   27.0630 C   0  0  0  0  0  0  0  0  0  0  0  0
   -9.8698    3.9665   25.9494 C   0  0  0  0  0  0  0  0  0  0  0  0
   -7.0332    4.5030   28.2025 C   0  0  0  0  0  0  0  0  0  0  0  0
   -9.4357    2.9501   25.1393 C   0  0  0  0  0  0  0  0  0  0  0  0
   -8.2567    2.3218   25.4797 C   0  0  0  0  0  0  0  0  0  0  0  0
   -7.5105    2.7966   26.5752 C   0  0  0  0  0  0  0  0  0  0  0  0
  -10.2472    2.5204   24.0264 C   0  0  0  0  0  0  0  0  0  0  0  0
  -10.5935    3.4337   22.9918 C   0  0  0  0  0  0  0  0  0  0  0  0
  -10.3231    4.8602   23.2466 C   0  0  0  0  0  0  0  0  0  0  0  0
  -11.1682    3.0352   21.7658 C   0  0  0  0  0  0  0  0  0  0  0  0
   -6.6618    5.5207   28.7612 N   0  0  0  0  0  0  0  0  0  0  0  0
  -10.9674    1.8740   21.2852 C   0  0  0  0  0  0  0  0  0  0  0  0
  -11.5353    1.3856   20.1162 C   0  0  0  0  0  0  0  0  0  0  0  0
  -12.2204    2.3380   19.3293 C   0  0  0  0  0  0  0  0  0  0  0  0
  -12.3546    3.6474   19.7240 C   0  0  0  0  0  0  0  0  0  0  0  0
  -11.8864    4.0839   20.8304 C   0  0  0  0  0  0  0  0  0  0  0  0
  -10.4311    1.1264   23.8621 C   0  0  0  0  0  0  0  0  0  0  0  0
  -10.7932    0.4345   25.0514 C   0  0  1  0  0  0  0  0  0  0  0  0
  -11.5746    0.8472   25.9462 C   0  0  0  0  0  0  0  0  0  0  0  0
  -12.0709    0.4575   26.7826 C   0  0  0  0  0  0  0  0  0  0  0  0
  -12.9305    1.0927   27.8156 C   0  0  0  0  0  0  0  0  0  0  0  0
  -13.2530    2.4209   27.6142 C   0  0  0  0  0  0  0  0  0  0  0  0
  -12.8081    3.0067   26.5018 C   0  0  0  0  0  0  0  0  0  0  0  0
  -11.9450    2.3525   25.6286 C   0  0  0  0  0  0  0  0  0  0  0  0
  -10.3362   -0.9862   25.1592 C   0  0  0  0  0  0  0  0  0  0  0  0
  -10.6963   -1.5837   26.1518 N   0  0  0  0  0  0  0  0  0  0  0  0
  -10.3135   -2.9161   26.4448 C   0  0  0  0  0  0  0  0  0  0  0  0
  1  4  1  0
  5  8  1  0
  8  9  2  3
  9 10  1  0
  9 11  1  0
  4 12  3  0
  8 18  1  0
 19 18  1  6
 19 26  1  0
 26 27  2  3
 27 28  1  0
 19 20  1  0
 11 13  2  0
 13 14  1  0
 14 15  2  0
 15 16  1  0
 16 17  2  0
 17 11  1  0
 20 21  2  0
 21 22  1  0
 22 23  2  0
 23 24  1  0
 24 25  2  0
 25 20  1  0
  1  2  2  0
  2  3  1  0
  3  5  2  0
  5  6  1  0
  6  7  2  0
  7  1  1  0
M  END
$$$$
