No_458-complexes_sdf/6BKW-FPZ/2024-09-17-14-21-01/
     RDKit          3D

 27 30  0  0  0  0  0  0  0  0999 V2000
   -7.9040    3.9820   27.1177 C   0  0  0  0  0  0  0  0  0  0  0  0
   -8.2057    2.8231   26.8733 C   0  0  0  0  0  0  0  0  0  0  0  0
   -7.4766    1.7477   27.4593 C   0  0  0  0  0  0  0  0  0  0  0  0
   -8.7468    5.1251   26.6967 C   0  0  0  0  0  0  0  0  0  0  0  0
   -9.7234    4.8589   25.8202 C   0  0  0  0  0  0  0  0  0  0  0  0
   -9.9530    3.6960   25.4481 C   0  0  0  0  0  0  0  0  0  0  0  0
   -9.2267    2.5226   25.9518 C   0  0  0  0  0  0  0  0  0  0  0  0
   -7.8714    0.3774   27.3521 C   0  0  0  0  0  0  0  0  0  0  0  0
   -9.0599    0.2091   26.5046 C   0  0  0  0  0  0  0  0  0  0  0  0
   -9.6812    1.2084   25.7853 C   0  0  0  0  0  0  0  0  0  0  0  0
   -8.3598    6.5450   27.0886 C   0  0  0  0  0  0  0  0  0  0  0  0
   -7.7975    6.8271   28.2103 N   0  0  0  0  0  0  0  0  0  0  0  0
   -8.8614    7.5399   26.4081 O   0  0  0  0  0  0  0  0  0  0  0  0
   -7.2013   -0.6654   28.0125 C   0  0  0  0  0  0  0  0  0  0  0  0
   -5.8782   -0.5212   28.4038 C   0  0  0  0  0  0  0  0  0  0  0  0
   -5.1951   -1.5135   29.1828 C   0  0  0  0  0  0  0  0  0  0  0  0
   -3.8567   -1.2390   29.6319 C   0  0  0  0  0  0  0  0  0  0  0  0
   -3.2301   -0.0345   29.2510 C   0  0  0  0  0  0  0  0  0  0  0  0
   -3.9314    0.9131   28.5072 C   0  0  0  0  0  0  0  0  0  0  0  0
   -5.1594    0.7004   28.1165 C   0  0  0  0  0  0  0  0  0  0  0  0
   -5.8942    1.8788   27.6177 C   0  0  0  0  0  0  0  0  0  0  0  0
   -3.1101   -2.2253   30.4206 C   0  0  0  0  0  0  0  0  0  0  0  0
   -3.0886   -2.2007   31.6174 N   0  0  0  0  0  0  0  0  0  0  0  0
   -2.3910   -2.8713   32.3707 C   0  0  0  0  0  0  0  0  0  0  0  0
   -2.3929   -2.6513   33.8729 C   0  0  0  0  0  0  0  0  0  0  0  0
   -3.2126   -1.6639   34.3974 C   0  0  0  0  0  0  0  0  0  0  0  0
   -3.9404   -0.8514   33.4978 C   0  0  0  0  0  0  0  0  0  0  0  0
  2  3  1  0
  8  9  1  0
  7 10  1  0
  9 10  1  0
  4 11  1  0
 11 12  1  0
 11 13  2  0
 17 22  1  0
 22 23  1  0
 23 24  2  3
 24 25  1  0
 25 26  2  3
 26 27  1  0
 15 16  1  0
 16 17  2  0
 17 18  1  0
 18 19  2  0
 19 20  1  0
  3  8  2  0
  8 14  1  0
 14 15  2  0
 15 20  1  0
 20 21  2  0
 21  3  1  0
  1  2  2  0
  2  7  1  0
  7  6  2  0
  6  5  1  0
  5  4  2  0
  4  1  1  0
M  END
$$$$
