No_4152-complexes_sdf/6BKW-FPZ/2024-09-17-14-21-01/
     RDKit          3D

 30 32  0  0  0  0  0  0  0  0999 V2000
   -7.7129    4.2099   27.0854 C   0  0  0  0  0  0  0  0  0  0  0  0
   -8.9133    4.4736   27.0998 C   0  0  0  0  0  0  0  0  0  0  0  0
   -9.4643    5.5426   27.7628 C   0  0  0  0  0  0  0  0  0  0  0  0
   -7.2009    2.9448   26.6134 C   0  0  0  0  0  0  0  0  0  0  0  0
   -8.1365    1.9533   26.2981 C   0  0  1  0  0  0  0  0  0  0  0  0
   -9.4501    2.2651   26.2497 C   0  0  0  0  0  0  0  0  0  0  0  0
   -9.8615    3.4703   26.6763 C   0  0  0  0  0  0  0  0  0  0  0  0
   -7.5839    0.6450   25.9087 C   0  0  0  0  0  0  0  0  0  0  0  0
   -8.1430   -0.2743   26.3802 O   0  0  0  0  0  0  0  0  0  0  0  0
   -6.6225    0.5300   25.2350 O   0  0  0  0  0  0  0  0  0  0  0  0
  -11.2942    3.7476   26.6657 C   0  0  0  0  0  0  0  0  0  0  0  0
  -12.1558    2.8246   27.2750 C   0  0  0  0  0  0  0  0  0  0  0  0
  -11.5554    1.6243   27.7344 C   0  0  0  0  0  0  0  0  0  0  0  0
  -12.0737    0.7545   28.0762 C   0  0  0  0  0  0  0  0  0  0  0  0
  -11.4378   -0.5382   28.6177 C   0  0  1  0  0  0  0  0  0  0  0  0
  -10.0322   -0.5468   28.3466 C   0  0  0  0  0  0  0  0  0  0  0  0
   -9.3952   -1.7263   28.8506 C   0  0  1  0  0  0  0  0  0  0  0  0
  -10.0072   -2.6069   29.6926 C   0  0  0  0  0  0  0  0  0  0  0  0
   -9.2819   -3.6836   30.2208 C   0  0  0  0  0  0  0  0  0  0  0  0
  -11.3867   -2.4138   29.9959 C   0  0  0  0  0  0  0  0  0  0  0  0
  -12.0674   -1.3917   29.4589 C   0  0  0  0  0  0  0  0  0  0  0  0
   -8.3157   -4.0475   29.8751 N   0  0  0  0  0  0  0  0  0  0  0  0
   -9.8449   -4.2667   31.2794 O   0  0  0  0  0  0  0  0  0  0  0  0
   -7.4634   -3.5220   28.8608 C   0  0  0  0  0  0  0  0  0  0  0  0
   -8.0423   -2.2946   28.3291 C   0  0  0  0  0  0  0  0  0  0  0  0
  -13.5483    0.5875   28.0844 C   0  0  0  0  0  0  0  0  0  0  0  0
  -14.4165    0.8153   27.3439 C   0  0  0  0  0  0  0  0  0  0  0  0
  -13.9994    1.3154   26.0254 C   0  0  0  0  0  0  0  0  0  0  0  0
  -12.9612    1.6851   25.6826 C   0  0  0  0  0  0  0  0  0  0  0  0
  -12.6575    3.5417   28.2909 F   0  0  0  0  0  0  0  0  0  0  0  0
  1  2  1  0
  2  3  2  0
  1  4  1  0
  4  5  1  0
  5  6  1  0
  2  7  1  0
  6  7  1  0
  5  8  1  6
  8  9  2  0
  8 10  1  0
  7 11  1  0
 11 12  2  3
 12 13  1  0
 13 14  2  3
 14 15  1  0
 15 16  1  1
 17 16  1  6
 18 19  1  0
 18 20  1  0
 15 21  1  0
 20 21  1  0
 19 22  1  0
 19 23  2  0
 22 24  1  0
 17 25  1  0
 14 26  1  0
 26 27  2  3
 27 28  1  0
 28 29  2  0
 12 30  1  0
 18 17  1  0
 25 24  1  0
M  END
$$$$
