No_407-complexes_sdf/6BKW-FPZ/2024-09-17-14-21-01/
     RDKit          3D

 40 44  0  0  0  0  0  0  0  0999 V2000
   -7.7129    4.2099   27.0854 C   0  0  0  0  0  0  0  0  0  0  0  0
   -7.7814    5.1722   27.8972 C   0  0  0  0  0  0  0  0  0  0  0  0
   -8.8998    3.8713   26.3707 C   0  0  0  0  0  0  0  0  0  0  0  0
   -9.9938    4.6774   26.5446 C   0  0  0  0  0  0  0  0  0  0  0  0
   -8.7789    6.1536   27.9256 C   0  0  0  0  0  0  0  0  0  0  0  0
   -9.9428    5.8398   27.2296 C   0  0  0  0  0  0  0  0  0  0  0  0
   -8.9208    2.6404   25.5721 C   0  0  0  0  0  0  0  0  0  0  0  0
   -9.7242    1.8283   25.8372 N   0  0  0  0  0  0  0  0  0  0  0  0
   -9.7698    0.6384   25.3968 C   0  0  0  0  0  0  0  0  0  0  0  0
   -8.9778    0.2768   24.4866 C   0  0  0  0  0  0  0  0  0  0  0  0
  -10.6013   -0.3506   25.7865 O   0  0  0  0  0  0  0  0  0  0  0  0
   -9.3595   -0.2584   23.3328 C   0  0  0  0  0  0  0  0  0  0  0  0
   -8.4037   -0.7549   22.3585 C   0  0  0  0  0  0  0  0  0  0  0  0
   -7.0200   -0.5467   22.6423 C   0  0  0  0  0  0  0  0  0  0  0  0
   -6.6535   -0.0747   23.8693 C   0  0  0  0  0  0  0  0  0  0  0  0
   -7.4793    0.2784   24.7440 C   0  0  0  0  0  0  0  0  0  0  0  0
  -11.2106    4.3747   25.7691 C   0  0  0  0  0  0  0  0  0  0  0  0
  -11.1939    4.3884   24.4069 C   0  0  0  0  0  0  0  0  0  0  0  0
  -12.2716    4.1561   23.6358 C   0  0  0  0  0  0  0  0  0  0  0  0
  -12.1437    4.1169   22.2137 C   0  0  0  0  0  0  0  0  0  0  0  0
  -10.8475    4.2842   21.6711 C   0  0  0  0  0  0  0  0  0  0  0  0
   -9.7751    4.5914   22.4792 C   0  0  0  0  0  0  0  0  0  0  0  0
   -9.9095    4.6457   23.8132 C   0  0  0  0  0  0  0  0  0  0  0  0
  -12.3792    4.0396   26.5651 C   0  0  0  0  0  0  0  0  0  0  0  0
  -12.5887    3.3134   27.4150 C   0  0  0  0  0  0  0  0  0  0  0  0
  -13.1986    3.0655   28.2167 C   0  0  0  0  0  0  0  0  0  0  0  0
  -14.5003    3.7534   28.3734 C   0  0  0  0  0  0  0  0  0  0  0  0
  -14.6542    4.7488   27.3571 C   0  0  0  0  0  0  0  0  0  0  0  0
  -15.7878    5.5704   27.2725 C   0  0  2  0  0  0  0  0  0  0  0  0
  -13.5551    4.9521   26.4619 C   0  0  0  0  0  0  0  0  0  0  0  0
  -16.0648    6.4098   28.2658 C   0  0  0  0  0  0  0  0  0  0  0  0
  -17.0128    7.4300   28.2126 C   0  0  0  0  0  0  0  0  0  0  0  0
  -17.2478    8.3137   29.3304 C   0  0  0  0  0  0  0  0  0  0  0  0
  -16.5596    8.0503   30.5117 C   0  0  0  0  0  0  0  0  0  0  0  0
  -15.6374    7.0346   30.5992 C   0  0  0  0  0  0  0  0  0  0  0  0
  -15.3742    6.2279   29.5278 C   0  0  0  0  0  0  0  0  0  0  0  0
  -16.9332    4.8273   26.7865 C   0  0  0  0  0  0  0  0  0  0  0  0
  -17.2887    4.8845   25.4993 C   0  0  0  0  0  0  0  0  0  0  0  0
  -18.3571    4.0980   25.0125 C   0  0  0  0  0  0  0  0  0  0  0  0
  -19.1007    3.3508   25.9051 C   0  0  0  0  0  0  0  0  0  0  0  0
  3  7  1  0
  7  8  1  0
  8  9  1  0
  9 10  1  0
  9 11  2  0
  4 17  1  0
 17 18  1  0
 17 24  1  0
 29 28  1  1
 29 31  1  0
 29 37  1  0
 37 38  2  3
 38 39  1  0
 39 40  2  0
 18 19  2  0
 19 20  1  0
 20 21  2  0
 21 22  1  0
 22 23  2  0
 23 18  1  0
 31 32  2  0
 32 33  1  0
 33 34  2  0
 34 35  1  0
 35 36  2  0
 36 31  1  0
 10 12  2  0
 12 13  1  0
 13 14  2  0
 14 15  1  0
 15 16  2  0
 16 10  1  0
 24 25  2  0
 25 26  1  0
 26 27  2  0
 27 28  1  0
 28 30  2  0
 30 24  1  0
  1  2  2  0
  2  5  1  0
  5  6  2  0
  6  4  1  0
  4  3  2  0
  3  1  1  0
M  END
$$$$
