No_4199-complexes_sdf/6BKW-FPZ/2024-09-17-14-21-01/
     RDKit          3D

 13 14  0  0  0  0  0  0  0  0999 V2000
   -7.7129    4.2099   27.0854 C   0  0  0  0  0  0  0  0  0  0  0  0
   -7.7814    5.1722   27.8972 C   0  0  0  0  0  0  0  0  0  0  0  0
   -8.8776    3.8408   26.3416 C   0  0  0  0  0  0  0  0  0  0  0  0
   -8.9136    2.6330   25.5655 C   0  0  0  0  0  0  0  0  0  0  0  0
   -8.8361    6.1389   27.9032 C   0  0  0  0  0  0  0  0  0  0  0  0
   -9.9718    4.7048   26.3433 C   0  0  0  0  0  0  0  0  0  0  0  0
   -9.9205    5.8499   27.1013 C   0  0  0  0  0  0  0  0  0  0  0  0
   -8.3041    1.4977   26.1841 C   0  0  0  0  0  0  0  0  0  0  0  0
   -8.1707    0.3098   25.5307 C   0  0  0  0  0  0  0  0  0  0  0  0
   -8.7629    0.2694   24.2434 C   0  0  0  0  0  0  0  0  0  0  0  0
   -9.3731    1.3549   23.6304 C   0  0  0  0  0  0  0  0  0  0  0  0
   -9.3944    2.5610   24.3104 C   0  0  0  0  0  0  0  0  0  0  0  0
   -9.9446    1.0930   22.0927 Cl  0  0  0  0  0  0  0  0  0  0  0  0
  3  4  1  0
 11 13  1  0
  4  8  2  0
  8  9  1  0
  9 10  2  0
 10 11  1  0
 11 12  2  0
 12  4  1  0
  1  2  2  0
  2  5  1  0
  5  7  2  0
  7  6  1  0
  6  3  2  0
  3  1  1  0
M  END
$$$$
