No_4153-complexes_sdf/6BKW-FPZ/2024-09-17-14-21-01/
     RDKit          3D

 22 24  0  0  0  0  0  0  0  0999 V2000
   -7.7129    4.2099   27.0854 C   0  0  0  0  0  0  0  0  0  0  0  0
   -8.9133    4.4736   27.0998 C   0  0  0  0  0  0  0  0  0  0  0  0
   -9.4643    5.5426   27.7628 C   0  0  0  0  0  0  0  0  0  0  0  0
   -6.8373    4.9942   27.9785 C   0  0  0  0  0  0  0  0  0  0  0  0
   -7.3717    6.0428   28.6744 C   0  0  0  0  0  0  0  0  0  0  0  0
   -8.6869    6.3937   28.5345 C   0  0  0  0  0  0  0  0  0  0  0  0
   -9.8029    3.6153   26.2122 C   0  0  0  0  0  0  0  0  0  0  0  0
  -10.1002    2.3701   26.5024 C   0  0  0  0  0  0  0  0  0  0  0  0
  -10.8218    1.5251   25.6423 C   0  0  0  0  0  0  0  0  0  0  0  0
  -11.3643    2.0969   24.4882 C   0  0  0  0  0  0  0  0  0  0  0  0
  -11.0766    3.4459   24.1676 C   0  0  0  0  0  0  0  0  0  0  0  0
  -10.3063    4.2543   25.0134 C   0  0  0  0  0  0  0  0  0  0  0  0
  -11.6441    4.0557   22.9420 C   0  0  0  0  0  0  0  0  0  0  0  0
  -11.1103    5.0148   22.4248 C   0  0  0  0  0  0  0  0  0  0  0  0
  -12.7677    3.4111   22.3660 C   0  0  0  0  0  0  0  0  0  0  0  0
  -13.4152    2.3734   22.9054 C   0  0  0  0  0  0  0  0  0  0  0  0
  -12.5904    1.5785   23.9153 C   0  0  0  0  0  0  0  0  0  0  0  0
  -13.1246    0.3238   24.3834 C   0  0  0  0  0  0  0  0  0  0  0  0
  -14.1560   -0.3286   23.9890 C   0  0  0  0  0  0  0  0  0  0  0  0
  -14.5213   -1.5523   24.4310 C   0  0  0  0  0  0  0  0  0  0  0  0
  -13.7365   -2.1480   25.4333 C   0  0  0  0  0  0  0  0  0  0  0  0
  -12.6318   -1.5344   25.9255 C   0  0  0  0  0  0  0  0  0  0  0  0
  2  7  1  0
 17 18  1  0
 18 19  3  0
 19 20  1  0
 20 21  2  3
 21 22  1  0
 14 13  1  0
  1  2  2  0
  2  3  1  0
  3  6  2  0
  6  5  1  0
  5  4  2  0
  4  1  1  0
 11 13  1  0
 13 15  2  0
 15 16  1  0
 16 17  2  0
 17 10  1  0
  7  8  2  0
  8  9  1  0
  9 10  2  0
 10 11  1  0
 11 12  2  0
 12  7  1  0
M  END
$$$$
