No_4421-complexes_sdf/6BKW-FPZ/2024-09-17-14-21-01/
     RDKit          3D

 34 38  0  0  0  0  0  0  0  0999 V2000
   -7.7129    4.2099   27.0854 C   0  0  0  0  0  0  0  0  0  0  0  0
   -7.7814    5.1722   27.8972 C   0  0  0  0  0  0  0  0  0  0  0  0
   -7.3155    2.9699   27.6145 C   0  0  0  0  0  0  0  0  0  0  0  0
   -7.6814    1.8188   26.9581 C   0  0  0  0  0  0  0  0  0  0  0  0
   -8.6377    1.9131   25.9324 C   0  0  0  0  0  0  0  0  0  0  0  0
   -9.1866    3.0673   25.6037 C   0  0  0  0  0  0  0  0  0  0  0  0
   -8.8394    4.1752   26.2513 C   0  0  0  0  0  0  0  0  0  0  0  0
   -8.2486    6.4747   27.5719 N   0  0  0  0  0  0  0  0  0  0  0  0
   -9.1525    6.6854   26.5919 C   0  0  0  0  0  0  0  0  0  0  0  0
   -9.4607    5.4864   25.8772 C   0  0  0  0  0  0  0  0  0  0  0  0
   -7.0245    0.5340   27.2725 C   0  0  0  0  0  0  0  0  0  0  0  0
   -5.7982    0.4635   27.9413 C   0  0  0  0  0  0  0  0  0  0  0  0
   -5.2680   -0.7384   28.3720 C   0  0  0  0  0  0  0  0  0  0  0  0
   -5.9985   -1.8694   28.0912 C   0  0  0  0  0  0  0  0  0  0  0  0
   -7.6078   -0.7411   27.2042 C   0  0  0  0  0  0  0  0  0  0  0  0
   -7.1872   -1.8558   27.5989 C   0  0  0  0  0  0  0  0  0  0  0  0
   -3.9119   -0.7180   29.0290 C   0  0  0  0  0  0  0  0  0  0  0  0
   -3.9689   -0.3142   30.4001 C   0  0  0  0  0  0  0  0  0  0  0  0
   -2.7706   -1.0771   28.3781 C   0  0  0  0  0  0  0  0  0  0  0  0
   -2.8000   -0.6220   31.2380 C   0  0  0  0  0  0  0  0  0  0  0  0
   -2.9522   -0.3222   32.6379 C   0  0  0  0  0  0  0  0  0  0  0  0
   -1.6854   -1.2146   30.6336 C   0  0  0  0  0  0  0  0  0  0  0  0
   -1.6453   -1.4528   29.2179 C   0  0  0  0  0  0  0  0  0  0  0  0
   -1.9443    0.0746   33.1959 O   0  0  0  0  0  0  0  0  0  0  0  0
   -4.1397   -0.3028   33.2052 O   0  0  0  0  0  0  0  0  0  0  0  0
   -4.5300   -1.4534   33.9235 C   0  0  0  0  0  0  0  0  0  0  0  0
   -4.3074   -2.5560   33.5896 C   0  0  0  0  0  0  0  0  0  0  0  0
   -5.0292   -3.5851   34.2172 C   0  0  0  0  0  0  0  0  0  0  0  0
   -5.5609   -1.1748   34.9476 C   0  0  0  0  0  0  0  0  0  0  0  0
   -6.1562   -2.0699   35.7192 C   0  0  0  0  0  0  0  0  0  0  0  0
   -5.8545   -3.3638   35.3531 C   0  0  0  0  0  0  0  0  0  0  0  0
   -6.4913   -4.4922   36.0949 C   0  0  0  0  0  0  0  0  0  0  0  0
   -7.0588   -5.3259   35.6922 O   0  0  0  0  0  0  0  0  0  0  0  0
   -6.4008   -4.3220   37.4781 O   0  0  0  0  0  0  0  0  0  0  0  0
  4 11  1  0
 13 17  1  0
 20 21  1  0
 21 24  2  0
 21 25  1  0
 25 26  1  0
 31 32  1  0
 32 33  1  0
 32 34  2  0
  1  2  2  0
  2  8  1  0
  8  9  2  0
  9 10  1  0
 10  7  2  0
 17 18  2  0
 18 20  1  0
 20 22  2  0
 22 23  1  0
 23 19  2  0
 19 17  1  0
 26 27  2  0
 27 28  1  0
 28 31  2  0
 31 30  1  0
 30 29  2  0
 29 26  1  0
  1  3  1  0
  3  4  2  0
  4  5  1  0
  5  6  2  0
  6  7  1  0
  7  1  1  0
 11 12  2  0
 12 13  1  0
 13 14  2  0
 14 16  1  0
 16 15  2  0
 15 11  1  0
M  END
$$$$
