No_4521-complexes_sdf/6BKW-FPZ/2024-09-17-14-21-01/
     RDKit          3D

 21 22  0  0  0  0  0  0  0  0999 V2000
   -7.7129    4.2099   27.0854 C   0  0  0  0  0  0  0  0  0  0  0  0
   -7.7814    5.1722   27.8972 C   0  0  0  0  0  0  0  0  0  0  0  0
   -8.8776    3.8408   26.3416 C   0  0  0  0  0  0  0  0  0  0  0  0
   -9.9844    4.6492   26.4743 C   0  0  0  0  0  0  0  0  0  0  0  0
   -8.8033    6.1375   27.8728 C   0  0  0  0  0  0  0  0  0  0  0  0
   -9.9554    5.8280   27.1737 C   0  0  0  0  0  0  0  0  0  0  0  0
   -8.8750    2.4229   25.4217 Cl  0  0  0  0  0  0  0  0  0  0  0  0
  -11.1502    4.3338   25.6474 C   0  0  0  0  0  0  0  0  0  0  0  0
  -11.0261    4.1439   24.1936 C   0  0  0  0  0  0  0  0  0  0  0  0
  -12.0897    4.0216   23.4112 C   0  0  0  0  0  0  0  0  0  0  0  0
  -13.0749    3.8172   23.9011 C   0  0  0  0  0  0  0  0  0  0  0  0
  -12.5167    4.2464   25.8571 C   0  0  0  0  0  0  0  0  0  0  0  0
  -13.5085    4.0927   25.1883 C   0  0  0  0  0  0  0  0  0  0  0  0
  -14.4825    3.7588   23.0489 C   0  0  0  0  0  0  0  0  0  0  0  0
  -14.5844    2.8969   22.1514 N   0  0  0  0  0  0  0  0  0  0  0  0
  -15.1385    2.8817   21.1603 C   0  0  0  0  0  0  0  0  0  0  0  0
  -14.9287    3.0091   20.0840 C   0  0  0  0  0  0  0  0  0  0  0  0
  -13.5804    3.2099   19.7171 C   0  0  0  0  0  0  0  0  0  0  0  0
  -12.9827    4.4218   19.5850 C   0  0  0  0  0  0  0  0  0  0  0  0
  -11.5330    4.5519   19.3358 C   0  0  0  0  0  0  0  0  0  0  0  0
  -10.8369    3.2699   19.1761 C   0  0  0  0  0  0  0  0  0  0  0  0
  3  7  1  0
  4  8  1  0
 11 14  1  0
 14 15  1  0
 15 16  1  0
 16 17  2  3
 17 18  1  0
 18 19  2  3
 19 20  1  0
 20 21  2  0
  1  2  2  0
  2  5  1  0
  5  6  2  0
  6  4  1  0
  4  3  2  0
  3  1  1  0
  8  9  2  0
  9 10  1  0
 10 11  2  0
 11 13  1  0
 13 12  2  0
 12  8  1  0
M  END
$$$$
