No_4064-complexes_sdf/6BKW-FPZ/2024-09-17-14-21-01/
     RDKit          3D

 21 23  0  0  0  0  0  0  0  0999 V2000
   -7.2496    3.8871   27.4508 C   0  0  0  0  0  0  0  0  0  0  0  0
   -8.5096    4.0291   27.2770 C   0  0  0  0  0  0  0  0  0  0  0  0
   -9.2677    5.1714   27.5773 C   0  0  0  0  0  0  0  0  0  0  0  0
   -9.2765    2.8248   26.8371 C   0  0  0  0  0  0  0  0  0  0  0  0
  -10.4623    3.0171   26.3237 C   0  0  2  0  0  0  0  0  0  0  0  0
  -10.8972    2.6250   25.3350 C   0  0  0  0  0  0  0  0  0  0  0  0
  -10.6168    2.9404   24.3189 C   0  0  0  0  0  0  0  0  0  0  0  0
   -8.5267    6.3598   28.0307 C   0  0  0  0  0  0  0  0  0  0  0  0
   -6.5036    5.0636   27.9698 C   0  0  0  0  0  0  0  0  0  0  0  0
   -7.1723    6.2357   28.1151 C   0  0  0  0  0  0  0  0  0  0  0  0
  -10.8540    2.4241   22.9584 C   0  0  0  0  0  0  0  0  0  0  0  0
  -11.7367    1.4451   22.8983 C   0  0  0  0  0  0  0  0  0  0  0  0
  -12.2696    0.9992   24.0508 C   0  0  0  0  0  0  0  0  0  0  0  0
  -11.8489    1.5004   25.1968 C   0  0  0  0  0  0  0  0  0  0  0  0
  -11.3151    4.0650   27.0761 C   0  0  0  0  0  0  0  0  0  0  0  0
  -10.6219    5.2106   27.4330 N   0  0  0  0  0  0  0  0  0  0  0  0
   -6.5354    2.7744   27.3650 O   0  0  0  0  0  0  0  0  0  0  0  0
   -5.4427    2.4863   28.1086 C   0  0  0  0  0  0  0  0  0  0  0  0
   -5.0431    1.0267   27.9052 C   0  0  0  0  0  0  0  0  0  0  0  0
   -5.8247    0.1806   27.3505 C   0  0  0  0  0  0  0  0  0  0  0  0
   -5.4807   -1.1493   27.1980 C   0  0  0  0  0  0  0  0  0  0  0  0
  2  4  1  0
  4  5  1  0
  5  6  1  6
  5 15  1  0
  3 16  1  0
 15 16  1  0
  1 17  1  0
 17 18  1  0
 18 19  2  3
 19 20  1  0
 20 21  2  0
  1  2  2  0
  2  3  1  0
  3  8  2  0
  8 10  1  0
 10  9  2  0
  9  1  1  0
  6  7  2  0
  7 11  1  0
 11 12  2  0
 12 13  1  0
 13 14  2  0
 14  6  1  0
M  END
$$$$
