No_4352-complexes_sdf/6BKW-FPZ/2024-09-17-14-21-01/
     RDKit          3D

 17 18  0  0  0  0  0  0  0  0999 V2000
   -7.9040    3.9820   27.1177 C   0  0  0  0  0  0  0  0  0  0  0  0
   -8.2057    2.8231   26.8733 C   0  0  0  0  0  0  0  0  0  0  0  0
   -9.2962    2.4021   26.1155 C   0  0  0  0  0  0  0  0  0  0  0  0
   -8.7358    5.0662   26.5917 C   0  0  0  0  0  0  0  0  0  0  0  0
   -9.7618    4.7023   25.7546 C   0  0  0  0  0  0  0  0  0  0  0  0
  -10.0066    3.4105   25.4922 C   0  0  0  0  0  0  0  0  0  0  0  0
   -8.3943    6.4761   26.8801 C   0  0  0  0  0  0  0  0  0  0  0  0
   -8.6590    7.3213   26.1280 F   0  0  0  0  0  0  0  0  0  0  0  0
   -8.8552    6.6103   28.1538 F   0  0  0  0  0  0  0  0  0  0  0  0
   -7.0016    6.5587   27.1513 F   0  0  0  0  0  0  0  0  0  0  0  0
   -7.2235    1.4959   27.5996 Cl  0  0  0  0  0  0  0  0  0  0  0  0
  -11.1152    3.1457   24.5673 C   0  0  0  0  0  0  0  0  0  0  0  0
  -12.3278    2.7241   25.0459 C   0  0  0  0  0  0  0  0  0  0  0  0
  -13.3753    2.5615   24.2246 C   0  0  0  0  0  0  0  0  0  0  0  0
  -10.9086    3.2999   23.2226 C   0  0  0  0  0  0  0  0  0  0  0  0
  -11.9368    3.1952   22.2914 C   0  0  0  0  0  0  0  0  0  0  0  0
  -13.1806    2.8065   22.8152 C   0  0  0  0  0  0  0  0  0  0  0  0
  4  7  1  0
  7  8  1  0
  7  9  1  0
  7 10  1  0
  2 11  1  0
  6 12  1  0
 12 13  2  0
 13 14  1  0
 14 17  2  0
 17 16  1  0
 16 15  2  0
 15 12  1  0
  1  2  2  0
  2  3  1  0
  3  6  2  0
  6  5  1  0
  5  4  2  0
  4  1  1  0
M  END
$$$$
