No_4344-complexes_sdf/6BKW-FPZ/2024-09-17-14-21-01/
     RDKit          3D

 40 47  0  0  0  0  0  0  0  0999 V2000
   -7.2496    3.8871   27.4508 C   0  0  0  0  0  0  0  0  0  0  0  0
   -8.5096    4.0291   27.2770 C   0  0  0  0  0  0  0  0  0  0  0  0
   -9.2677    5.1714   27.5773 C   0  0  0  0  0  0  0  0  0  0  0  0
   -9.2765    2.8248   26.8371 C   0  0  0  0  0  0  0  0  0  0  0  0
   -8.6731    1.7312   26.5464 C   0  0  0  0  0  0  0  0  0  0  0  0
   -6.5216    2.6580   27.4010 C   0  0  0  0  0  0  0  0  0  0  0  0
   -7.2494    1.5864   26.9125 C   0  0  0  0  0  0  0  0  0  0  0  0
   -8.5606    6.4190   27.5911 C   0  0  0  0  0  0  0  0  0  0  0  0
  -10.6469    5.1207   27.8905 C   0  0  0  0  0  0  0  0  0  0  0  0
   -6.5600    0.3213   26.6750 C   0  0  0  0  0  0  0  0  0  0  0  0
   -5.5792   -0.0498   27.6209 C   0  0  0  0  0  0  0  0  0  0  0  0
   -4.8932   -1.2728   27.4936 C   0  0  0  0  0  0  0  0  0  0  0  0
   -3.8250   -1.5351   28.3590 C   0  0  0  0  0  0  0  0  0  0  0  0
   -3.4730   -0.6754   29.4435 C   0  0  0  0  0  0  0  0  0  0  0  0
   -4.2207    0.5653   29.5504 C   0  0  0  0  0  0  0  0  0  0  0  0
   -5.1834    0.8543   28.6518 C   0  0  0  0  0  0  0  0  0  0  0  0
   -5.7099    2.1864   28.5692 N   0  0  0  0  0  0  0  0  0  0  0  0
  -11.2732    3.8755   28.0574 C   0  0  0  0  0  0  0  0  0  0  0  0
  -10.5997    2.7179   27.4101 C   0  0  0  0  0  0  0  0  0  0  0  0
  -11.3198    1.4699   27.3614 C   0  0  0  0  0  0  0  0  0  0  0  0
  -11.7319    0.9561   28.6186 C   0  0  0  0  0  0  0  0  0  0  0  0
  -12.2201   -0.3803   28.7213 C   0  0  0  0  0  0  0  0  0  0  0  0
  -12.1280   -1.1160   27.5650 C   0  0  0  0  0  0  0  0  0  0  0  0
  -11.2596    0.5840   26.3487 C   0  0  0  0  0  0  0  0  0  0  0  0
  -10.8895    1.1441   25.0602 C   0  0  0  0  0  0  0  0  0  0  0  0
  -11.6975   -0.6767   26.3465 C   0  0  0  0  0  0  0  0  0  0  0  0
   -9.3575    1.3543   25.0470 C   0  0  1  0  0  0  0  0  0  0  0  0
   -8.8004    2.1638   23.9712 C   0  0  0  0  0  0  0  0  0  0  0  0
   -8.7308   -0.1274   24.7894 C   0  0  0  0  0  0  0  0  0  0  0  0
   -8.3467   -0.3405   23.5184 C   0  0  0  0  0  0  0  0  0  0  0  0
   -7.5385   -1.4908   23.3853 C   0  0  0  0  0  0  0  0  0  0  0  0
   -7.3551   -2.2139   24.4309 C   0  0  0  0  0  0  0  0  0  0  0  0
   -8.0124   -2.1185   25.6289 C   0  0  0  0  0  0  0  0  0  0  0  0
   -8.5733   -0.9469   25.8270 N   0  0  0  0  0  0  0  0  0  0  0  0
   -7.6505   -2.8692   26.6275 N   0  0  0  0  0  0  0  0  0  0  0  0
   -8.2156   -2.8601   27.9108 C   0  0  0  0  0  0  0  0  0  0  0  0
   -7.7859   -3.7667   28.9107 C   0  0  0  0  0  0  0  0  0  0  0  0
   -6.9042   -4.0560   26.4953 C   0  0  0  0  0  0  0  0  0  0  0  0
   -6.5079   -4.9641   27.4982 C   0  0  0  0  0  0  0  0  0  0  0  0
   -7.0027   -4.7826   28.7627 C   0  0  0  0  0  0  0  0  0  0  0  0
 19 20  1  0
 24 25  1  0
  5 27  1  0
 25 27  1  0
 27 28  1  6
 27 29  1  0
 33 35  1  0
 35 36  1  0
 35 38  1  0
 37 40  1  0
 39 40  1  0
  8  3  1  0
 36 37  1  0
 39 38  1  0
  1  2  2  0
  4  5  2  0
  5  7  1  0
  6  1  1  0
 20 21  2  0
 21 22  1  0
 22 23  2  0
 23 26  1  0
 26 24  2  0
 24 20  1  0
 11 12  1  0
 12 13  2  0
 13 14  1  0
 14 15  2  0
 15 16  1  0
  2  3  1  0
  3  9  2  0
  9 18  1  0
 18 19  2  0
 19  4  1  0
  4  2  1  0
  6  7  2  0
  7 10  1  0
 10 11  2  0
 11 16  1  0
 16 17  2  0
 17  6  1  0
 29 30  2  0
 30 31  1  0
 31 32  2  0
 32 33  1  0
 33 34  2  0
 34 29  1  0
M  END
$$$$
