No_4201-complexes_sdf/6BKW-FPZ/2024-09-17-14-21-01/
     RDKit          3D

 23 26  0  0  0  0  0  0  0  0999 V2000
   -7.9040    3.9820   27.1177 C   0  0  0  0  0  0  0  0  0  0  0  0
   -8.2057    2.8231   26.8733 C   0  0  0  0  0  0  0  0  0  0  0  0
   -9.3234    2.2125   27.0599 C   0  0  0  0  0  0  0  0  0  0  0  0
   -9.0146    4.9428   27.2420 C   0  0  0  0  0  0  0  0  0  0  0  0
   -8.7904    6.3552   27.4306 C   0  0  0  0  0  0  0  0  0  0  0  0
  -10.4674    3.0192   27.2879 C   0  0  0  0  0  0  0  0  0  0  0  0
  -10.3212    4.3963   27.4586 C   0  0  0  0  0  0  0  0  0  0  0  0
   -7.9157    6.9979   26.4173 C   0  0  0  0  0  0  0  0  0  0  0  0
   -9.5341    0.7277   26.9218 C   0  0  0  0  0  0  0  0  0  0  0  0
   -8.4559   -0.0150   27.0583 C   0  0  0  0  0  0  0  0  0  0  0  0
   -8.2062   -1.0848   27.0977 C   0  0  0  0  0  0  0  0  0  0  0  0
   -6.8871   -1.7861   27.1986 C   0  0  0  0  0  0  0  0  0  0  0  0
   -5.7726   -0.9582   27.1173 C   0  0  0  0  0  0  0  0  0  0  0  0
   -5.9341    0.4052   27.0180 C   0  0  0  0  0  0  0  0  0  0  0  0
   -7.1494    0.9520   27.0706 C   0  0  0  0  0  0  0  0  0  0  0  0
   -7.2502    2.2708   26.9319 N   0  0  0  0  0  0  0  0  0  0  0  0
  -10.7998    0.1040   27.0510 C   0  0  0  0  0  0  0  0  0  0  0  0
  -11.1427   -0.6363   27.7843 C   0  0  0  0  0  0  0  0  0  0  0  0
  -12.4547   -1.2908   27.9473 C   0  0  0  0  0  0  0  0  0  0  0  0
  -13.3843   -0.8052   27.0836 C   0  0  0  0  0  0  0  0  0  0  0  0
  -11.9023    0.6054   26.1719 C   0  0  0  0  0  0  0  0  0  0  0  0
  -13.1103    0.1052   26.1939 C   0  0  0  0  0  0  0  0  0  0  0  0
   -7.7912    8.4315   26.9519 C   0  0  0  0  0  0  0  0  0  0  0  0
  4  5  1  0
  5  8  1  0
  9 17  1  0
  8 23  1  0
  1  2  2  0
  3  6  2  0
  6  7  1  0
  7  4  2  0
  4  1  1  0
 17 18  2  0
 18 19  1  0
 19 20  2  0
 20 22  1  0
 22 21  2  0
 21 17  1  0
  2  3  1  0
  3  9  1  0
  9 10  2  0
 15 16  2  0
 16  2  1  0
 10 11  1  0
 11 12  2  0
 12 13  1  0
 13 14  2  0
 14 15  1  0
 15 10  1  0
M  END
$$$$
