No_4502-complexes_sdf/6BKW-FPZ/2024-09-17-14-21-01/
     RDKit          3D

 39 42  0  0  0  0  0  0  0  0999 V2000
   -7.9040    3.9820   27.1177 C   0  0  0  0  0  0  0  0  0  0  0  0
   -8.2057    2.8231   26.8733 C   0  0  0  0  0  0  0  0  0  0  0  0
   -7.4766    1.7477   27.4593 C   0  0  0  0  0  0  0  0  0  0  0  0
   -8.7468    5.1251   26.6967 C   0  0  0  0  0  0  0  0  0  0  0  0
   -9.7234    4.8589   25.8202 C   0  0  0  0  0  0  0  0  0  0  0  0
   -9.9711    3.5858   25.4266 C   0  0  0  0  0  0  0  0  0  0  0  0
   -9.2266    2.4957   25.9600 C   0  0  0  0  0  0  0  0  0  0  0  0
   -6.8155    0.8730   26.9394 N   0  0  0  0  0  0  0  0  0  0  0  0
   -5.9634    0.0823   27.6583 C   0  0  0  0  0  0  0  0  0  0  0  0
   -5.0918    0.8703   28.3479 C   0  0  0  0  0  0  0  0  0  0  0  0
   -4.1774    0.1261   29.2609 C   0  0  0  0  0  0  0  0  0  0  0  0
   -4.1179   -1.1626   29.3483 C   0  0  0  0  0  0  0  0  0  0  0  0
   -5.8268   -1.2541   27.7125 C   0  0  0  0  0  0  0  0  0  0  0  0
   -5.0000   -1.9226   28.5382 C   0  0  0  0  0  0  0  0  0  0  0  0
   -8.4448    6.5233   27.0983 C   0  0  0  0  0  0  0  0  0  0  0  0
   -8.5570    6.7281   28.2956 F   0  0  0  0  0  0  0  0  0  0  0  0
   -7.1527    6.9162   26.7501 F   0  0  0  0  0  0  0  0  0  0  0  0
   -9.2759    7.4101   26.4514 F   0  0  0  0  0  0  0  0  0  0  0  0
   -3.1434   -1.7999   30.2626 C   0  0  0  0  0  0  0  0  0  0  0  0
   -3.6775   -2.5031   31.3352 C   0  0  0  0  0  0  0  0  0  0  0  0
   -4.0416   -2.0861   32.2564 C   0  0  0  0  0  0  0  0  0  0  0  0
   -4.5878   -2.1658   33.2643 C   0  0  0  0  0  0  0  0  0  0  0  0
   -5.0202   -1.2560   34.3979 C   0  0  0  0  0  0  0  0  0  0  0  0
   -4.9824   -1.2019   35.4849 C   0  0  0  0  0  0  0  0  0  0  0  0
   -5.1853   -2.4939   36.2310 C   0  0  0  0  0  0  0  0  0  0  0  0
   -4.9386   -3.5961   35.3703 C   0  0  0  0  0  0  0  0  0  0  0  0
   -4.6246   -3.4856   34.1173 C   0  0  0  0  0  0  0  0  0  0  0  0
   -3.6810   -3.9513   31.1239 C   0  0  0  0  0  0  0  0  0  0  0  0
   -7.0972    0.3944   25.6089 C   0  0  0  0  0  0  0  0  0  0  0  0
   -5.3905   -2.5015   37.6948 C   0  0  1  0  0  0  0  0  0  0  0  0
   -5.0483   -1.7491   38.5208 C   0  0  0  0  0  0  0  0  0  0  0  0
   -5.4415   -1.7467   39.9265 C   0  0  0  0  0  0  0  0  0  0  0  0
   -5.0903   -0.6993   40.8328 C   0  0  0  0  0  0  0  0  0  0  0  0
   -4.3580    0.3993   40.3691 C   0  0  0  0  0  0  0  0  0  0  0  0
   -4.0003    0.5033   39.0244 C   0  0  0  0  0  0  0  0  0  0  0  0
   -4.3668   -0.5110   38.1743 C   0  0  0  0  0  0  0  0  0  0  0  0
   -6.3790   -3.5841   38.0460 C   0  0  0  0  0  0  0  0  0  0  0  0
   -5.9842   -4.7727   38.4205 C   0  0  0  0  0  0  0  0  0  0  0  0
   -6.8971   -5.7628   38.8076 C   0  0  0  0  0  0  0  0  0  0  0  0
  2  3  1  0
  3  8  1  0
  8  9  1  0
  4 15  1  0
 15 16  1  0
 15 17  1  0
 15 18  1  0
 12 19  1  0
 19 20  1  0
 20 21  2  3
 21 22  1  0
 20 28  1  0
  8 29  1  0
 30 25  1  6
 30 37  1  0
 37 38  2  3
 38 39  1  0
 30 31  1  0
 31 32  2  0
 32 33  1  0
 33 34  2  0
 34 35  1  0
 35 36  2  0
 36 31  1  0
 22 23  2  0
 23 24  1  0
 24 25  2  0
 25 26  1  0
 26 27  2  0
 27 22  1  0
  1  2  2  0
  2  7  1  0
  7  6  2  0
  6  5  1  0
  5  4  2  0
  4  1  1  0
  9 10  2  0
 10 11  1  0
 11 12  2  0
 12 14  1  0
 14 13  2  0
 13  9  1  0
M  END
$$$$
