No_4142-complexes_sdf/6BKW-FPZ/2024-09-17-14-21-01/
     RDKit          3D

 30 33  0  0  0  0  0  0  0  0999 V2000
   -7.2496    3.8871   27.4508 C   0  0  0  0  0  0  0  0  0  0  0  0
   -7.6161    2.7143   27.1523 C   0  0  0  0  0  0  0  0  0  0  0  0
   -8.6212    2.2239   26.4074 C   0  0  0  0  0  0  0  0  0  0  0  0
   -8.2540    4.9237   27.1711 C   0  0  0  0  0  0  0  0  0  0  0  0
   -9.3709    4.6019   26.4511 C   0  0  0  0  0  0  0  0  0  0  0  0
   -9.5922    3.3274   26.0949 C   0  0  0  0  0  0  0  0  0  0  0  0
   -7.9165    6.3279   27.5749 C   0  0  0  0  0  0  0  0  0  0  0  0
  -10.7701    2.9798   25.2771 C   0  0  0  0  0  0  0  0  0  0  0  0
  -10.6877    2.0314   24.3513 C   0  0  0  0  0  0  0  0  0  0  0  0
  -11.7671    1.7569   23.4790 C   0  0  0  0  0  0  0  0  0  0  0  0
  -12.8801    2.5725   23.5437 C   0  0  0  0  0  0  0  0  0  0  0  0
  -12.9329    3.6270   24.4546 C   0  0  0  0  0  0  0  0  0  0  0  0
  -11.8622    3.9092   25.3133 C   0  0  0  0  0  0  0  0  0  0  0  0
   -8.8180    7.2544   27.2576 O   0  0  0  0  0  0  0  0  0  0  0  0
   -6.5550    1.5506   27.5106 C   0  0  0  0  0  0  0  0  0  0  0  0
   -5.2938    1.9184   28.0842 C   0  0  0  0  0  0  0  0  0  0  0  0
   -4.3714    0.9131   28.4043 C   0  0  0  0  0  0  0  0  0  0  0  0
   -4.7343   -0.4247   28.3930 C   0  0  0  0  0  0  0  0  0  0  0  0
   -6.0400   -0.7426   27.8829 C   0  0  0  0  0  0  0  0  0  0  0  0
   -6.9264    0.2461   27.4607 C   0  0  0  0  0  0  0  0  0  0  0  0
   -3.8326   -1.4824   28.8436 C   0  0  0  0  0  0  0  0  0  0  0  0
   -3.9795   -1.9430   30.0540 C   0  0  0  0  0  0  0  0  0  0  0  0
   -3.0906   -2.7598   30.6032 C   0  0  0  0  0  0  0  0  0  0  0  0
   -1.9582   -3.1704   29.8243 C   0  0  0  0  0  0  0  0  0  0  0  0
   -1.7686   -2.6511   28.5961 C   0  0  0  0  0  0  0  0  0  0  0  0
   -2.6626   -1.6542   28.0607 C   0  0  0  0  0  0  0  0  0  0  0  0
   -6.8251    6.6053   28.0811 O   0  0  0  0  0  0  0  0  0  0  0  0
   -5.1260   -1.5454   30.9593 C   0  0  0  0  0  0  0  0  0  0  0  0
   -5.5062   -2.1188   32.1042 C   0  0  0  0  0  0  0  0  0  0  0  0
   -4.6178   -3.0636   32.6263 C   0  0  0  0  0  0  0  0  0  0  0  0
  4  7  1  0
  6  8  1  0
  7 14  1  0
  2 15  1  0
 18 21  1  0
  7 27  2  0
 22 28  1  0
 28 29  2  3
 29 30  1  0
 15 16  2  0
 16 17  1  0
 17 18  2  0
 18 19  1  0
 19 20  2  0
 20 15  1  0
  1  2  2  0
  2  3  1  0
  3  6  2  0
  6  5  1  0
  5  4  2  0
  4  1  1  0
  8  9  2  0
  9 10  1  0
 10 11  2  0
 11 12  1  0
 12 13  2  0
 13  8  1  0
 21 22  2  0
 22 23  1  0
 23 24  2  0
 24 25  1  0
 25 26  2  0
 26 21  1  0
M  END
$$$$
