No_4459-complexes_sdf/6BKW-FPZ/2024-09-17-14-21-01/
     RDKit          3D

 15 17  0  0  0  0  0  0  0  0999 V2000
   -7.9040    3.9820   27.1177 C   0  0  0  0  0  0  0  0  0  0  0  0
   -7.8663    4.8694   27.9238 C   0  0  0  0  0  0  0  0  0  0  0  0
   -7.4547    2.7080   27.4594 C   0  0  0  0  0  0  0  0  0  0  0  0
   -7.9337    1.5946   26.8372 C   0  0  0  0  0  0  0  0  0  0  0  0
   -7.4947    0.3059   27.1189 C   0  0  0  0  0  0  0  0  0  0  0  0
   -8.3103   -0.7960   26.8543 C   0  0  0  0  0  0  0  0  0  0  0  0
   -8.6814    6.0274   27.8017 C   0  0  0  0  0  0  0  0  0  0  0  0
   -9.4156   -0.5618   25.9989 C   0  0  0  0  0  0  0  0  0  0  0  0
   -9.7985    0.6873   25.6245 C   0  0  0  0  0  0  0  0  0  0  0  0
   -9.0412    1.7889   26.0736 C   0  0  0  0  0  0  0  0  0  0  0  0
   -9.4028    6.2025   26.5354 C   0  0  0  0  0  0  0  0  0  0  0  0
   -8.9591    4.2722   26.1148 C   0  0  0  0  0  0  0  0  0  0  0  0
   -9.5030    5.3883   25.8541 C   0  0  0  0  0  0  0  0  0  0  0  0
   -9.4403    2.9563   25.4774 C   0  0  0  0  0  0  0  0  0  0  0  0
  -10.2772    3.0660   24.5405 O   0  0  0  0  0  0  0  0  0  0  0  0
  3  4  1  0
 10 14  1  0
 12 14  1  0
 14 15  2  0
  3  1  1  0
  4  5  2  0
  5  6  1  0
  6  8  2  0
  8  9  1  0
  9 10  2  0
 10  4  1  0
  1  2  2  0
  2  7  1  0
  7 11  2  0
 11 13  1  0
 13 12  2  0
 12  1  1  0
M  END
$$$$
