No_4275-complexes_sdf/6BKW-FPZ/2024-09-17-14-21-01/
     RDKit          3D

 20 21  0  0  0  0  0  0  0  0999 V2000
   -7.9040    3.9820   27.1177 C   0  0  0  0  0  0  0  0  0  0  0  0
   -8.2057    2.8231   26.8733 C   0  0  0  0  0  0  0  0  0  0  0  0
   -8.7695    5.0740   26.7916 C   0  0  1  0  0  0  0  0  0  0  0  0
   -8.4337    6.4678   27.0913 C   0  0  0  0  0  0  0  0  0  0  0  0
   -7.3775    1.6806   27.3986 C   0  0  0  0  0  0  0  0  0  0  0  0
   -6.0814    2.1205   27.8112 C   0  0  0  0  0  0  0  0  0  0  0  0
   -5.7220    3.4538   27.9612 C   0  0  0  0  0  0  0  0  0  0  0  0
   -6.5839    4.3786   27.6583 C   0  0  0  0  0  0  0  0  0  0  0  0
   -9.8602    4.8270   25.9201 C   0  0  0  0  0  0  0  0  0  0  0  0
   -5.2966    0.8906   28.1969 C   0  0  0  0  0  0  0  0  0  0  0  0
   -4.0967    1.1004   28.7841 N   0  0  0  0  0  0  0  0  0  0  0  0
   -5.6834   -0.4053   28.0654 C   0  0  0  0  0  0  0  0  0  0  0  0
   -4.9447   -1.3890   28.6562 C   0  0  0  0  0  0  0  0  0  0  0  0
   -3.6890   -1.1417   29.1824 C   0  0  0  0  0  0  0  0  0  0  0  0
   -3.3063    0.2228   29.3104 C   0  0  0  0  0  0  0  0  0  0  0  0
   -8.2844    7.5669   26.2536 C   0  0  0  0  0  0  0  0  0  0  0  0
   -9.7821    4.1342   24.7669 C   0  0  0  0  0  0  0  0  0  0  0  0
  -10.7456    4.1759   23.7679 C   0  0  0  0  0  0  0  0  0  0  0  0
  -10.4415    4.6043   22.5431 C   0  0  0  0  0  0  0  0  0  0  0  0
  -11.4324    4.7259   21.4727 C   0  0  0  0  0  0  0  0  0  0  0  0
  3  4  1  6
  3  9  1  0
  6 10  1  0
  4 16  1  0
  9 17  1  0
 17 18  1  0
 18 19  2  3
 19 20  1  0
  3  1  1  0
 10 11  2  0
 11 15  1  0
 15 14  2  0
 14 13  1  0
 13 12  2  0
 12 10  1  0
  1  2  2  0
  2  5  1  0
  5  6  2  0
  6  7  1  0
  7  8  2  0
  8  1  1  0
M  END
$$$$
