No_400-complexes_sdf/6BKW-FPZ/2024-09-17-14-21-01/
     RDKit          3D

 40 43  0  0  0  0  0  0  0  0999 V2000
   -7.9040    3.9820   27.1177 C   0  0  0  0  0  0  0  0  0  0  0  0
   -7.8663    4.8694   27.9238 C   0  0  0  0  0  0  0  0  0  0  0  0
   -9.0491    3.8523   26.2542 C   0  0  0  0  0  0  0  0  0  0  0  0
   -8.7661    5.9491   27.9690 C   0  0  0  0  0  0  0  0  0  0  0  0
   -9.9295    4.8502   26.2323 C   0  0  0  0  0  0  0  0  0  0  0  0
   -9.8077    5.9288   27.0933 C   0  0  0  0  0  0  0  0  0  0  0  0
   -6.8765    2.8741   27.3811 C   0  0  0  0  0  0  0  0  0  0  0  0
   -7.1025    1.7294   26.8248 O   0  0  0  0  0  0  0  0  0  0  0  0
   -5.7896    3.0887   27.9003 O   0  0  0  0  0  0  0  0  0  0  0  0
   -8.2684    1.0827   26.8047 C   0  0  0  0  0  0  0  0  0  0  0  0
   -8.1267   -0.2292   27.1968 C   0  0  0  0  0  0  0  0  0  0  0  0
   -9.3534   -1.0120   27.2560 C   0  0  0  0  0  0  0  0  0  0  0  0
   -9.3683   -2.2655   27.7990 C   0  0  0  0  0  0  0  0  0  0  0  0
   -8.1789   -2.7918   28.3391 C   0  0  0  0  0  0  0  0  0  0  0  0
   -7.0129   -2.0651   28.3159 C   0  0  0  0  0  0  0  0  0  0  0  0
   -7.0147   -0.7878   27.8516 C   0  0  0  0  0  0  0  0  0  0  0  0
  -11.2074    4.7747   25.0969 Cl  0  0  0  0  0  0  0  0  0  0  0  0
  -10.6169   -3.0481   27.8087 C   0  0  0  0  0  0  0  0  0  0  0  0
  -11.6693   -2.7314   28.4729 C   0  0  0  0  0  0  0  0  0  0  0  0
  -11.6154   -1.7168   29.3763 C   0  0  0  0  0  0  0  0  0  0  0  0
  -12.7965   -1.2278   30.1411 C   0  0  0  0  0  0  0  0  0  0  0  0
  -13.9474   -1.8530   29.9095 C   0  0  0  0  0  0  0  0  0  0  0  0
  -14.0300   -2.8977   28.9923 C   0  0  0  0  0  0  0  0  0  0  0  0
  -12.9304   -3.2896   28.3212 C   0  0  0  0  0  0  0  0  0  0  0  0
  -10.6930   -3.7999   26.7958 O   0  0  0  0  0  0  0  0  0  0  0  0
   -5.7775   -2.5712   28.9499 C   0  0  0  0  0  0  0  0  0  0  0  0
   -4.9846   -1.9202   29.5216 C   0  0  0  0  0  0  0  0  0  0  0  0
   -3.6497   -2.2885   30.0226 C   0  0  0  0  0  0  0  0  0  0  0  0
   -3.3349   -3.5566   29.9003 C   0  0  0  0  0  0  0  0  0  0  0  0
   -5.6352   -3.9960   29.0149 C   0  0  0  0  0  0  0  0  0  0  0  0
   -4.3385   -4.4833   29.4442 C   0  0  0  0  0  0  0  0  0  0  0  0
   -2.7464   -1.4275   30.5017 F   0  0  0  0  0  0  0  0  0  0  0  0
  -15.1509   -1.3602   30.6982 C   0  0  0  0  0  0  0  0  0  0  0  0
  -15.5706   -0.4111   30.6753 N   0  0  0  0  0  0  0  0  0  0  0  0
  -16.6360    0.1043   31.4191 C   0  0  0  0  0  0  0  0  0  0  0  0
  -15.3839   -2.1556   31.7133 O   0  0  0  0  0  0  0  0  0  0  0  0
  -16.4045    0.8230   32.5151 C   0  0  0  0  0  0  0  0  0  0  0  0
  -16.4708    1.8945   32.8972 C   0  0  0  0  0  0  0  0  0  0  0  0
  -16.0572    2.5785   34.1772 C   0  0  0  0  0  0  0  0  0  0  0  0
  -15.3405    1.7467   35.0481 C   0  0  0  0  0  0  0  0  0  0  0  0
  1  7  1  0
  7  8  1  0
  7  9  2  0
  8 10  1  0
  5 17  1  0
 13 18  1  0
 18 19  1  0
 18 25  2  0
 15 26  1  0
 28 32  1  0
 22 33  1  0
 33 34  1  0
 34 35  1  0
 33 36  2  0
 35 37  1  0
 37 38  2  3
 38 39  1  0
 39 40  2  0
 10 11  1  0
 11 12  2  0
 12 13  1  0
 13 14  2  0
 14 15  1  0
 15 16  2  0
 16 11  1  0
 26 27  2  0
 27 28  1  0
 28 29  2  0
 29 31  1  0
 31 30  2  0
 30 26  1  0
  1  2  2  0
  2  4  1  0
  4  6  2  0
  6  5  1  0
  5  3  2  0
  3  1  1  0
 19 20  2  0
 20 21  1  0
 21 22  2  0
 22 23  1  0
 23 24  2  0
 24 19  1  0
M  END
$$$$
