No_4595-complexes_sdf/6BKW-FPZ/2024-09-17-14-21-01/
     RDKit          3D

 40 44  0  0  0  0  0  0  0  0999 V2000
   -7.9040    3.9820   27.1177 C   0  0  0  0  0  0  0  0  0  0  0  0
   -8.2057    2.8231   26.8733 C   0  0  0  0  0  0  0  0  0  0  0  0
   -8.7695    5.0740   26.7916 C   0  0  0  0  0  0  0  0  0  0  0  0
   -8.4337    6.4678   27.0913 C   0  0  0  0  0  0  0  0  0  0  0  0
   -9.3742    2.4311   26.2346 C   0  0  0  0  0  0  0  0  0  0  0  0
  -10.2395    3.4267   25.8887 C   0  0  0  0  0  0  0  0  0  0  0  0
   -9.9567    4.7548   26.1374 C   0  0  0  0  0  0  0  0  0  0  0  0
   -7.8881    6.8714   28.1603 N   0  0  0  0  0  0  0  0  0  0  0  0
   -8.8350    7.3552   26.2295 O   0  0  0  0  0  0  0  0  0  0  0  0
   -7.2545    1.6772   27.2877 C   0  0  0  0  0  0  0  0  0  0  0  0
   -7.5569    0.3252   27.1850 C   0  0  0  0  0  0  0  0  0  0  0  0
   -6.5952   -0.5675   27.5131 C   0  0  0  0  0  0  0  0  0  0  0  0
   -5.3177   -0.1364   27.9633 C   0  0  0  0  0  0  0  0  0  0  0  0
   -5.0543    1.2208   28.0973 C   0  0  0  0  0  0  0  0  0  0  0  0
   -5.9204    2.1040   27.7457 C   0  0  0  0  0  0  0  0  0  0  0  0
   -4.3199   -1.1579   28.4087 C   0  0  0  0  0  0  0  0  0  0  0  0
   -3.2121   -0.8864   28.3931 C   0  0  0  0  0  0  0  0  0  0  0  0
   -2.3179   -0.8298   27.5890 C   0  0  0  0  0  0  0  0  0  0  0  0
   -2.6580   -1.2007   26.2062 C   0  0  0  0  0  0  0  0  0  0  0  0
   -4.7757   -2.4136   28.8542 C   0  0  1  0  0  0  0  0  0  0  0  0
   -5.5184   -2.3220   30.0518 C   0  0  0  0  0  0  0  0  0  0  0  0
   -5.5855   -2.9941   30.9365 C   0  0  0  0  0  0  0  0  0  0  0  0
   -6.4548   -2.8276   32.1805 C   0  0  0  0  0  0  0  0  0  0  0  0
   -7.3545   -1.8784   32.2244 C   0  0  0  0  0  0  0  0  0  0  0  0
   -8.0911   -1.7122   33.4182 C   0  0  0  0  0  0  0  0  0  0  0  0
   -8.2239   -2.7173   34.2067 C   0  0  0  0  0  0  0  0  0  0  0  0
   -7.3709   -3.8140   34.2468 C   0  0  0  0  0  0  0  0  0  0  0  0
   -6.5074   -3.9355   33.1246 C   0  0  0  0  0  0  0  0  0  0  0  0
   -4.6777   -4.1382   31.0888 C   0  0  0  0  0  0  0  0  0  0  0  0
   -2.6425   -0.3996   29.8816 C   0  0  0  0  0  0  0  0  0  0  0  0
   -4.8449   -5.1655   30.1950 C   0  0  0  0  0  0  0  0  0  0  0  0
   -4.5420   -6.3668   30.6169 C   0  0  0  0  0  0  0  0  0  0  0  0
   -4.7942   -7.4580   29.7453 C   0  0  0  0  0  0  0  0  0  0  0  0
   -5.1774   -7.1800   28.4448 C   0  0  0  0  0  0  0  0  0  0  0  0
   -5.4200   -5.8973   28.0138 C   0  0  0  0  0  0  0  0  0  0  0  0
   -5.8241   -5.5765   26.7131 C   0  0  0  0  0  0  0  0  0  0  0  0
   -5.1891   -4.8538   28.9744 C   0  0  0  0  0  0  0  0  0  0  0  0
   -4.6569   -3.7046   28.2611 C   0  0  0  0  0  0  0  0  0  0  0  0
   -6.8053   -5.1004   26.3705 C   0  0  0  0  0  0  0  0  0  0  0  0
   -7.1880   -4.6732   25.0888 C   0  0  0  0  0  0  0  0  0  0  0  0
  3  4  1  0
  4  8  1  0
  4  9  2  0
  2 10  1  0
 13 16  1  0
 16 17  1  0
 17 18  2  3
 18 19  1  0
 20 16  1  6
 20 21  1  0
 21 22  2  0
 22 23  1  0
 22 29  1  0
 17 30  1  0
 35 36  1  0
 20 38  1  0
 37 38  1  0
 36 39  1  0
 39 40  2  0
 29 31  1  0
 23 24  2  0
 24 25  1  0
 25 26  2  0
 26 27  1  0
 27 28  2  0
 28 23  1  0
 31 32  2  0
 32 33  1  0
 33 34  2  0
 34 35  1  0
 35 37  2  0
 37 31  1  0
  1  2  2  0
  2  5  1  0
  5  6  2  0
  6  7  1  0
  7  3  2  0
  3  1  1  0
 10 11  2  0
 11 12  1  0
 12 13  2  0
 13 14  1  0
 14 15  2  0
 15 10  1  0
M  END
$$$$
