No_4216-complexes_sdf/6BKW-FPZ/2024-09-17-14-21-01/
     RDKit          3D

 37 39  0  0  0  0  0  0  0  0999 V2000
   -7.7129    4.2099   27.0854 C   0  0  1  0  0  0  0  0  0  0  0  0
   -8.9133    4.4736   27.0998 C   0  0  2  0  0  0  0  0  0  0  0  0
   -9.7135    3.9633   26.0300 C   0  0  0  0  0  0  0  0  0  0  0  0
   -6.8420    4.9760   28.0851 C   0  0  0  0  0  0  0  0  0  0  0  0
   -9.9322    2.5915   25.9958 C   0  0  1  0  0  0  0  0  0  0  0  0
   -8.6455    1.8699   26.1981 C   0  0  0  0  0  0  0  0  0  0  0  0
   -7.7519    2.5333   27.2430 C   0  0  0  0  0  0  0  0  0  0  0  0
  -10.9184    2.1190   26.9529 C   0  0  0  0  0  0  0  0  0  0  0  0
  -11.1010    2.7785   28.1126 C   0  0  0  0  0  0  0  0  0  0  0  0
  -11.6695    0.9031   26.7252 C   0  0  0  0  0  0  0  0  0  0  0  0
  -12.2535    0.3226   27.5008 C   0  0  0  0  0  0  0  0  0  0  0  0
  -12.0709    2.2351   29.1711 C   0  0  0  0  0  0  0  0  0  0  0  0
  -12.6635    1.0051   28.8217 C   0  0  0  0  0  0  0  0  0  0  0  0
  -10.4163    2.3203   24.5971 C   0  0  0  0  0  0  0  0  0  0  0  0
  -11.2417    3.2410   24.0602 C   0  0  0  0  0  0  0  0  0  0  0  0
  -10.0941    1.1700   23.8716 C   0  0  0  0  0  0  0  0  0  0  0  0
  -10.1971    1.1478   22.5226 C   0  0  0  0  0  0  0  0  0  0  0  0
  -11.5109    3.1861   22.6083 C   0  0  0  0  0  0  0  0  0  0  0  0
  -11.0251    2.1817   21.8810 C   0  0  0  0  0  0  0  0  0  0  0  0
   -9.0084    6.1288   27.2972 C   0  0  0  0  0  0  0  0  0  0  0  0
  -13.4799    0.3689   29.8322 C   0  0  0  0  0  0  0  0  0  0  0  0
  -13.9958    0.9950   30.6020 O   0  0  0  0  0  0  0  0  0  0  0  0
  -13.3138   -0.9249   30.0115 O   0  0  0  0  0  0  0  0  0  0  0  0
  -12.3178    4.2431   21.9539 C   0  0  0  0  0  0  0  0  0  0  0  0
  -12.5463    5.2724   22.7937 C   0  0  0  0  0  0  0  0  0  0  0  0
  -12.6706    4.0466   20.6971 C   0  0  0  0  0  0  0  0  0  0  0  0
   -9.6883    0.0412   21.7278 C   0  0  0  0  0  0  0  0  0  0  0  0
   -8.3988    0.0300   21.7744 F   0  0  0  0  0  0  0  0  0  0  0  0
  -10.1587   -1.1301   22.1887 F   0  0  0  0  0  0  0  0  0  0  0  0
   -9.9889    0.1980   20.4607 F   0  0  0  0  0  0  0  0  0  0  0  0
  -14.2417   -1.6975   30.2626 C   0  0  0  0  0  0  0  0  0  0  0  0
  -13.8220   -2.9252   30.7760 C   0  0  0  0  0  0  0  0  0  0  0  0
  -14.5836   -3.7567   31.0847 C   0  0  0  0  0  0  0  0  0  0  0  0
  -15.6486   -4.3369   31.0136 P   0  0  0  0  0  0  0  0  0  0  0  0
  -16.7413   -3.5025   30.9899 O   0  0  0  0  0  0  0  0  0  0  0  0
  -15.8133   -5.0290   29.5405 O   0  0  0  0  0  0  0  0  0  0  0  0
  -16.2815   -5.5098   31.8979 O   0  0  0  0  0  0  0  0  0  0  0  0
  1  2  1  0
  2  3  1  0
  1  4  1  1
  3  5  1  0
  5  6  1  0
  1  7  1  0
  6  7  1  0
  5  8  1  1
  5 14  1  0
  2 20  1  6
 13 21  1  0
 21 22  2  0
 21 23  1  0
 18 24  1  0
 24 25  2  0
 24 26  1  0
 17 27  1  0
 27 28  1  0
 27 29  1  0
 27 30  1  0
 23 31  1  0
 31 32  1  0
 32 33  1  0
 33 34  1  0
 34 35  1  0
 34 36  2  0
 34 37  1  0
 14 15  2  0
 15 18  1  0
 18 19  2  0
 19 17  1  0
 17 16  2  0
 16 14  1  0
  8  9  2  0
  9 12  1  0
 12 13  2  0
 13 11  1  0
 11 10  2  0
 10  8  1  0
M  END
$$$$
