No_4388-complexes_sdf/6BKW-FPZ/2024-09-17-14-21-01/
     RDKit          3D

 28 31  0  0  0  0  0  0  0  0999 V2000
   -7.7129    4.2099   27.0854 C   0  0  0  0  0  0  0  0  0  0  0  0
   -8.2112    3.0637   26.9225 C   0  0  0  0  0  0  0  0  0  0  0  0
   -8.5108    5.3904   26.9436 C   0  0  0  0  0  0  0  0  0  0  0  0
   -9.7256    5.1955   26.3518 C   0  0  0  0  0  0  0  0  0  0  0  0
   -9.4995    2.8258   26.4878 C   0  0  0  0  0  0  0  0  0  0  0  0
  -10.2542    3.9691   26.2055 C   0  0  0  0  0  0  0  0  0  0  0  0
   -7.9468    6.6176   27.1669 N   0  0  0  0  0  0  0  0  0  0  0  0
   -7.3610    1.8234   27.2472 C   0  0  0  0  0  0  0  0  0  0  0  0
   -7.7957    0.5988   27.0959 N   0  0  0  0  0  0  0  0  0  0  0  0
   -7.0622   -0.4576   27.4173 C   0  0  0  0  0  0  0  0  0  0  0  0
   -5.8101   -0.2177   27.9347 C   0  0  0  0  0  0  0  0  0  0  0  0
   -4.9093   -1.2728   28.3445 C   0  0  0  0  0  0  0  0  0  0  0  0
   -6.1204    1.9550   27.7559 N   0  0  0  0  0  0  0  0  0  0  0  0
   -5.3558    1.1159   28.0622 C   0  0  0  0  0  0  0  0  0  0  0  0
   -3.7365   -1.0048   28.6964 C   0  0  0  0  0  0  0  0  0  0  0  0
   -3.2125    0.3505   28.8322 C   0  0  0  0  0  0  0  0  0  0  0  0
   -4.0127    1.3345   28.5455 C   0  0  0  0  0  0  0  0  0  0  0  0
   -8.5460    7.8317   26.7661 C   0  0  0  0  0  0  0  0  0  0  0  0
   -7.6767   -1.9830   27.1709 Cl  0  0  0  0  0  0  0  0  0  0  0  0
  -11.5768    3.8235   25.5675 C   0  0  0  0  0  0  0  0  0  0  0  0
  -12.0397    2.6958   25.1475 C   0  0  0  0  0  0  0  0  0  0  0  0
  -13.3177    2.5978   24.5534 C   0  0  0  0  0  0  0  0  0  0  0  0
  -14.0706    3.7652   24.4072 C   0  0  0  0  0  0  0  0  0  0  0  0
  -13.6184    4.9823   24.9318 C   0  0  0  0  0  0  0  0  0  0  0  0
  -12.4019    5.0687   25.5235 C   0  0  0  0  0  0  0  0  0  0  0  0
  -13.8259    1.3575   24.0222 C   0  0  0  0  0  0  0  0  0  0  0  0
  -14.6890    1.2412   23.3091 C   0  0  0  0  0  0  0  0  0  0  0  0
  -15.5271    2.4617   23.0639 C   0  0  0  0  0  0  0  0  0  0  0  0
  3  7  1  0
  2  8  1  0
  7 18  1  0
 10 19  1  0
  6 20  1  0
 22 26  1  0
 26 27  2  3
 27 28  1  0
 11 12  1  0
 12 15  2  0
 15 16  1  0
 16 17  2  0
 17 14  1  0
  8  9  2  0
  9 10  1  0
 10 11  2  0
 11 14  1  0
 14 13  2  0
 13  8  1  0
  1  2  2  0
  2  5  1  0
  5  6  2  0
  6  4  1  0
  4  3  2  0
  3  1  1  0
 20 21  2  0
 21 22  1  0
 22 23  2  0
 23 24  1  0
 24 25  2  0
 25 20  1  0
M  END
$$$$
