No_4992-complexes_sdf/6BKW-FPZ/2024-09-17-14-21-01/
     RDKit          3D

 22 24  0  0  0  0  0  0  0  0999 V2000
   -7.9040    3.9820   27.1177 C   0  0  0  0  0  0  0  0  0  0  0  0
   -7.8663    4.8694   27.9238 C   0  0  0  0  0  0  0  0  0  0  0  0
   -9.0806    3.1428   27.1220 C   0  0  0  0  0  0  0  0  0  0  0  0
   -8.9544    1.8782   26.5467 C   0  0  2  0  0  0  0  0  0  0  0  0
   -8.5076    6.0545   27.5968 C   0  0  0  0  0  0  0  0  0  0  0  0
   -7.9578    1.0658   26.7288 C   0  0  0  0  0  0  0  0  0  0  0  0
   -8.8332    6.3112   26.3274 C   0  0  0  0  0  0  0  0  0  0  0  0
   -7.2976    1.1208   27.7930 C   0  0  0  0  0  0  0  0  0  0  0  0
   -6.1077    0.2269   28.0851 C   0  0  0  0  0  0  0  0  0  0  0  0
   -5.8584   -0.7592   27.2205 C   0  0  0  0  0  0  0  0  0  0  0  0
   -6.6447   -0.8533   26.0308 C   0  0  0  0  0  0  0  0  0  0  0  0
   -7.6631    0.0252   25.8217 C   0  0  0  0  0  0  0  0  0  0  0  0
  -10.0192    1.5603   25.6130 C   0  0  0  0  0  0  0  0  0  0  0  0
  -10.9604    2.4736   25.1795 C   0  0  0  0  0  0  0  0  0  0  0  0
  -12.0427    2.4809   25.6158 C   0  0  0  0  0  0  0  0  0  0  0  0
  -12.5698    1.7031   26.5572 C   0  0  0  0  0  0  0  0  0  0  0  0
  -13.4249    2.0887   27.5422 C   0  0  0  0  0  0  0  0  0  0  0  0
  -13.6495    1.3810   28.7921 C   0  0  0  0  0  0  0  0  0  0  0  0
  -13.0531    0.1208   28.8951 C   0  0  0  0  0  0  0  0  0  0  0  0
  -12.1413   -0.3169   27.9571 C   0  0  0  0  0  0  0  0  0  0  0  0
  -11.8278    0.4888   26.9160 C   0  0  0  0  0  0  0  0  0  0  0  0
  -10.9007    0.4028   26.3755 C   0  0  0  0  0  0  0  0  0  0  0  0
  1  2  1  0
  1  3  1  0
  4  3  1  6
  2  5  1  0
  4  6  1  0
  5  7  1  0
  4 13  1  0
 13 14  2  0
 14 15  1  0
 15 16  2  0
 21 22  2  0
 22 13  1  0
  6  8  2  0
  8  9  1  0
  9 10  2  0
 10 11  1  0
 11 12  2  0
 12  6  1  0
 16 17  1  0
 17 18  2  0
 18 19  1  0
 19 20  2  0
 20 21  1  0
 21 16  1  0
M  END
$$$$
