No_4649-complexes_sdf/6BKW-FPZ/2024-09-17-14-21-01/
     RDKit          3D

 19 20  0  0  0  0  0  0  0  0999 V2000
   -7.2496    3.8871   27.4508 C   0  0  0  0  0  0  0  0  0  0  0  0
   -8.5096    4.0291   27.2770 C   0  0  0  0  0  0  0  0  0  0  0  0
   -9.3502    2.8685   26.8763 C   0  0  0  0  0  0  0  0  0  0  0  0
   -6.6288    2.5513   27.4938 C   0  0  0  0  0  0  0  0  0  0  0  0
   -7.4365    1.4714   27.2032 C   0  0  0  0  0  0  0  0  0  0  0  0
   -8.7772    1.6579   26.9338 C   0  0  0  0  0  0  0  0  0  0  0  0
   -9.2952    5.2561   27.2424 C   0  0  0  0  0  0  0  0  0  0  0  0
   -8.7444    6.1775   26.5803 F   0  0  0  0  0  0  0  0  0  0  0  0
   -9.3680    5.8017   28.6001 F   0  0  0  0  0  0  0  0  0  0  0  0
  -10.5743    5.1562   26.8850 F   0  0  0  0  0  0  0  0  0  0  0  0
   -6.7751    0.1999   27.1541 C   0  0  0  0  0  0  0  0  0  0  0  0
   -7.2267   -0.8250   27.5543 C   0  0  0  0  0  0  0  0  0  0  0  0
   -6.5783   -2.1228   27.6604 C   0  0  0  0  0  0  0  0  0  0  0  0
   -5.2735   -2.1230   27.1478 C   0  0  0  0  0  0  0  0  0  0  0  0
   -4.6776   -1.0008   26.6500 C   0  0  0  0  0  0  0  0  0  0  0  0
   -5.4148    0.2098   26.6906 C   0  0  0  0  0  0  0  0  0  0  0  0
   -3.4381   -0.9637   26.2011 F   0  0  0  0  0  0  0  0  0  0  0  0
   -7.1714   -3.2037   28.0878 F   0  0  0  0  0  0  0  0  0  0  0  0
   -4.6010   -3.2865   27.1446 F   0  0  0  0  0  0  0  0  0  0  0  0
  2  7  1  0
  7  8  1  0
  7  9  1  0
  7 10  1  0
  5 11  1  0
 15 17  1  0
 13 18  1  0
 14 19  1  0
 11 12  2  0
 12 13  1  0
 13 14  2  0
 14 15  1  0
 15 16  2  0
 16 11  1  0
  1  2  2  0
  2  3  1  0
  3  6  2  0
  6  5  1  0
  5  4  2  0
  4  1  1  0
M  END
$$$$
