No_4137-complexes_sdf/6BKW-FPZ/2024-09-17-14-21-01/
     RDKit          3D

 21 23  0  0  0  0  0  0  0  0999 V2000
   -7.2496    3.8871   27.4508 C   0  0  0  0  0  0  0  0  0  0  0  0
   -7.6161    2.7143   27.1523 C   0  0  0  0  0  0  0  0  0  0  0  0
   -8.8302    2.4659   26.5056 C   0  0  0  0  0  0  0  0  0  0  0  0
   -8.1584    5.0090   27.3234 C   0  0  0  0  0  0  0  0  0  0  0  0
   -9.3788    4.7965   26.7695 C   0  0  0  0  0  0  0  0  0  0  0  0
   -9.7028    3.5649   26.3276 C   0  0  0  0  0  0  0  0  0  0  0  0
   -6.4628    1.2423   27.4291 Br  0  0  0  0  0  0  0  0  0  0  0  0
   -7.7204    6.2024   27.7269 F   0  0  0  0  0  0  0  0  0  0  0  0
  -11.0150    3.3547   25.6687 C   0  0  0  0  0  0  0  0  0  0  0  0
  -12.0998    2.9409   26.2840 C   0  0  0  0  0  0  0  0  0  0  0  0
  -13.3276    3.0337   25.8820 C   0  0  0  0  0  0  0  0  0  0  0  0
  -11.0882    3.0212   24.2712 C   0  0  0  0  0  0  0  0  0  0  0  0
  -12.3190    3.1232   23.6116 C   0  0  0  0  0  0  0  0  0  0  0  0
  -13.4524    3.0427   24.4105 C   0  0  0  0  0  0  0  0  0  0  0  0
   -9.8683    3.2112   23.4021 C   0  0  0  0  0  0  0  0  0  0  0  0
  -10.0524    2.7141   22.1014 C   0  0  0  0  0  0  0  0  0  0  0  0
  -11.2292    2.7222   21.4727 C   0  0  0  0  0  0  0  0  0  0  0  0
  -12.4931    2.8585   22.2182 C   0  0  0  0  0  0  0  0  0  0  0  0
  -14.8218    3.0477   23.8079 C   0  0  0  0  0  0  0  0  0  0  0  0
  -15.8498    2.8542   24.5735 C   0  0  0  0  0  0  0  0  0  0  0  0
  -15.6266    2.9114   25.9844 C   0  0  0  0  0  0  0  0  0  0  0  0
  2  7  1  0
  4  8  1  0
  6  9  1  0
 14 19  1  0
 19 20  2  3
 20 21  1  0
  9 10  2  0
 10 11  1  0
 11 14  2  0
 14 13  1  0
 12  9  1  0
  1  2  2  0
  2  3  1  0
  3  6  2  0
  6  5  1  0
  5  4  2  0
  4  1  1  0
 12 13  2  0
 13 18  1  0
 18 17  2  0
 17 16  1  0
 16 15  2  0
 15 12  1  0
M  END
$$$$
