No_4015-complexes_sdf/6BKW-FPZ/2024-09-17-14-21-01/
     RDKit          3D

 12 13  0  0  0  0  0  0  0  0999 V2000
   -7.7129    4.2099   27.0854 C   0  0  0  0  0  0  0  0  0  0  0  0
   -8.2112    3.0637   26.9225 C   0  0  0  0  0  0  0  0  0  0  0  0
   -8.4224    5.2106   27.8516 C   0  0  0  0  0  0  0  0  0  0  0  0
   -9.5628    2.7160   27.4089 C   0  0  0  0  0  0  0  0  0  0  0  0
  -10.2639    3.7034   28.1156 C   0  0  0  0  0  0  0  0  0  0  0  0
   -9.7059    4.9514   28.3169 C   0  0  0  0  0  0  0  0  0  0  0  0
  -11.6210    3.4159   28.6340 C   0  0  0  0  0  0  0  0  0  0  0  0
  -12.6133    3.0839   27.8781 C   0  0  0  0  0  0  0  0  0  0  0  0
  -13.7742    2.9605   28.2872 C   0  0  0  0  0  0  0  0  0  0  0  0
  -14.0781    2.9943   29.7183 C   0  0  0  0  0  0  0  0  0  0  0  0
  -13.0790    3.2998   30.5849 C   0  0  0  0  0  0  0  0  0  0  0  0
  -11.8183    3.5679   30.0961 C   0  0  0  0  0  0  0  0  0  0  0  0
  5  7  1  0
  1  2  2  0
  2  4  1  0
  4  5  2  0
  5  6  1  0
  6  3  2  0
  3  1  1  0
  7  8  2  0
  8  9  1  0
  9 10  2  0
 10 11  1  0
 11 12  2  0
 12  7  1  0
M  END
$$$$
