No_4663-complexes_sdf/6BKW-FPZ/2024-09-17-14-21-01/
     RDKit          3D

 13 14  0  0  0  0  0  0  0  0999 V2000
   -7.9040    3.9820   27.1177 C   0  0  0  0  0  0  0  0  0  0  0  0
   -7.8663    4.8694   27.9238 C   0  0  0  0  0  0  0  0  0  0  0  0
   -9.0501    3.8017   26.2617 C   0  0  0  0  0  0  0  0  0  0  0  0
   -9.1826    2.7026   25.3575 C   0  0  0  0  0  0  0  0  0  0  0  0
   -8.6940    6.0131   27.8614 C   0  0  0  0  0  0  0  0  0  0  0  0
   -9.9755    4.8547   26.2361 C   0  0  0  0  0  0  0  0  0  0  0  0
   -9.7463    5.9398   27.0364 C   0  0  0  0  0  0  0  0  0  0  0  0
  -10.1068    2.7543   24.3357 C   0  0  0  0  0  0  0  0  0  0  0  0
  -10.9412    3.9321   24.2588 C   0  0  0  0  0  0  0  0  0  0  0  0
  -10.8832    4.8692   25.1581 C   0  0  0  0  0  0  0  0  0  0  0  0
  -11.9497    3.8836   23.1729 C   0  0  0  0  0  0  0  0  0  0  0  0
  -13.1600    3.7015   23.2315 C   0  0  0  0  0  0  0  0  0  0  0  0
  -14.0536    3.7567   22.1276 C   0  0  0  0  0  0  0  0  0  0  0  0
  9 11  1  0
 11 12  2  3
 12 13  1  0
  3  4  2  0
  4  8  1  0
  8  9  2  0
  9 10  1  0
 10  6  2  0
  1  2  2  0
  2  5  1  0
  5  7  2  0
  7  6  1  0
  6  3  1  0
  3  1  1  0
M  END
$$$$
