No_4042-complexes_sdf/6BKW-FPZ/2024-09-17-14-21-01/
     RDKit          3D

 11 12  0  0  0  0  0  0  0  0999 V2000
   -7.7129    4.2099   27.0854 C   0  0  0  0  0  0  0  0  0  0  0  0
   -8.2112    3.0637   26.9225 C   0  0  0  0  0  0  0  0  0  0  0  0
   -8.4224    5.2106   27.8516 C   0  0  0  0  0  0  0  0  0  0  0  0
   -7.4917    1.9381   26.3986 C   0  0  0  0  0  0  0  0  0  0  0  0
   -9.6291    5.2986   27.5490 C   0  0  0  0  0  0  0  0  0  0  0  0
   -9.6651    2.9994   26.8968 C   0  0  0  0  0  0  0  0  0  0  0  0
  -10.3931    4.1095   27.3551 C   0  0  0  0  0  0  0  0  0  0  0  0
   -8.0959    0.8360   25.8341 C   0  0  0  0  0  0  0  0  0  0  0  0
  -10.3120    1.8179   26.5361 C   0  0  0  0  0  0  0  0  0  0  0  0
   -9.5220    0.7148   26.0416 C   0  0  0  0  0  0  0  0  0  0  0  0
  -11.8268    4.0432   27.5272 C   0  0  0  0  0  0  0  0  0  0  0  0
  7 11  1  0
  2  4  1  0
  4  8  2  0
  8 10  1  0
 10  9  2  0
  9  6  1  0
  1  2  2  0
  2  6  1  0
  6  7  2  0
  7  5  1  0
  5  3  2  0
  3  1  1  0
M  END
$$$$
