No_411-complexes_sdf/6BKW-FPZ/2024-09-17-14-21-01/
     RDKit          3D

 28 31  0  0  0  0  0  0  0  0999 V2000
   -7.2496    3.8871   27.4508 C   0  0  0  0  0  0  0  0  0  0  0  0
   -8.5096    4.0291   27.2770 C   0  0  0  0  0  0  0  0  0  0  0  0
   -9.3502    2.8685   26.8763 C   0  0  0  0  0  0  0  0  0  0  0  0
   -6.6288    2.5513   27.4938 C   0  0  0  0  0  0  0  0  0  0  0  0
   -5.3133    2.3438   27.8471 C   0  0  0  0  0  0  0  0  0  0  0  0
   -8.7952    1.6252   26.9034 C   0  0  0  0  0  0  0  0  0  0  0  0
   -7.4540    1.4474   27.2751 C   0  0  0  0  0  0  0  0  0  0  0  0
   -9.1125    5.3963   27.1565 C   0  0  0  0  0  0  0  0  0  0  0  0
   -8.3377    6.4949   26.7873 C   0  0  0  0  0  0  0  0  0  0  0  0
   -4.7305    1.0438   28.0026 C   0  0  0  0  0  0  0  0  0  0  0  0
   -5.6138   -0.0429   27.7073 C   0  0  0  0  0  0  0  0  0  0  0  0
   -6.9163    0.1471   27.3855 C   0  0  0  0  0  0  0  0  0  0  0  0
   -8.5714    7.8336   27.1312 C   0  0  0  0  0  0  0  0  0  0  0  0
   -3.3675    0.9055   28.4152 C   0  0  0  0  0  0  0  0  0  0  0  0
   -2.6144   -0.0665   27.6257 C   0  0  0  0  0  0  0  0  0  0  0  0
   -1.8788   -0.7779   27.9652 C   0  0  0  0  0  0  0  0  0  0  0  0
   -1.0328   -1.6190   27.0713 C   0  0  0  0  0  0  0  0  0  0  0  0
   -1.4205   -1.6432   25.7660 C   0  0  0  0  0  0  0  0  0  0  0  0
   -2.7788    0.0342   26.1050 C   0  0  0  0  0  0  0  0  0  0  0  0
   -2.3152   -0.8689   25.4649 N   0  0  0  0  0  0  0  0  0  0  0  0
  -10.4732    5.5314   27.4752 C   0  0  0  0  0  0  0  0  0  0  0  0
   -7.7889   -1.0178   27.2026 C   0  0  0  0  0  0  0  0  0  0  0  0
   -7.2263   -2.1946   26.9617 C   0  0  0  0  0  0  0  0  0  0  0  0
   -8.0617   -3.2897   26.7372 C   0  0  0  0  0  0  0  0  0  0  0  0
   -9.4155   -3.0775   26.6953 C   0  0  0  0  0  0  0  0  0  0  0  0
   -9.9841   -1.8311   26.9282 C   0  0  0  0  0  0  0  0  0  0  0  0
   -9.1642   -0.7929   27.2113 C   0  0  0  0  0  0  0  0  0  0  0  0
   -9.6898    0.5432   26.9097 C   0  0  0  0  0  0  0  0  0  0  0  0
  2  8  1  0
  8  9  1  0
  9 13  2  0
 10 14  1  0
 14 15  1  0
  8 21  1  0
 12 22  1  0
 27 28  1  0
  1  2  2  0
  2  3  1  0
  3  6  2  0
  6  7  1  0
  4  1  1  0
  4  5  2  0
  5 10  1  0
 10 11  2  0
 11 12  1  0
 12  7  2  0
  7  4  1  0
 22 23  2  0
 23 24  1  0
 24 25  2  0
 25 26  1  0
 26 27  2  0
 27 22  1  0
 15 16  2  0
 16 17  1  0
 17 18  2  0
 18 20  1  0
 20 19  2  0
 19 15  1  0
M  END
$$$$
