No_4832-complexes_sdf/6BKW-FPZ/2024-09-17-14-21-01/
     RDKit          3D

 21 23  0  0  0  0  0  0  0  0999 V2000
   -7.9040    3.9820   27.1177 C   0  0  0  0  0  0  0  0  0  0  0  0
   -8.2057    2.8231   26.8733 C   0  0  0  0  0  0  0  0  0  0  0  0
   -8.7695    5.0740   26.7916 C   0  0  0  0  0  0  0  0  0  0  0  0
   -9.9618    4.7598   26.1630 C   0  0  0  0  0  0  0  0  0  0  0  0
   -7.3763    1.7038   27.3414 C   0  0  0  0  0  0  0  0  0  0  0  0
   -9.4134    2.4504   26.3004 C   0  0  0  0  0  0  0  0  0  0  0  0
  -10.2558    3.4522   25.9218 C   0  0  0  0  0  0  0  0  0  0  0  0
   -6.1822    1.9617   27.8766 N   0  0  0  0  0  0  0  0  0  0  0  0
   -5.3434    0.8891   28.2322 C   0  0  0  0  0  0  0  0  0  0  0  0
   -7.6195    0.3742   27.1604 C   0  0  0  0  0  0  0  0  0  0  0  0
   -6.8594   -0.6355   27.5518 C   0  0  0  0  0  0  0  0  0  0  0  0
   -5.6392   -0.3384   28.1347 C   0  0  0  0  0  0  0  0  0  0  0  0
   -8.3988    6.5025   27.0464 C   0  0  0  0  0  0  0  0  0  0  0  0
   -7.9425    7.6139   26.9997 N   0  0  0  0  0  0  0  0  0  0  0  0
   -4.0718    1.3640   28.8007 N   0  0  0  0  0  0  0  0  0  0  0  0
   -4.5793   -1.2151   28.6230 C   0  0  0  0  0  0  0  0  0  0  0  0
   -3.4659   -0.8826   29.1545 C   0  0  0  0  0  0  0  0  0  0  0  0
   -3.1965    0.5411   29.2510 C   0  0  0  0  0  0  0  0  0  0  0  0
   -2.4893   -1.8316   29.6639 C   0  0  0  0  0  0  0  0  0  0  0  0
   -2.6009   -2.3711   30.7162 O   0  0  0  0  0  0  0  0  0  0  0  0
   -1.2759   -1.7444   29.1220 O   0  0  0  0  0  0  0  0  0  0  0  0
  2  5  1  0
  3 13  1  0
 13 14  3  0
 17 19  1  0
 19 20  1  0
 19 21  2  0
  1  2  2  0
  2  6  1  0
  6  7  2  0
  7  4  1  0
  4  3  2  0
  3  1  1  0
 12 16  2  0
 16 17  1  0
 17 18  2  0
 18 15  1  0
 15  9  2  0
  5  8  2  0
  8  9  1  0
  9 12  1  0
 12 11  1  0
 11 10  2  0
 10  5  1  0
M  END
$$$$
