No_4945-complexes_sdf/6BKW-FPZ/2024-09-17-14-21-01/
     RDKit          3D

 27 29  0  0  0  0  0  0  0  0999 V2000
   -7.7129    4.2099   27.0854 C   0  0  0  0  0  0  0  0  0  0  0  0
   -8.2112    3.0637   26.9225 C   0  0  0  0  0  0  0  0  0  0  0  0
   -8.4224    5.2106   27.8516 C   0  0  0  0  0  0  0  0  0  0  0  0
   -9.5628    2.7160   27.4089 C   0  0  0  0  0  0  0  0  0  0  0  0
  -10.2639    3.7034   28.1156 C   0  0  0  0  0  0  0  0  0  0  0  0
   -9.7059    4.9514   28.3169 C   0  0  0  0  0  0  0  0  0  0  0  0
  -11.6346    3.5858   28.6624 C   0  0  0  0  0  0  0  0  0  0  0  0
  -12.6920    4.2026   28.1801 C   0  0  0  0  0  0  0  0  0  0  0  0
  -13.9752    4.0714   28.6926 C   0  0  0  0  0  0  0  0  0  0  0  0
  -14.1680    3.2038   29.7738 C   0  0  0  0  0  0  0  0  0  0  0  0
  -13.1289    2.4336   30.2463 C   0  0  0  0  0  0  0  0  0  0  0  0
  -11.8756    2.5779   29.7099 C   0  0  0  0  0  0  0  0  0  0  0  0
  -10.0916    1.3703   27.2254 C   0  0  2  0  0  0  0  0  0  0  0  0
   -9.3269    0.3374   27.5435 C   0  0  0  0  0  0  0  0  0  0  0  0
  -11.3346    1.2236   26.6091 C   0  0  0  0  0  0  0  0  0  0  0  0
   -7.9807    0.1640   27.3621 C   0  0  0  0  0  0  0  0  0  0  0  0
   -7.2143   -0.9272   27.7615 C   0  0  0  0  0  0  0  0  0  0  0  0
   -5.8148   -0.8729   27.6753 C   0  0  0  0  0  0  0  0  0  0  0  0
   -5.1621    0.3605   27.3131 C   0  0  0  0  0  0  0  0  0  0  0  0
   -3.7491    0.4509   27.4127 C   0  0  0  0  0  0  0  0  0  0  0  0
   -3.1528    1.6507   27.6000 C   0  0  0  0  0  0  0  0  0  0  0  0
   -3.0057   -0.7577   27.1711 C   0  0  0  0  0  0  0  0  0  0  0  0
   -3.6278   -1.9967   27.2871 C   0  0  0  0  0  0  0  0  0  0  0  0
   -5.0318   -2.0424   27.5315 C   0  0  0  0  0  0  0  0  0  0  0  0
  -12.1268    0.2436   26.8853 N   0  0  0  0  0  0  0  0  0  0  0  0
  -13.4264    0.1383   26.7960 C   0  0  0  0  0  0  0  0  0  0  0  0
  -14.0437   -0.9886   27.3601 C   0  0  0  0  0  0  0  0  0  0  0  0
  5  7  1  0
  4 13  1  0
 13 14  1  0
 13 15  1  6
 14 16  2  3
 16 17  1  0
 15 25  1  0
 25 26  1  0
 26 27  2  0
 17 18  1  0
 21 20  1  0
  1  2  2  0
  2  4  1  0
  4  5  2  0
  5  6  1  0
  6  3  2  0
  3  1  1  0
 18 19  2  0
 19 20  1  0
 20 22  2  0
 22 23  1  0
 23 24  2  0
 24 18  1  0
  7  8  2  0
  8  9  1  0
  9 10  2  0
 10 11  1  0
 11 12  2  0
 12  7  1  0
M  END
$$$$
