No_490-complexes_sdf/6BKW-FPZ/2024-09-17-14-21-01/
     RDKit          3D

 21 23  0  0  0  0  0  0  0  0999 V2000
   -7.9040    3.9820   27.1177 C   0  0  0  0  0  0  0  0  0  0  0  0
   -7.8663    4.8694   27.9238 C   0  0  0  0  0  0  0  0  0  0  0  0
   -9.0491    3.8523   26.2542 C   0  0  0  0  0  0  0  0  0  0  0  0
   -8.7661    5.9491   27.9690 C   0  0  0  0  0  0  0  0  0  0  0  0
   -9.1798    2.6731   25.4786 C   0  0  0  0  0  0  0  0  0  0  0  0
   -9.8964    5.8854   27.1460 C   0  0  0  0  0  0  0  0  0  0  0  0
   -9.9958    4.8034   26.3470 C   0  0  0  0  0  0  0  0  0  0  0  0
   -8.6595    1.4511   25.8687 C   0  0  0  0  0  0  0  0  0  0  0  0
   -9.8202    2.7632   24.2146 C   0  0  0  0  0  0  0  0  0  0  0  0
   -8.7617    0.3264   25.0769 C   0  0  0  0  0  0  0  0  0  0  0  0
   -9.9373    1.6031   23.4253 C   0  0  0  0  0  0  0  0  0  0  0  0
   -9.3888    0.4177   23.8514 C   0  0  0  0  0  0  0  0  0  0  0  0
   -6.7327    5.1119   28.7387 O   0  0  0  0  0  0  0  0  0  0  0  0
  -10.5476    1.6648   22.2126 O   0  0  0  0  0  0  0  0  0  0  0  0
  -11.8488    1.7997   22.1240 C   0  0  0  0  0  0  0  0  0  0  0  0
  -12.3220    2.0475   20.9948 C   0  0  0  0  0  0  0  0  0  0  0  0
  -11.5664    2.1193   19.8483 C   0  0  0  0  0  0  0  0  0  0  0  0
  -12.0783    2.3907   18.5725 C   0  0  0  0  0  0  0  0  0  0  0  0
  -13.4522    2.5905   18.4065 C   0  0  0  0  0  0  0  0  0  0  0  0
  -14.2773    2.5772   19.4957 C   0  0  0  0  0  0  0  0  0  0  0  0
  -13.7675    2.3453   20.7170 C   0  0  0  0  0  0  0  0  0  0  0  0
  3  5  1  0
  2 13  1  0
 11 14  1  0
 14 15  1  0
 15 16  1  0
  1  2  2  0
  2  4  1  0
  4  6  2  0
  6  7  1  0
  7  3  2  0
  3  1  1  0
  5  8  2  0
  8 10  1  0
 10 12  2  0
 12 11  1  0
 11  9  2  0
  9  5  1  0
 16 17  2  0
 17 18  1  0
 18 19  2  0
 19 20  1  0
 20 21  2  0
 21 16  1  0
M  END
$$$$
