No_4990-complexes_sdf/6BKW-FPZ/2024-09-17-14-21-01/
     RDKit          3D

 28 31  0  0  0  0  0  0  0  0999 V2000
   -7.2496    3.8871   27.4508 C   0  0  0  0  0  0  0  0  0  0  0  0
   -7.6161    2.7143   27.1523 C   0  0  0  0  0  0  0  0  0  0  0  0
   -8.8302    2.4659   26.5056 C   0  0  0  0  0  0  0  0  0  0  0  0
   -8.1584    5.0090   27.3234 C   0  0  0  0  0  0  0  0  0  0  0  0
   -9.3788    4.7965   26.7695 C   0  0  0  0  0  0  0  0  0  0  0  0
   -9.7028    3.5649   26.3276 C   0  0  0  0  0  0  0  0  0  0  0  0
   -6.7182    1.5519   27.3631 C   0  0  0  0  0  0  0  0  0  0  0  0
   -7.0500    0.2083   27.2450 C   0  0  0  0  0  0  0  0  0  0  0  0
   -6.2063   -0.7601   27.5521 C   0  0  0  0  0  0  0  0  0  0  0  0
   -4.9394   -0.4352   28.1041 C   0  0  0  0  0  0  0  0  0  0  0  0
   -4.5672    0.8802   28.2862 C   0  0  0  0  0  0  0  0  0  0  0  0
   -5.4068    1.8597   27.9844 C   0  0  0  0  0  0  0  0  0  0  0  0
   -7.6942    6.3581   27.7806 C   0  0  0  0  0  0  0  0  0  0  0  0
  -11.0008    3.3427   25.6431 C   0  0  2  0  0  0  0  0  0  0  0  0
  -10.9832    3.2612   24.2947 C   0  0  0  0  0  0  0  0  0  0  0  0
  -10.3059    3.6235   23.5065 C   0  0  0  0  0  0  0  0  0  0  0  0
  -10.2967    3.5897   22.0493 C   0  0  0  0  0  0  0  0  0  0  0  0
  -11.2750    2.8397   21.4779 C   0  0  0  0  0  0  0  0  0  0  0  0
  -12.1947    2.2449   22.3545 C   0  0  0  0  0  0  0  0  0  0  0  0
  -12.1275    2.4583   23.6785 C   0  0  0  0  0  0  0  0  0  0  0  0
  -12.1347    3.4021   26.5223 C   0  0  0  0  0  0  0  0  0  0  0  0
  -12.2254    3.4600   27.7009 C   0  0  0  0  0  0  0  0  0  0  0  0
  -13.4153    3.6656   28.4807 C   0  0  0  0  0  0  0  0  0  0  0  0
  -13.4049    3.7862   29.9287 C   0  0  0  0  0  0  0  0  0  0  0  0
  -14.5380    3.9458   30.6535 C   0  0  0  0  0  0  0  0  0  0  0  0
  -15.7158    4.2091   29.9580 C   0  0  0  0  0  0  0  0  0  0  0  0
  -15.7499    4.1801   28.6035 C   0  0  0  0  0  0  0  0  0  0  0  0
  -14.6168    3.9773   27.8431 C   0  0  0  0  0  0  0  0  0  0  0  0
  2  7  1  0
  4 13  1  0
  6 14  1  0
 14 15  1  0
 14 21  1  6
 21 22  1  0
 22 23  1  0
 15 16  2  0
 16 17  1  0
 17 18  2  0
 18 19  1  0
 19 20  2  0
 20 15  1  0
 23 24  2  0
 24 25  1  0
 25 26  2  0
 26 27  1  0
 27 28  2  0
 28 23  1  0
  1  2  2  0
  2  3  1  0
  3  6  2  0
  6  5  1  0
  5  4  2  0
  4  1  1  0
  7  8  2  0
  8  9  1  0
  9 10  2  0
 10 11  1  0
 11 12  2  0
 12  7  1  0
M  END
$$$$
