No_421-complexes_sdf/6BKW-FPZ/2024-09-17-14-21-01/
     RDKit          3D

 28 30  0  0  0  0  0  0  0  0999 V2000
   -7.9040    3.9820   27.1177 C   0  0  0  0  0  0  0  0  0  0  0  0
   -8.2057    2.8231   26.8733 C   0  0  0  0  0  0  0  0  0  0  0  0
   -7.4766    1.7477   27.4593 C   0  0  2  0  0  0  0  0  0  0  0  0
   -8.7468    5.1251   26.6967 C   0  0  0  0  0  0  0  0  0  0  0  0
   -9.7234    4.8589   25.8202 C   0  0  0  0  0  0  0  0  0  0  0  0
   -9.9711    3.5858   25.4266 C   0  0  0  0  0  0  0  0  0  0  0  0
   -9.2266    2.4957   25.9600 C   0  0  0  0  0  0  0  0  0  0  0  0
   -6.1241    1.9216   27.8574 C   0  0  0  0  0  0  0  0  0  0  0  0
   -5.3476    0.8215   28.3513 C   0  0  0  0  0  0  0  0  0  0  0  0
   -5.8615   -0.4216   28.3746 C   0  0  0  0  0  0  0  0  0  0  0  0
   -7.9768    0.5207   27.4378 F   0  0  0  0  0  0  0  0  0  0  0  0
   -5.1068   -1.4794   28.9341 C   0  0  0  0  0  0  0  0  0  0  0  0
   -3.8604   -1.1175   29.4990 C   0  0  0  0  0  0  0  0  0  0  0  0
   -3.3458    0.1539   29.4457 C   0  0  0  0  0  0  0  0  0  0  0  0
   -4.0502    1.1667   28.9288 C   0  0  0  0  0  0  0  0  0  0  0  0
   -8.4154    6.5091   27.1138 C   0  0  0  0  0  0  0  0  0  0  0  0
   -7.3733    6.8715   26.9513 F   0  0  0  0  0  0  0  0  0  0  0  0
   -8.8647    6.6021   28.5053 F   0  0  0  0  0  0  0  0  0  0  0  0
   -9.2752    7.3917   26.4506 F   0  0  0  0  0  0  0  0  0  0  0  0
   -2.9339   -2.4297   30.2213 Cl  0  0  0  0  0  0  0  0  0  0  0  0
  -11.1063    3.2290   24.5869 C   0  0  0  0  0  0  0  0  0  0  0  0
  -10.8768    2.7517   23.4044 C   0  0  0  0  0  0  0  0  0  0  0  0
  -10.3163    1.8526   23.0122 C   0  0  0  0  0  0  0  0  0  0  0  0
  -10.0779    1.3668   21.6302 C   0  0  0  0  0  0  0  0  0  0  0  0
   -9.3354    0.2357   21.2753 C   0  0  0  0  0  0  0  0  0  0  0  0
   -8.7449   -0.5226   22.3492 C   0  0  0  0  0  0  0  0  0  0  0  0
   -8.8650   -0.1893   23.6422 C   0  0  0  0  0  0  0  0  0  0  0  0
   -9.5760    0.9895   23.9708 C   0  0  0  0  0  0  0  0  0  0  0  0
  2  3  1  0
  3  8  1  0
  3 11  1  6
  4 16  1  0
 16 17  1  0
 16 18  1  0
 16 19  1  0
 13 20  1  0
  6 21  1  0
 21 22  1  0
  8  9  1  0
 22 23  1  0
 23 24  2  0
 24 25  1  0
 25 26  2  0
 26 27  1  0
 27 28  2  0
 28 23  1  0
  9 10  2  0
 10 12  1  0
 12 13  2  0
 13 14  1  0
 14 15  2  0
 15  9  1  0
  1  2  2  0
  2  7  1  0
  7  6  2  0
  6  5  1  0
  5  4  2  0
  4  1  1  0
M  END
$$$$
