No_4310-complexes_sdf/6BKW-FPZ/2024-09-17-14-21-01/
     RDKit          3D

 19 21  0  0  0  0  0  0  0  0999 V2000
   -7.7129    4.2099   27.0854 C   0  0  0  0  0  0  0  0  0  0  0  0
   -8.2112    3.0637   26.9225 C   0  0  0  0  0  0  0  0  0  0  0  0
   -7.0021    4.5281   28.2396 C   0  0  0  0  0  0  0  0  0  0  0  0
   -9.4237    2.7810   26.2714 C   0  0  0  0  0  0  0  0  0  0  0  0
   -9.8781    3.7859   25.4663 C   0  0  0  0  0  0  0  0  0  0  0  0
   -9.3689    5.0975   25.5965 C   0  0  0  0  0  0  0  0  0  0  0  0
   -8.4784    5.3402   26.5448 C   0  0  0  0  0  0  0  0  0  0  0  0
  -10.9798    3.5389   24.5162 C   0  0  0  0  0  0  0  0  0  0  0  0
  -10.8020    3.9004   23.2347 C   0  0  0  0  0  0  0  0  0  0  0  0
  -12.1310    2.9282   24.9142 C   0  0  0  0  0  0  0  0  0  0  0  0
  -11.6246    3.6445   22.1603 C   0  0  0  0  0  0  0  0  0  0  0  0
  -12.3927    2.5499   26.1709 C   0  0  0  0  0  0  0  0  0  0  0  0
  -13.6196    2.0507   26.5696 C   0  0  0  0  0  0  0  0  0  0  0  0
  -12.8399    3.0669   22.5619 C   0  0  0  0  0  0  0  0  0  0  0  0
  -13.1209    2.7562   23.8509 C   0  0  0  0  0  0  0  0  0  0  0  0
  -13.8234    1.9938   27.9847 C   0  0  0  0  0  0  0  0  0  0  0  0
  -13.0681    2.4965   28.7794 C   0  0  0  0  0  0  0  0  0  0  0  0
  -12.0657    3.1700   28.4674 C   0  0  0  0  0  0  0  0  0  0  0  0
  -11.9015    3.7663   27.2163 C   0  0  0  0  0  0  0  0  0  0  0  0
  1  2  1  0
  1  3  2  0
  2  4  1  0
  4  5  1  0
  5  6  1  0
  1  7  1  0
  6  7  1  0
  5  8  1  0
  8  9  1  0
  8 10  1  0
  9 11  1  0
 10 12  1  0
 11 14  1  0
 10 15  1  0
 14 15  1  0
 12 13  2  0
 13 16  1  0
 16 17  2  0
 17 18  1  0
 18 19  2  0
 19 12  1  0
M  END
$$$$
