No_4001-complexes_sdf/6BKW-FPZ/2024-09-17-14-21-01/
     RDKit          3D

 25 29  0  0  0  0  0  0  0  0999 V2000
   -7.2496    3.8871   27.4508 C   0  0  0  0  0  0  0  0  0  0  0  0
   -7.9379    4.9063   27.8518 C   0  0  0  0  0  0  0  0  0  0  0  0
   -8.9501    5.3664   27.1340 C   0  0  0  0  0  0  0  0  0  0  0  0
   -6.1760    3.3069   28.2733 C   0  0  0  0  0  0  0  0  0  0  0  0
   -9.4085    4.7897   25.9343 C   0  0  0  0  0  0  0  0  0  0  0  0
   -8.7240    3.6012   25.5494 C   0  0  0  0  0  0  0  0  0  0  0  0
   -7.7568    3.1254   26.3556 C   0  0  0  0  0  0  0  0  0  0  0  0
   -5.5882    2.0365   27.9387 C   0  0  0  0  0  0  0  0  0  0  0  0
   -4.4009    1.6511   28.5745 C   0  0  0  0  0  0  0  0  0  0  0  0
   -3.9686    0.3856   28.2385 C   0  0  0  0  0  0  0  0  0  0  0  0
   -4.5906   -0.4275   27.3276 C   0  0  0  0  0  0  0  0  0  0  0  0
   -6.0717    1.0494   27.0700 C   0  0  0  0  0  0  0  0  0  0  0  0
   -5.6682   -0.0605   26.7418 C   0  0  0  0  0  0  0  0  0  0  0  0
   -7.2376    1.8063   26.1030 N   0  0  0  0  0  0  0  0  0  0  0  0
   -7.9076    0.9085   25.2308 C   0  0  0  0  0  0  0  0  0  0  0  0
   -7.2515    0.0696   24.4971 C   0  0  0  0  0  0  0  0  0  0  0  0
   -6.2596   -0.7855   25.4377 C   0  0  1  0  0  0  0  0  0  0  0  0
   -2.5893   -0.2094   29.2107 Cl  0  0  0  0  0  0  0  0  0  0  0  0
   -9.5630    6.6167   27.4341 F   0  0  0  0  0  0  0  0  0  0  0  0
   -5.6800   -1.9406   24.9974 C   0  0  0  0  0  0  0  0  0  0  0  0
   -6.4981   -3.0759   25.1927 C   0  0  0  0  0  0  0  0  0  0  0  0
   -5.9717   -4.2420   24.8620 C   0  0  0  0  0  0  0  0  0  0  0  0
   -4.6594   -4.3570   24.2662 C   0  0  0  0  0  0  0  0  0  0  0  0
   -3.8887   -3.2402   24.1768 C   0  0  0  0  0  0  0  0  0  0  0  0
   -4.3512   -1.9858   24.5696 C   0  0  0  0  0  0  0  0  0  0  0  0
  1  4  1  0
  7 14  1  0
 12 14  1  0
 14 15  1  0
 13 17  1  0
 16 17  1  0
 10 18  1  0
  3 19  1  0
 17 20  1  6
 16 15  1  0
  4  8  1  0
  1  2  2  0
  2  3  1  0
  3  5  2  0
  5  6  1  0
  6  7  2  0
  7  1  1  0
 20 21  2  0
 21 22  1  0
 22 23  2  0
 23 24  1  0
 24 25  2  0
 25 20  1  0
  8  9  2  0
  9 10  1  0
 10 11  2  0
 11 13  1  0
 13 12  2  0
 12  8  1  0
M  END
$$$$
