No_4189-complexes_sdf/6BKW-FPZ/2024-09-17-14-21-01/
     RDKit          3D

 28 30  0  0  0  0  0  0  0  0999 V2000
   -7.7129    4.2099   27.0854 C   0  0  0  0  0  0  0  0  0  0  0  0
   -8.2112    3.0637   26.9225 C   0  0  0  0  0  0  0  0  0  0  0  0
   -7.0021    4.5281   28.2396 C   0  0  0  0  0  0  0  0  0  0  0  0
   -9.4237    2.7810   26.2714 C   0  0  0  0  0  0  0  0  0  0  0  0
   -9.8781    3.7859   25.4663 C   0  0  0  0  0  0  0  0  0  0  0  0
   -9.3689    5.0975   25.5965 C   0  0  0  0  0  0  0  0  0  0  0  0
   -8.4784    5.3402   26.5448 C   0  0  0  0  0  0  0  0  0  0  0  0
  -10.9887    3.5347   24.5135 C   0  0  0  0  0  0  0  0  0  0  0  0
  -12.1661    3.1796   24.9300 C   0  0  0  0  0  0  0  0  0  0  0  0
  -10.7292    3.7017   23.1279 C   0  0  0  0  0  0  0  0  0  0  0  0
  -11.5970    3.5024   22.1235 C   0  0  0  0  0  0  0  0  0  0  0  0
  -13.2094    2.9510   23.9353 C   0  0  0  0  0  0  0  0  0  0  0  0
  -12.9029    3.1460   22.5950 C   0  0  0  0  0  0  0  0  0  0  0  0
   -7.6190    1.8401   27.6265 C   0  0  0  0  0  0  0  0  0  0  0  0
   -6.2151    1.5993   27.3156 C   0  0  0  0  0  0  0  0  0  0  0  0
   -5.6193    0.4482   27.9019 C   0  0  0  0  0  0  0  0  0  0  0  0
   -6.3725   -0.6498   28.2659 C   0  0  0  0  0  0  0  0  0  0  0  0
   -7.8079   -0.4852   28.1694 C   0  0  0  0  0  0  0  0  0  0  0  0
   -8.3643    0.6710   27.7610 C   0  0  0  0  0  0  0  0  0  0  0  0
   -4.1362    0.3341   27.9824 C   0  0  0  0  0  0  0  0  0  0  0  0
   -3.6239    0.2694   29.0056 O   0  0  0  0  0  0  0  0  0  0  0  0
   -3.5196    0.5842   26.9068 F   0  0  0  0  0  0  0  0  0  0  0  0
  -12.5653    3.0396   26.3298 C   0  0  0  0  0  0  0  0  0  0  0  0
  -13.1016    3.3029   27.1547 C   0  0  0  0  0  0  0  0  0  0  0  0
  -13.0597    2.7587   28.4481 C   0  0  0  0  0  0  0  0  0  0  0  0
  -13.4346    3.3408   29.7092 C   0  0  0  0  0  0  0  0  0  0  0  0
  -14.1831    4.5532   29.5523 C   0  0  0  0  0  0  0  0  0  0  0  0
  -14.3195    5.1909   28.3409 C   0  0  0  0  0  0  0  0  0  0  0  0
  5  8  1  0
  2 14  1  0
 16 20  1  0
 20 21  2  0
 20 22  1  0
  9 23  1  0
 23 24  3  0
 24 25  1  0
 25 26  2  3
 26 27  1  0
 27 28  2  0
  3  1  1  0
 14 15  2  0
 15 16  1  0
 16 17  2  0
 17 18  1  0
 18 19  2  0
 19 14  1  0
  8  9  2  0
  9 12  1  0
 12 13  2  0
 13 11  1  0
 11 10  2  0
 10  8  1  0
  1  2  2  0
  2  4  1  0
  4  5  2  0
  5  6  1  0
  6  7  2  0
  7  1  1  0
M  END
$$$$
