No_4169-complexes_sdf/6BKW-FPZ/2024-09-17-14-21-01/
     RDKit          3D

 40 45  0  0  0  0  0  0  0  0999 V2000
   -7.2496    3.8871   27.4508 C   0  0  0  0  0  0  0  0  0  0  0  0
   -7.9379    4.9063   27.8518 C   0  0  0  0  0  0  0  0  0  0  0  0
   -8.7729    5.5444   27.0168 C   0  0  0  0  0  0  0  0  0  0  0  0
   -6.2858    3.2138   28.3467 C   0  0  0  0  0  0  0  0  0  0  0  0
   -9.2459    4.9714   25.8185 C   0  0  0  0  0  0  0  0  0  0  0  0
   -8.7245    3.6550   25.5132 C   0  0  0  0  0  0  0  0  0  0  0  0
   -7.8326    3.1219   26.4052 C   0  0  0  0  0  0  0  0  0  0  0  0
   -5.6873    1.9697   27.9543 C   0  0  0  0  0  0  0  0  0  0  0  0
   -4.5740    1.4852   28.6364 C   0  0  0  0  0  0  0  0  0  0  0  0
   -4.0814    0.2839   28.2880 C   0  0  0  0  0  0  0  0  0  0  0  0
   -4.6252   -0.4581   27.2480 C   0  0  0  0  0  0  0  0  0  0  0  0
   -5.7138   -0.0054   26.5511 C   0  0  0  0  0  0  0  0  0  0  0  0
   -6.2417    1.2362   26.8913 C   0  0  0  0  0  0  0  0  0  0  0  0
   -7.3353    1.8347   26.0664 N   0  0  0  0  0  0  0  0  0  0  0  0
   -2.7020   -0.3575   29.1954 Cl  0  0  0  0  0  0  0  0  0  0  0  0
   -8.2755    0.9652   25.4426 C   0  0  0  0  0  0  0  0  0  0  0  0
   -9.0428    0.2270   26.2603 C   0  0  0  0  0  0  0  0  0  0  0  0
   -9.3586    0.0394   27.1983 C   0  0  0  0  0  0  0  0  0  0  0  0
  -10.3636   -0.9695   27.6810 C   0  0  0  0  0  0  0  0  0  0  0  0
  -10.7522   -1.6477   26.6295 C   0  0  0  0  0  0  0  0  0  0  0  0
   -9.9434   -0.9105   25.4836 C   0  0  0  0  0  0  0  0  0  0  0  0
   -9.3115    7.2155   27.3553 Cl  0  0  0  0  0  0  0  0  0  0  0  0
  -11.6669   -2.6149   26.4182 C   0  0  0  0  0  0  0  0  0  0  0  0
  -11.9073   -3.1293   25.3113 C   0  0  0  0  0  0  0  0  0  0  0  0
  -12.8998   -4.2111   25.1766 C   0  0  0  0  0  0  0  0  0  0  0  0
  -13.5511   -4.5934   26.3337 C   0  0  0  0  0  0  0  0  0  0  0  0
  -13.2786   -4.0148   27.5333 C   0  0  0  0  0  0  0  0  0  0  0  0
  -12.3240   -2.9872   27.6856 C   0  0  0  0  0  0  0  0  0  0  0  0
  -14.0095   -4.4571   28.7752 C   0  0  0  0  0  0  0  0  0  0  0  0
  -14.8868   -4.9951   28.9278 C   0  0  0  0  0  0  0  0  0  0  0  0
  -15.5113   -5.3715   30.2171 C   0  0  0  0  0  0  0  0  0  0  0  0
  -14.8753   -4.9426   31.3777 C   0  0  0  0  0  0  0  0  0  0  0  0
  -13.7215   -4.2073   31.2776 C   0  0  0  0  0  0  0  0  0  0  0  0
  -13.2122   -3.8810   30.0752 C   0  0  0  0  0  0  0  0  0  0  0  0
  -16.7100   -6.1731   30.2545 C   0  0  0  0  0  0  0  0  0  0  0  0
  -17.0931   -6.7588   31.1167 F   0  0  0  0  0  0  0  0  0  0  0  0
  -17.7157   -5.2969   29.7621 F   0  0  0  0  0  0  0  0  0  0  0  0
  -16.5574   -7.0672   29.1480 F   0  0  0  0  0  0  0  0  0  0  0  0
  -10.0035   -1.2293   24.1622 C   0  0  0  0  0  0  0  0  0  0  0  0
   -9.2402   -0.3647   23.2958 C   0  0  0  0  0  0  0  0  0  0  0  0
  1  4  1  0
  7 14  1  0
 13 14  1  0
 10 15  1  0
 14 16  1  0
 16 17  2  3
 17 18  1  0
 18 19  2  0
 19 20  1  0
 17 21  1  0
 20 21  2  0
  3 22  1  0
 20 23  1  0
 27 29  1  0
 31 35  1  0
 35 36  1  0
 35 37  1  0
 35 38  1  0
 21 39  1  0
 39 40  1  0
  4  8  1  0
 23 24  2  0
 24 25  1  0
 25 26  2  0
 26 27  1  0
 27 28  2  0
 28 23  1  0
  1  2  2  0
  2  3  1  0
  3  5  2  0
  5  6  1  0
  6  7  2  0
  7  1  1  0
 29 30  2  0
 30 31  1  0
 31 32  2  0
 32 33  1  0
 33 34  2  0
 34 29  1  0
  8  9  2  0
  9 10  1  0
 10 11  2  0
 11 12  1  0
 12 13  2  0
 13  8  1  0
M  END
$$$$
