No_4499-complexes_sdf/6BKW-FPZ/2024-09-17-14-21-01/
     RDKit          3D

 18 19  0  0  0  0  0  0  0  0999 V2000
   -7.9040    3.9820   27.1177 C   0  0  0  0  0  0  0  0  0  0  0  0
   -7.8663    4.8694   27.9238 C   0  0  0  0  0  0  0  0  0  0  0  0
   -9.0806    3.1428   27.1220 C   0  0  0  0  0  0  0  0  0  0  0  0
  -10.1072    3.3606   27.8219 C   0  0  0  0  0  0  0  0  0  0  0  0
   -6.6635    5.8014   27.8958 C   0  0  0  0  0  0  0  0  0  0  0  0
  -10.1022    4.6241   28.6708 C   0  0  0  0  0  0  0  0  0  0  0  0
   -9.0061    5.4280   28.6627 C   0  0  0  0  0  0  0  0  0  0  0  0
   -9.0161    1.8310   26.3174 C   0  0  1  0  0  0  0  0  0  0  0  0
   -9.2039    1.9592   24.9593 C   0  0  0  0  0  0  0  0  0  0  0  0
   -9.8282    3.1328   24.4971 C   0  0  0  0  0  0  0  0  0  0  0  0
  -10.4053    3.2625   23.1961 C   0  0  0  0  0  0  0  0  0  0  0  0
  -10.1625    2.2644   22.2747 C   0  0  0  0  0  0  0  0  0  0  0  0
   -9.1256    0.9063   24.0453 C   0  0  0  0  0  0  0  0  0  0  0  0
   -9.5433    1.0483   22.7204 C   0  0  0  0  0  0  0  0  0  0  0  0
   -8.5914    0.6184   26.9304 C   0  0  0  0  0  0  0  0  0  0  0  0
   -7.4030    0.2756   27.3428 C   0  0  0  0  0  0  0  0  0  0  0  0
   -6.9691   -0.9091   27.8652 C   0  0  0  0  0  0  0  0  0  0  0  0
   -7.9734   -1.8603   28.1115 C   0  0  0  0  0  0  0  0  0  0  0  0
  2  5  1  0
  8  3  1  6
  8  9  1  0
  8 15  1  0
 15 16  2  3
 16 17  1  0
 17 18  2  0
  9 10  2  0
 10 11  1  0
 11 12  2  0
 12 14  1  0
 14 13  2  0
 13  9  1  0
  1  2  2  0
  2  7  1  0
  7  6  2  0
  6  4  1  0
  4  3  2  0
  3  1  1  0
M  END
$$$$
