No_49-complexes_sdf/6BKW-FPZ/2024-09-17-14-21-01/
     RDKit          3D

 10 10  0  0  0  0  0  0  0  0999 V2000
   -7.2496    3.8871   27.4508 C   0  0  0  0  0  0  0  0  0  0  0  0
   -7.6161    2.7143   27.1523 C   0  0  0  0  0  0  0  0  0  0  0  0
   -8.6212    2.2239   26.4074 C   0  0  0  0  0  0  0  0  0  0  0  0
   -8.2742    4.8439   27.4315 C   0  0  0  0  0  0  0  0  0  0  0  0
   -9.5008    4.5360   26.8786 C   0  0  0  0  0  0  0  0  0  0  0  0
   -9.6715    3.2677   26.3980 C   0  0  0  0  0  0  0  0  0  0  0  0
   -7.9944    6.1286   27.8965 N   0  0  0  0  0  0  0  0  0  0  0  0
   -8.8412    0.9156   26.0224 C   0  0  0  0  0  0  0  0  0  0  0  0
   -8.8324   -0.1252   26.7538 C   0  0  0  0  0  0  0  0  0  0  0  0
   -8.9527   -1.1368   26.8758 C   0  0  0  0  0  0  0  0  0  0  0  0
  4  7  1  0
  3  8  1  0
  8  9  2  3
  9 10  1  0
  1  2  2  0
  2  3  1  0
  3  6  2  0
  6  5  1  0
  5  4  2  0
  4  1  1  0
M  END
$$$$
