No_4182-complexes_sdf/6BKW-FPZ/2024-09-17-14-21-01/
     RDKit          3D

 32 34  0  0  0  0  0  0  0  0999 V2000
   -7.9040    3.9820   27.1177 C   0  0  0  0  0  0  0  0  0  0  0  0
   -8.2057    2.8231   26.8733 C   0  0  0  0  0  0  0  0  0  0  0  0
   -8.7695    5.0740   26.7916 C   0  0  0  0  0  0  0  0  0  0  0  0
   -8.4337    6.4678   27.0913 C   0  0  0  0  0  0  0  0  0  0  0  0
   -9.3742    2.4311   26.2346 C   0  0  0  0  0  0  0  0  0  0  0  0
  -10.2395    3.4267   25.8887 C   0  0  0  0  0  0  0  0  0  0  0  0
   -9.9567    4.7548   26.1374 C   0  0  0  0  0  0  0  0  0  0  0  0
   -8.7531    7.4243   26.4062 N   0  0  0  0  0  0  0  0  0  0  0  0
   -7.5706    6.5402   28.0752 F   0  0  0  0  0  0  0  0  0  0  0  0
   -7.1012    1.5029   27.3608 Cl  0  0  0  0  0  0  0  0  0  0  0  0
  -11.4731    3.1231   25.1420 C   0  0  0  0  0  0  0  0  0  0  0  0
  -11.6612    3.6310   23.8516 C   0  0  0  0  0  0  0  0  0  0  0  0
  -10.5579    4.3762   23.2282 C   0  0  0  0  0  0  0  0  0  0  0  0
  -10.7182    4.8373   21.9093 C   0  0  0  0  0  0  0  0  0  0  0  0
  -11.9148    4.5582   21.2780 C   0  0  0  0  0  0  0  0  0  0  0  0
  -12.9644    3.8602   21.8358 C   0  0  0  0  0  0  0  0  0  0  0  0
  -12.8330    3.4151   23.1321 C   0  0  0  0  0  0  0  0  0  0  0  0
  -12.4315    2.3505   25.8040 C   0  0  0  0  0  0  0  0  0  0  0  0
  -13.4334    2.8095   26.4769 C   0  0  0  0  0  0  0  0  0  0  0  0
  -14.4121    2.0520   27.1055 C   0  0  0  0  0  0  0  0  0  0  0  0
  -12.3966    0.9720   25.5942 C   0  0  0  0  0  0  0  0  0  0  0  0
  -13.3139    0.1050   26.1817 C   0  0  0  0  0  0  0  0  0  0  0  0
  -14.3148    0.6883   26.9854 C   0  0  0  0  0  0  0  0  0  0  0  0
  -15.2425   -0.1764   27.5904 N   0  0  0  0  0  0  0  0  0  0  0  0
  -15.7097    0.1523   28.7673 C   0  0  0  0  0  0  0  0  0  0  0  0
  -15.6467   -1.3205   26.9536 C   0  0  0  0  0  0  0  0  0  0  0  0
  -15.7811   -0.3781   29.7058 C   0  0  0  0  0  0  0  0  0  0  0  0
  -14.6855   -1.1152   30.2611 C   0  0  0  0  0  0  0  0  0  0  0  0
  -13.4390   -0.8706   29.9662 C   0  0  0  0  0  0  0  0  0  0  0  0
  -12.2762   -1.6636   30.4452 C   0  0  0  0  0  0  0  0  0  0  0  0
  -12.1983   -2.6698   30.1751 C   0  0  0  0  0  0  0  0  0  0  0  0
  -13.4699   -3.4859   30.4098 C   0  0  0  0  0  0  0  0  0  0  0  0
  3  4  1  0
  4  8  2  0
  4  9  1  0
  2 10  1  0
  6 11  1  0
 11 18  1  0
 23 24  1  0
 24 25  1  0
 24 26  1  0
 25 27  2  3
 27 28  1  0
 28 29  2  3
 29 30  1  0
 30 31  2  3
 31 32  1  0
 11 12  1  0
 12 13  2  0
 13 14  1  0
 14 15  2  0
 15 16  1  0
 16 17  2  0
 17 12  1  0
  1  2  2  0
  2  5  1  0
  5  6  2  0
  6  7  1  0
  7  3  2  0
  3  1  1  0
 18 19  2  0
 19 20  1  0
 20 23  2  0
 23 22  1  0
 22 21  2  0
 21 18  1  0
M  END
$$$$
