No_4826-complexes_sdf/6BKW-FPZ/2024-09-17-14-21-01/
     RDKit          3D

 26 27  0  0  0  0  0  0  0  0999 V2000
   -7.2496    3.8871   27.4508 C   0  0  0  0  0  0  0  0  0  0  0  0
   -8.5096    4.0291   27.2770 C   0  0  0  0  0  0  0  0  0  0  0  0
   -9.3451    2.8786   26.9046 C   0  0  0  0  0  0  0  0  0  0  0  0
   -6.6065    2.5680   27.5073 C   0  0  0  0  0  0  0  0  0  0  0  0
   -7.4233    1.4858   27.2402 C   0  0  0  0  0  0  0  0  0  0  0  0
   -8.7362    1.6525   26.9989 C   0  0  0  0  0  0  0  0  0  0  0  0
   -8.9210    5.4790   27.2100 C   0  0  0  0  0  0  0  0  0  0  0  0
   -8.2013    6.4255   27.5038 N   0  0  0  0  0  0  0  0  0  0  0  0
  -10.1944    5.6347   26.9572 O   0  0  0  0  0  0  0  0  0  0  0  0
   -6.8079    0.1731   27.2622 C   0  0  0  0  0  0  0  0  0  0  0  0
   -5.5560    0.0145   27.7904 C   0  0  0  0  0  0  0  0  0  0  0  0
   -4.9211   -1.2607   27.8674 C   0  0  0  0  0  0  0  0  0  0  0  0
   -5.5719   -2.2801   27.2089 C   0  0  0  0  0  0  0  0  0  0  0  0
   -7.2530   -0.9962   26.7471 C   0  0  0  0  0  0  0  0  0  0  0  0
   -6.7419   -2.1556   26.6945 C   0  0  0  0  0  0  0  0  0  0  0  0
   -8.5290    7.8549   27.2267 C   0  0  0  0  0  0  0  0  0  0  0  0
   -3.5717   -1.3447   28.5422 C   0  0  0  0  0  0  0  0  0  0  0  0
   -2.5836   -0.9324   27.8421 C   0  0  0  0  0  0  0  0  0  0  0  0
   -3.4607   -1.8467   29.8704 C   0  0  0  0  0  0  0  0  0  0  0  0
   -4.1441   -1.2237   30.8830 C   0  0  1  0  0  0  0  0  0  0  0  0
   -4.0026    0.0237   31.2220 C   0  0  0  0  0  0  0  0  0  0  0  0
   -5.2918   -1.9650   31.4391 C   0  0  0  0  0  0  0  0  0  0  0  0
   -6.1568   -2.5541   30.8273 C   0  0  0  0  0  0  0  0  0  0  0  0
   -7.3071   -3.1715   31.4085 C   0  0  0  0  0  0  0  0  0  0  0  0
   -7.4715   -3.0369   32.7776 C   0  0  0  0  0  0  0  0  0  0  0  0
   -6.5714   -2.3465   33.5497 C   0  0  0  0  0  0  0  0  0  0  0  0
  2  7  1  0
  7  8  1  0
  7  9  2  0
  5 10  1  0
  8 16  1  0
 12 17  1  0
 17 18  1  0
 17 19  1  0
 19 20  1  0
 20 21  1  6
 20 22  1  0
 22 23  2  3
 23 24  1  0
 24 25  2  3
 25 26  1  0
  1  2  2  0
  2  3  1  0
  3  6  2  0
  6  5  1  0
  5  4  2  0
  4  1  1  0
 10 11  2  0
 11 12  1  0
 12 13  2  0
 13 15  1  0
 15 14  2  0
 14 10  1  0
M  END
$$$$
