No_443-complexes_sdf/6BKW-FPZ/2024-09-17-14-21-01/
     RDKit          3D

 17 17  0  0  0  0  0  0  0  0999 V2000
   -7.2496    3.8871   27.4508 C   0  0  0  0  0  0  0  0  0  0  0  0
   -8.5096    4.0291   27.2770 C   0  0  0  0  0  0  0  0  0  0  0  0
   -9.2677    5.1714   27.5773 C   0  0  0  0  0  0  0  0  0  0  0  0
   -9.2765    2.8248   26.8371 C   0  0  0  0  0  0  0  0  0  0  0  0
  -10.4623    3.0171   26.3236 C   0  0  0  0  0  0  0  0  0  0  0  0
  -10.6079    5.2706   27.2578 C   0  0  0  0  0  0  0  0  0  0  0  0
  -11.2590    4.1999   26.7166 C   0  0  0  0  0  0  0  0  0  0  0  0
   -6.5429    4.9253   27.9393 N   0  0  0  0  0  0  0  0  0  0  0  0
   -6.5880    2.7081   27.4159 N   0  0  0  0  0  0  0  0  0  0  0  0
   -5.3864    2.3029   27.9922 C   0  0  0  0  0  0  0  0  0  0  0  0
   -5.0262    0.9254   27.8401 C   0  0  0  0  0  0  0  0  0  0  0  0
   -3.6924    0.5891   28.1771 C   0  0  0  0  0  0  0  0  0  0  0  0
   -5.9590    0.0356   27.4052 C   0  0  0  0  0  0  0  0  0  0  0  0
   -3.2769   -0.7646   28.2108 C   0  0  0  0  0  0  0  0  0  0  0  0
   -5.5480   -1.3396   27.3848 C   0  0  0  0  0  0  0  0  0  0  0  0
   -4.2683   -1.7142   27.7546 C   0  0  0  0  0  0  0  0  0  0  0  0
   -6.6800   -2.4794   26.8509 Cl  0  0  0  0  0  0  0  0  0  0  0  0
  1  2  1  0
  1  8  2  0
  1  9  1  0
  9 10  1  0
 10 11  2  3
 11 12  1  0
 11 13  1  0
 12 14  2  3
 13 15  1  0
 14 16  1  0
 15 17  1  0
  2  3  2  0
  3  6  1  0
  6  7  2  0
  7  5  1  0
  5  4  2  0
  4  2  1  0
M  END
$$$$
