No_4541-complexes_sdf/6BKW-FPZ/2024-09-17-14-21-01/
     RDKit          3D

 24 27  0  0  0  0  0  0  0  0999 V2000
   -7.9040    3.9820   27.1177 C   0  0  0  0  0  0  0  0  0  0  0  0
   -7.8663    4.8694   27.9238 C   0  0  0  0  0  0  0  0  0  0  0  0
   -7.4698    2.6989   27.4277 C   0  0  0  0  0  0  0  0  0  0  0  0
   -7.9683    1.5964   26.8266 C   0  0  1  0  0  0  0  0  0  0  0  0
   -8.9447    1.7923   25.8533 C   0  0  0  0  0  0  0  0  0  0  0  0
   -9.4405    2.9988   25.5757 C   0  0  0  0  0  0  0  0  0  0  0  0
   -8.9424    4.1117   26.2388 C   0  0  0  0  0  0  0  0  0  0  0  0
   -8.2732    6.2141   27.6484 N   0  0  0  0  0  0  0  0  0  0  0  0
   -9.1540    6.5068   26.6734 C   0  0  0  0  0  0  0  0  0  0  0  0
   -9.5312    5.3927   25.9147 C   0  0  0  0  0  0  0  0  0  0  0  0
   -7.3926    0.2681   27.0981 C   0  0  0  0  0  0  0  0  0  0  0  0
   -6.0780    0.1119   27.4650 C   0  0  0  0  0  0  0  0  0  0  0  0
   -5.5514   -1.1190   27.8199 C   0  0  0  0  0  0  0  0  0  0  0  0
   -6.3961   -2.2031   27.7643 C   0  0  0  0  0  0  0  0  0  0  0  0
   -8.0015   -0.9961   27.1588 C   0  0  0  0  0  0  0  0  0  0  0  0
   -7.6245   -2.1221   27.4675 C   0  0  0  0  0  0  0  0  0  0  0  0
   -4.0927   -1.1491   28.2435 C   0  0  0  0  0  0  0  0  0  0  0  0
   -3.4375   -0.2877   27.8594 F   0  0  0  0  0  0  0  0  0  0  0  0
   -4.0707   -1.0501   29.6754 F   0  0  0  0  0  0  0  0  0  0  0  0
   -3.5525   -2.3373   28.0039 F   0  0  0  0  0  0  0  0  0  0  0  0
  -10.3887    3.0947   24.4570 C   0  0  0  0  0  0  0  0  0  0  0  0
  -10.3610    2.4105   23.4302 C   0  0  0  0  0  0  0  0  0  0  0  0
   -9.9297    1.1201   23.5003 C   0  0  0  0  0  0  0  0  0  0  0  0
   -9.1660    0.7955   24.7623 C   0  0  0  0  0  0  0  0  0  0  0  0
  1  3  1  0
  3  4  1  0
  4  5  1  0
  6  7  1  0
  4 11  1  6
 13 17  1  0
 17 18  1  0
 17 19  1  0
 17 20  1  0
  1  2  2  0
  2  8  1  0
  8  9  2  0
  9 10  1  0
 10  7  2  0
  7  1  1  0
 11 12  2  0
 12 13  1  0
 13 14  2  0
 14 16  1  0
 16 15  2  0
 15 11  1  0
  5  6  2  0
  6 21  1  0
 21 22  2  0
 22 23  1  0
 23 24  2  0
 24  5  1  0
M  END
$$$$
