No_4781-complexes_sdf/6BKW-FPZ/2024-09-17-14-21-01/
     RDKit          3D

 21 24  0  0  0  0  0  0  0  0999 V2000
   -7.7129    4.2099   27.0854 C   0  0  0  0  0  0  0  0  0  0  0  0
   -7.7814    5.1722   27.8972 C   0  0  0  0  0  0  0  0  0  0  0  0
   -7.3155    2.9700   27.6145 C   0  0  0  0  0  0  0  0  0  0  0  0
   -7.9010    1.7962   27.2023 C   0  0  0  0  0  0  0  0  0  0  0  0
   -8.9578    1.9047   26.2707 C   0  0  0  0  0  0  0  0  0  0  0  0
   -9.3989    3.1000   25.8096 C   0  0  0  0  0  0  0  0  0  0  0  0
   -8.8948    4.1615   26.3218 C   0  0  0  0  0  0  0  0  0  0  0  0
   -8.1888    6.3211   27.8690 N   0  0  0  0  0  0  0  0  0  0  0  0
   -9.1487    6.6343   26.8547 C   0  0  0  0  0  0  0  0  0  0  0  0
   -9.5571    5.4953   26.0827 C   0  0  0  0  0  0  0  0  0  0  0  0
   -7.2690    0.4950   27.5114 C   0  0  0  0  0  0  0  0  0  0  0  0
   -8.0571   -0.6694   27.5854 C   0  0  0  0  0  0  0  0  0  0  0  0
   -9.4261   -0.5088   27.2685 C   0  0  0  0  0  0  0  0  0  0  0  0
   -9.8365    0.6739   26.2753 C   0  0  0  0  0  0  0  0  0  0  0  0
  -11.2090    1.0327   26.1964 C   0  0  0  0  0  0  0  0  0  0  0  0
  -11.9359    1.3293   26.9630 C   0  0  0  0  0  0  0  0  0  0  0  0
  -11.6084    1.4537   28.4933 C   0  0  0  0  0  0  0  0  0  0  0  0
  -12.4777    2.2205   29.3104 C   0  0  0  0  0  0  0  0  0  0  0  0
  -13.7031    2.6095   28.8992 C   0  0  0  0  0  0  0  0  0  0  0  0
  -14.0541    2.5275   27.5382 C   0  0  0  0  0  0  0  0  0  0  0  0
  -13.2116    1.9861   26.6469 C   0  0  0  0  0  0  0  0  0  0  0  0
 14 15  1  0
 15 16  1  0
  5 14  1  0
 14 13  2  0
 13 12  1  0
 12 11  2  0
 11  4  1  0
  1  2  2  0
  2  8  1  0
  8  9  2  0
  9 10  1  0
 10  7  2  0
 16 17  2  0
 17 18  1  0
 18 19  2  0
 19 20  1  0
 20 21  2  0
 21 16  1  0
  1  3  1  0
  3  4  2  0
  4  5  1  0
  5  6  2  0
  6  7  1  0
  7  1  1  0
M  END
$$$$
