No_4690-complexes_sdf/6BKW-FPZ/2024-09-17-14-21-01/
     RDKit          3D

 18 20  0  0  0  0  0  0  0  0999 V2000
   -7.2496    3.8871   27.4508 C   0  0  0  0  0  0  0  0  0  0  0  0
   -7.9379    4.9063   27.8518 C   0  0  0  0  0  0  0  0  0  0  0  0
   -9.3376    4.8647   27.7795 C   0  0  0  0  0  0  0  0  0  0  0  0
   -7.8544    2.6294   27.0414 C   0  0  0  0  0  0  0  0  0  0  0  0
   -7.1614    1.5016   26.7557 C   0  0  0  0  0  0  0  0  0  0  0  0
   -9.2736    2.6261   27.0257 C   0  0  0  0  0  0  0  0  0  0  0  0
  -10.0045    3.7370   27.4296 C   0  0  0  0  0  0  0  0  0  0  0  0
   -7.6725    0.4370   26.0283 C   0  0  0  0  0  0  0  0  0  0  0  0
   -9.8540    1.4621   26.5823 C   0  0  0  0  0  0  0  0  0  0  0  0
  -11.2826    1.3651   26.5291 C   0  0  1  0  0  0  0  0  0  0  0  0
   -9.0634    0.3746   26.1217 C   0  0  0  0  0  0  0  0  0  0  0  0
  -11.8368    0.1731   26.6141 C   0  0  0  0  0  0  0  0  0  0  0  0
  -11.4280    3.7128   27.5147 C   0  0  0  0  0  0  0  0  0  0  0  0
  -11.8537    2.3283   27.7797 C   0  0  0  0  0  0  0  0  0  0  0  0
  -12.3092   -0.2855   25.5416 C   0  0  0  0  0  0  0  0  0  0  0  0
  -12.7294    0.3960   24.5843 C   0  0  0  0  0  0  0  0  0  0  0  0
  -13.1302   -0.0695   23.3362 C   0  0  0  0  0  0  0  0  0  0  0  0
   -7.2520    6.1754   28.2905 C   0  0  0  0  0  0  0  0  0  0  0  0
  9 10  1  0
 10 12  1  1
  7 13  1  0
 10 14  1  0
 13 14  1  0
 12 15  1  0
 15 16  2  3
 16 17  1  0
  2 18  1  0
  4  5  2  0
  5  8  1  0
  8 11  2  0
 11  9  1  0
  9  6  2  0
  1  2  2  0
  2  3  1  0
  3  7  2  0
  7  6  1  0
  6  4  1  0
  4  1  1  0
M  END
$$$$
