No_5267-complexes_sdf/6BKW-FPZ/2024-09-17-14-21-01/
     RDKit          3D

 17 19  0  0  0  0  0  0  0  0999 V2000
   -7.2496    3.8871   27.4508 C   0  0  0  0  0  0  0  0  0  0  0  0
   -7.9379    4.9063   27.8518 C   0  0  0  0  0  0  0  0  0  0  0  0
   -9.3376    4.8647   27.7795 C   0  0  0  0  0  0  0  0  0  0  0  0
   -7.8544    2.6294   27.0414 C   0  0  0  0  0  0  0  0  0  0  0  0
   -9.2665    2.6175   27.0340 C   0  0  0  0  0  0  0  0  0  0  0  0
   -9.9111    1.3868   26.6335 C   0  0  0  0  0  0  0  0  0  0  0  0
   -9.9845    3.7153   27.4660 C   0  0  0  0  0  0  0  0  0  0  0  0
  -10.5442    0.7180   27.5742 C   0  0  0  0  0  0  0  0  0  0  0  0
  -11.1798   -0.5395   27.3817 C   0  0  0  0  0  0  0  0  0  0  0  0
  -11.0510   -1.0841   26.1883 C   0  0  0  0  0  0  0  0  0  0  0  0
   -9.9778    0.5803   25.5979 C   0  0  0  0  0  0  0  0  0  0  0  0
  -10.4104   -0.5367   25.2380 C   0  0  0  0  0  0  0  0  0  0  0  0
   -9.0791    1.3780   24.4071 C   0  0  0  0  0  0  0  0  0  0  0  0
   -7.3302    6.0817   28.1590 O   0  0  0  0  0  0  0  0  0  0  0  0
   -8.9780    0.8175   23.1813 C   0  0  0  0  0  0  0  0  0  0  0  0
   -9.4559   -0.4726   22.9840 C   0  0  0  0  0  0  0  0  0  0  0  0
  -10.2463   -1.1568   23.9569 C   0  0  0  0  0  0  0  0  0  0  0  0
  5  6  1  0
  2 14  1  0
  1  2  2  0
  2  3  1  0
  3  7  2  0
  7  5  1  0
  5  4  2  0
  4  1  1  0
 12 17  2  0
 17 16  1  0
 16 15  2  0
 15 13  1  0
 13 11  2  0
  6  8  2  0
  8  9  1  0
  9 10  2  0
 10 12  1  0
 12 11  1  0
 11  6  1  0
M  END
$$$$
