No_5782-complexes_sdf/6BKW-FPZ/2024-09-17-14-21-01/
     RDKit          3D

 20 21  0  0  0  0  0  0  0  0999 V2000
   -7.7129    4.2099   27.0854 C   0  0  2  0  0  0  0  0  0  0  0  0
   -8.2112    3.0637   26.9225 C   0  0  0  0  0  0  0  0  0  0  0  0
   -9.4446    2.8304   26.1868 C   0  0  0  0  0  0  0  0  0  0  0  0
   -6.6388    4.5347   28.1122 C   0  0  0  0  0  0  0  0  0  0  0  0
   -9.9906    1.5071   26.0590 C   0  0  0  0  0  0  0  0  0  0  0  0
   -9.2595    0.4699   26.6610 C   0  0  0  0  0  0  0  0  0  0  0  0
   -8.1435    0.6276   27.3940 C   0  0  0  0  0  0  0  0  0  0  0  0
   -7.6037    1.9863   27.5259 C   0  0  0  0  0  0  0  0  0  0  0  0
   -8.4471    5.4389   26.6223 C   0  0  0  0  0  0  0  0  0  0  0  0
   -8.1538    6.7415   27.1520 C   0  0  0  0  0  0  0  0  0  0  0  0
   -8.9380    7.7799   26.5801 C   0  0  0  0  0  0  0  0  0  0  0  0
   -9.8688   -0.9028   26.5634 C   0  0  0  0  0  0  0  0  0  0  0  0
   -9.3905   -1.9062   26.6497 C   0  0  0  0  0  0  0  0  0  0  0  0
  -10.0527   -3.2074   26.5963 C   0  0  0  0  0  0  0  0  0  0  0  0
  -11.4158   -3.1498   26.3708 C   0  0  0  0  0  0  0  0  0  0  0  0
  -12.0568   -1.9709   26.2745 C   0  0  0  0  0  0  0  0  0  0  0  0
  -11.3870   -0.7822   26.4085 C   0  0  0  0  0  0  0  0  0  0  0  0
  -13.5340   -1.9477   26.0726 C   0  0  0  0  0  0  0  0  0  0  0  0
  -14.3050   -1.1247   26.7382 C   0  0  0  0  0  0  0  0  0  0  0  0
  -15.6987   -0.9925   26.4595 C   0  0  0  0  0  0  0  0  0  0  0  0
  1  4  1  1
  1  9  1  0
  9 10  1  0
 10 11  2  0
  6 12  1  0
 16 18  1  0
 18 19  2  3
 19 20  1  0
  1  2  1  0
 12 13  2  0
 13 14  1  0
 14 15  2  0
 15 16  1  0
 16 17  2  0
 17 12  1  0
  2  3  2  0
  3  5  1  0
  5  6  2  0
  6  7  1  0
  7  8  2  0
  8  2  1  0
M  END
$$$$
