No_5368-complexes_sdf/6BKW-FPZ/2024-09-17-14-21-01/
     RDKit          3D

 19 21  0  0  0  0  0  0  0  0999 V2000
   -7.9040    3.9820   27.1177 C   0  0  0  0  0  0  0  0  0  0  0  0
   -9.0711    4.3164   27.0630 C   0  0  0  0  0  0  0  0  0  0  0  0
   -9.5182    5.5541   27.5777 C   0  0  0  0  0  0  0  0  0  0  0  0
   -6.9424    4.7983   27.8424 C   0  0  0  0  0  0  0  0  0  0  0  0
   -7.3526    5.9739   28.3909 C   0  0  0  0  0  0  0  0  0  0  0  0
   -8.6479    6.3742   28.2170 C   0  0  0  0  0  0  0  0  0  0  0  0
  -10.0793    3.4689   26.3368 C   0  0  0  0  0  0  0  0  0  0  0  0
   -9.6567    2.5965   25.4484 C   0  0  0  0  0  0  0  0  0  0  0  0
  -10.5086    1.8159   24.6228 C   0  0  0  0  0  0  0  0  0  0  0  0
  -11.8698    2.1070   24.6818 C   0  0  0  0  0  0  0  0  0  0  0  0
  -11.3952    3.7218   26.1031 C   0  0  0  0  0  0  0  0  0  0  0  0
  -12.2817    3.1188   25.4588 C   0  0  0  0  0  0  0  0  0  0  0  0
   -9.9708    0.7170   23.7950 C   0  0  0  0  0  0  0  0  0  0  0  0
   -9.2989   -0.2749   24.2847 C   0  0  0  0  0  0  0  0  0  0  0  0
   -8.7368   -1.2800   23.3917 C   0  0  0  0  0  0  0  0  0  0  0  0
   -8.9550   -1.1744   21.9970 C   0  0  0  0  0  0  0  0  0  0  0  0
  -10.0741    0.8495   22.3637 C   0  0  0  0  0  0  0  0  0  0  0  0
   -9.5702   -0.0679   21.5204 C   0  0  0  0  0  0  0  0  0  0  0  0
  -10.6572    1.9759   21.8262 F   0  0  0  0  0  0  0  0  0  0  0  0
  2  7  1  0
  9 13  1  0
 17 19  1  0
  7  8  2  0
  8  9  1  0
  9 10  2  0
 10 12  1  0
 12 11  2  0
 11  7  1  0
  1  2  2  0
  2  3  1  0
  3  6  2  0
  6  5  1  0
  5  4  2  0
  4  1  1  0
 13 14  2  0
 14 15  1  0
 15 16  2  0
 16 18  1  0
 18 17  2  0
 17 13  1  0
M  END
$$$$
