No_5279-complexes_sdf/6BKW-FPZ/2024-09-17-14-21-01/
     RDKit          3D

 13 13  0  0  0  0  0  0  0  0999 V2000
   -7.7129    4.2099   27.0854 C   0  0  0  0  0  0  0  0  0  0  0  0
   -8.2112    3.0637   26.9225 C   0  0  0  0  0  0  0  0  0  0  0  0
   -9.4446    2.8304   26.1868 C   0  0  0  0  0  0  0  0  0  0  0  0
   -8.4697    5.3956   26.7238 C   0  0  0  0  0  0  0  0  0  0  0  0
   -9.6172    5.2111   25.9513 C   0  0  0  0  0  0  0  0  0  0  0  0
  -10.0424    3.9782   25.6873 C   0  0  0  0  0  0  0  0  0  0  0  0
   -7.5056    1.8167   27.4088 C   0  0  0  0  0  0  0  0  0  0  0  0
   -6.4674    2.0948   28.1111 F   0  0  0  0  0  0  0  0  0  0  0  0
   -7.8907    0.5528   27.1565 C   0  0  0  0  0  0  0  0  0  0  0  0
   -7.0749   -0.3075   26.6414 C   0  0  0  0  0  0  0  0  0  0  0  0
   -7.4747   -1.6550   26.3904 C   0  0  0  0  0  0  0  0  0  0  0  0
   -8.7632   -2.0027   26.6946 C   0  0  0  0  0  0  0  0  0  0  0  0
   -9.6462   -1.0803   27.2904 C   0  0  0  0  0  0  0  0  0  0  0  0
  2  7  1  0
  7  8  1  0
  7  9  1  0
  9 10  2  3
 10 11  1  0
 11 12  2  3
 12 13  1  0
  1  2  2  0
  2  3  1  0
  3  6  2  0
  6  5  1  0
  5  4  2  0
  4  1  1  0
M  END
$$$$
