No_5030-complexes_sdf/6BKW-FPZ/2024-09-17-14-21-01/
     RDKit          3D

 31 36  0  0  0  0  0  0  0  0999 V2000
   -7.2496    3.8871   27.4508 C   0  0  0  0  0  0  0  0  0  0  0  0
   -8.5096    4.0291   27.2770 C   0  0  0  0  0  0  0  0  0  0  0  0
   -9.2669    5.1645   27.5845 C   0  0  0  0  0  0  0  0  0  0  0  0
   -8.4566    6.3212   27.8001 C   0  0  0  0  0  0  0  0  0  0  0  0
   -6.4921    5.0197   27.7961 C   0  0  0  0  0  0  0  0  0  0  0  0
   -7.1702    6.2351   27.9936 C   0  0  0  0  0  0  0  0  0  0  0  0
   -9.3431    2.7525   27.0047 C   0  0  2  0  0  0  0  0  0  0  0  0
   -9.6075    2.4783   25.8136 C   0  0  0  0  0  0  0  0  0  0  0  0
  -10.0844    3.3579   24.9135 C   0  0  0  0  0  0  0  0  0  0  0  0
  -10.3566    3.1108   23.5380 C   0  0  0  0  0  0  0  0  0  0  0  0
  -10.0514    1.8240   23.0686 C   0  0  0  0  0  0  0  0  0  0  0  0
   -9.4783    0.8730   23.9154 C   0  0  0  0  0  0  0  0  0  0  0  0
   -9.2406    1.1838   25.2358 C   0  0  0  0  0  0  0  0  0  0  0  0
  -10.6180    2.7954   27.8482 C   0  0  0  0  0  0  0  0  0  0  0  0
  -11.1508    1.5368   28.2691 C   0  0  0  0  0  0  0  0  0  0  0  0
  -12.2891    1.4831   29.0670 C   0  0  0  0  0  0  0  0  0  0  0  0
  -12.8579    2.7352   29.5377 C   0  0  0  0  0  0  0  0  0  0  0  0
  -12.3585    3.9397   29.0686 C   0  0  0  0  0  0  0  0  0  0  0  0
  -11.2445    3.9630   28.3319 C   0  0  0  0  0  0  0  0  0  0  0  0
  -10.4535    5.2084   28.1126 C   0  0  0  0  0  0  0  0  0  0  0  0
   -8.4739    1.5523   27.7238 C   0  0  0  0  0  0  0  0  0  0  0  0
  -11.0649    4.1957   22.2517 Br  0  0  0  0  0  0  0  0  0  0  0  0
  -14.0878    2.6384   30.3658 C   0  0  0  0  0  0  0  0  0  0  0  0
  -14.6182    3.4636   30.8649 C   0  0  0  0  0  0  0  0  0  0  0  0
  -15.4228    3.9096   31.6209 C   0  0  0  0  0  0  0  0  0  0  0  0
  -15.8332    5.2641   31.9975 C   0  0  0  0  0  0  0  0  0  0  0  0
  -15.3941    6.2439   31.1398 C   0  0  0  0  0  0  0  0  0  0  0  0
  -14.7212    5.9021   29.9630 C   0  0  0  0  0  0  0  0  0  0  0  0
  -14.2395    4.7248   29.7913 C   0  0  0  0  0  0  0  0  0  0  0  0
  -13.1298    4.6814   28.9165 C   0  0  0  0  0  0  0  0  0  0  0  0
  -16.8080    5.6658   33.3229 Cl  0  0  0  0  0  0  0  0  0  0  0  0
  2  7  1  0
  7  8  1  0
  7 14  1  0
  3 20  1  0
 19 20  1  0
  7 21  1  1
 10 22  1  0
 26 31  1  0
 24 25  1  0
 25 26  2  0
 26 27  1  0
 27 28  2  0
 28 29  1  0
  1  2  2  0
  2  3  1  0
  3  4  2  0
  4  6  1  0
  6  5  2  0
  5  1  1  0
 18 30  1  0
 30 29  2  0
 29 24  1  0
 24 23  2  0
 23 17  1  0
 14 15  2  0
 15 16  1  0
 16 17  2  0
 17 18  1  0
 18 19  2  0
 19 14  1  0
  8  9  2  0
  9 10  1  0
 10 11  2  0
 11 12  1  0
 12 13  2  0
 13  8  1  0
M  END
$$$$
