No_5402-complexes_sdf/6BKW-FPZ/2024-09-17-14-21-01/
     RDKit          3D

 14 16  0  0  0  0  0  0  0  0999 V2000
   -7.9040    3.9820   27.1177 C   0  0  0  0  0  0  0  0  0  0  0  0
   -7.8663    4.8694   27.9238 C   0  0  0  0  0  0  0  0  0  0  0  0
   -9.0501    3.8017   26.2617 C   0  0  0  0  0  0  0  0  0  0  0  0
   -9.1826    2.7026   25.3575 C   0  0  0  0  0  0  0  0  0  0  0  0
   -8.6241    6.0053   27.5974 C   0  0  0  0  0  0  0  0  0  0  0  0
   -9.6577    6.0523   26.7101 C   0  0  0  0  0  0  0  0  0  0  0  0
   -9.7428    4.9359   25.9518 C   0  0  0  0  0  0  0  0  0  0  0  0
  -10.1485    2.6631   24.3935 C   0  0  0  0  0  0  0  0  0  0  0  0
  -10.3501    1.5071   23.6210 C   0  0  0  0  0  0  0  0  0  0  0  0
   -9.4149    0.4185   23.7925 C   0  0  0  0  0  0  0  0  0  0  0  0
   -8.3896    1.4500   25.4959 C   0  0  0  0  0  0  0  0  0  0  0  0
   -8.5043    0.4130   24.7629 C   0  0  0  0  0  0  0  0  0  0  0  0
  -10.6782    4.8738   24.9878 N   0  0  0  0  0  0  0  0  0  0  0  0
  -10.9350    3.8219   24.2350 C   0  0  0  0  0  0  0  0  0  0  0  0
  8  9  1  0
  9 10  2  0
 10 12  1  0
 12 11  2  0
 11  4  1  0
  1  2  2  0
  2  5  1  0
  5  6  2  0
  6  7  1  0
  3  1  1  0
  3  4  2  0
  4  8  1  0
  8 14  2  0
 14 13  1  0
 13  7  2  0
  7  3  1  0
M  END
$$$$
