No_5086-complexes_sdf/6BKW-FPZ/2024-09-17-14-21-01/
     RDKit          3D

 20 22  0  0  0  0  0  0  0  0999 V2000
   -7.7129    4.2099   27.0854 C   0  0  0  0  0  0  0  0  0  0  0  0
   -7.7814    5.1722   27.8972 C   0  0  0  0  0  0  0  0  0  0  0  0
   -8.8998    3.8713   26.3707 C   0  0  0  0  0  0  0  0  0  0  0  0
   -9.9938    4.6774   26.5446 C   0  0  0  0  0  0  0  0  0  0  0  0
   -8.7789    6.1536   27.9256 C   0  0  0  0  0  0  0  0  0  0  0  0
   -9.9428    5.8398   27.2296 C   0  0  0  0  0  0  0  0  0  0  0  0
   -8.9208    2.6404   25.5721 C   0  0  0  0  0  0  0  0  0  0  0  0
   -9.8143    2.5212   24.5327 C   0  0  0  0  0  0  0  0  0  0  0  0
   -9.8784    1.3928   23.8415 C   0  0  0  0  0  0  0  0  0  0  0  0
   -8.9325    0.3260   24.0854 C   0  0  0  0  0  0  0  0  0  0  0  0
   -8.0777    0.4386   25.1449 C   0  0  0  0  0  0  0  0  0  0  0  0
   -8.0365    1.5929   25.9275 C   0  0  0  0  0  0  0  0  0  0  0  0
   -6.6225    5.5861   28.5818 O   0  0  0  0  0  0  0  0  0  0  0  0
   -7.0202   -0.8477   25.5115 Cl  0  0  0  0  0  0  0  0  0  0  0  0
  -10.7536    1.2880   22.6550 C   0  0  0  0  0  0  0  0  0  0  0  0
  -12.0620    1.0684   22.9638 C   0  0  0  0  0  0  0  0  0  0  0  0
  -12.9505    1.0578   22.0410 C   0  0  0  0  0  0  0  0  0  0  0  0
  -12.5615    1.1117   20.6596 C   0  0  0  0  0  0  0  0  0  0  0  0
  -11.2273    1.3119   20.3012 C   0  0  0  0  0  0  0  0  0  0  0  0
  -10.2632    1.4231   21.3365 C   0  0  0  0  0  0  0  0  0  0  0  0
  3  7  1  0
  2 13  1  0
 11 14  1  0
  9 15  1  0
 15 16  2  0
 16 17  1  0
 17 18  2  0
 18 19  1  0
 19 20  2  0
 20 15  1  0
  1  2  2  0
  2  5  1  0
  5  6  2  0
  6  4  1  0
  4  3  2  0
  3  1  1  0
  7  8  2  0
  8  9  1  0
  9 10  2  0
 10 11  1  0
 11 12  2  0
 12  7  1  0
M  END
$$$$
