No_5443-complexes_sdf/6BKW-FPZ/2024-09-17-14-21-01/
     RDKit          3D

 14 14  0  0  0  0  0  0  0  0999 V2000
   -7.7129    4.2099   27.0854 C   0  0  0  0  0  0  0  0  0  0  0  0
   -8.9133    4.4736   27.0998 C   0  0  0  0  0  0  0  0  0  0  0  0
   -9.4616    5.6470   27.6290 C   0  0  0  0  0  0  0  0  0  0  0  0
   -6.8722    5.1130   27.9248 C   0  0  0  0  0  0  0  0  0  0  0  0
   -7.3801    6.2535   28.4126 C   0  0  0  0  0  0  0  0  0  0  0  0
   -8.6734    6.5530   28.2150 C   0  0  0  0  0  0  0  0  0  0  0  0
   -9.8157    3.4887   26.3527 C   0  0  0  0  0  0  0  0  0  0  0  0
  -10.0926    2.3125   26.8650 C   0  0  2  0  0  0  0  0  0  0  0  0
   -9.9915    1.9359   27.9955 C   0  0  0  0  0  0  0  0  0  0  0  0
  -10.4740    1.2527   25.8180 C   0  0  0  0  0  0  0  0  0  0  0  0
  -11.0318    1.5360   24.7596 C   0  0  0  0  0  0  0  0  0  0  0  0
  -11.4321    0.6098   23.8032 C   0  0  0  0  0  0  0  0  0  0  0  0
  -11.0832   -0.7156   24.0179 C   0  0  0  0  0  0  0  0  0  0  0  0
  -10.3269   -0.9343   25.0149 C   0  0  0  0  0  0  0  0  0  0  0  0
  2  7  1  0
  7  8  1  0
  8  9  1  6
  8 10  1  0
 10 11  2  3
 11 12  1  0
 12 13  2  3
 13 14  1  0
  1  2  2  0
  2  3  1  0
  3  6  2  0
  6  5  1  0
  5  4  2  0
  4  1  1  0
M  END
$$$$
