No_569-complexes_sdf/6BKW-FPZ/2024-09-17-14-21-01/
     RDKit          3D

 18 20  0  0  0  0  0  0  0  0999 V2000
   -7.7129    4.2099   27.0854 C   0  0  0  0  0  0  0  0  0  0  0  0
   -8.9133    4.4736   27.0998 C   0  0  2  0  0  0  0  0  0  0  0  0
   -9.7135    3.9633   26.0300 C   0  0  0  0  0  0  0  0  0  0  0  0
   -6.8655    4.8824   28.1822 C   0  0  0  0  0  0  0  0  0  0  0  0
  -10.8856    4.5824   25.6430 C   0  0  0  0  0  0  0  0  0  0  0  0
   -7.6664    5.7849   28.7962 N   0  0  0  0  0  0  0  0  0  0  0  0
   -8.8934    5.5511   27.9459 C   0  0  0  0  0  0  0  0  0  0  0  0
  -11.7566    4.0566   24.6254 C   0  0  0  0  0  0  0  0  0  0  0  0
  -11.3129    2.8894   23.9740 C   0  0  0  0  0  0  0  0  0  0  0  0
  -10.1595    2.2702   24.3585 C   0  0  0  0  0  0  0  0  0  0  0  0
   -9.3211    2.7782   25.3932 C   0  0  0  0  0  0  0  0  0  0  0  0
  -12.0865    2.3560   23.0455 F   0  0  0  0  0  0  0  0  0  0  0  0
   -9.7330    1.0097   23.6713 C   0  0  0  0  0  0  0  0  0  0  0  0
   -8.9226    0.1462   24.3705 C   0  0  0  0  0  0  0  0  0  0  0  0
   -8.1869   -0.6743   23.6258 C   0  0  0  0  0  0  0  0  0  0  0  0
   -8.3631   -0.8341   22.2125 C   0  0  0  0  0  0  0  0  0  0  0  0
   -9.2390    0.0686   21.5883 C   0  0  0  0  0  0  0  0  0  0  0  0
   -9.7579    1.0907   22.3014 C   0  0  0  0  0  0  0  0  0  0  0  0
  1  2  1  0
  1  4  1  0
  4  6  2  0
  2  7  1  0
  6  7  1  0
  9 12  1  0
 10 13  1  0
  2  3  1  6
 13 14  2  0
 14 15  1  0
 15 16  2  0
 16 17  1  0
 17 18  2  0
 18 13  1  0
  3  5  2  0
  5  8  1  0
  8  9  2  0
  9 10  1  0
 10 11  2  0
 11  3  1  0
M  END
$$$$
