No_5805-complexes_sdf/6BKW-FPZ/2024-09-17-14-21-01/
     RDKit          3D

 24 27  0  0  0  0  0  0  0  0999 V2000
   -7.7129    4.2099   27.0854 C   0  0  0  0  0  0  0  0  0  0  0  0
   -8.2112    3.0637   26.9225 C   0  0  0  0  0  0  0  0  0  0  0  0
   -9.4446    2.8304   26.1868 C   0  0  0  0  0  0  0  0  0  0  0  0
   -8.4697    5.3956   26.7238 C   0  0  0  0  0  0  0  0  0  0  0  0
   -9.6172    5.2111   25.9513 C   0  0  0  0  0  0  0  0  0  0  0  0
  -10.0424    3.9782   25.6873 C   0  0  0  0  0  0  0  0  0  0  0  0
   -7.5056    1.8167   27.4088 C   0  0  0  0  0  0  0  0  0  0  0  0
   -6.1365    1.8782   27.7502 C   0  0  0  0  0  0  0  0  0  0  0  0
   -5.4402    0.7398   28.2080 C   0  0  0  0  0  0  0  0  0  0  0  0
   -6.0836   -0.4843   28.1647 C   0  0  0  0  0  0  0  0  0  0  0  0
   -8.0402    0.5377   27.3754 C   0  0  0  0  0  0  0  0  0  0  0  0
   -9.4309    0.4740   27.0333 C   0  0  0  0  0  0  0  0  0  0  0  0
   -7.3869   -0.5514   27.8141 C   0  0  0  0  0  0  0  0  0  0  0  0
  -10.1342    1.5843   26.1938 C   0  0  2  0  0  0  0  0  0  0  0  0
   -4.0077    0.9229   28.6024 C   0  0  0  0  0  0  0  0  0  0  0  0
   -3.8695    0.8604   29.7902 F   0  0  0  0  0  0  0  0  0  0  0  0
   -3.1486    0.4977   27.8153 F   0  0  0  0  0  0  0  0  0  0  0  0
  -11.2577    3.8695   24.8533 C   0  0  0  0  0  0  0  0  0  0  0  0
  -12.3762    3.6620   25.3382 N   0  0  0  0  0  0  0  0  0  0  0  0
  -13.5539    3.7590   24.7780 C   0  0  0  0  0  0  0  0  0  0  0  0
  -11.0995    3.8970   23.4483 C   0  0  0  0  0  0  0  0  0  0  0  0
  -12.2010    4.0866   22.6611 C   0  0  0  0  0  0  0  0  0  0  0  0
  -13.4718    3.9514   23.3597 C   0  0  0  0  0  0  0  0  0  0  0  0
  -10.0823    1.1353   24.9235 F   0  0  0  0  0  0  0  0  0  0  0  0
  2  7  1  0
 11 12  1  0
  3 14  1  0
 12 14  1  0
  9 15  1  0
 15 16  1  0
 15 17  1  0
  6 18  1  0
 14 24  1  6
  1  2  2  0
  2  3  1  0
  3  6  2  0
  6  5  1  0
  5  4  2  0
  4  1  1  0
  7  8  2  0
  8  9  1  0
  9 10  2  0
 10 13  1  0
 13 11  2  0
 11  7  1  0
 18 19  2  0
 19 20  1  0
 20 23  2  0
 23 22  1  0
 22 21  2  0
 21 18  1  0
M  END
$$$$
