No_5167-complexes_sdf/6BKW-FPZ/2024-09-17-14-21-01/
     RDKit          3D

 12 13  0  0  0  0  0  0  0  0999 V2000
   -7.9040    3.9820   27.1177 C   0  0  0  0  0  0  0  0  0  0  0  0
   -7.8663    4.8694   27.9238 C   0  0  0  0  0  0  0  0  0  0  0  0
   -7.4698    2.6989   27.4277 C   0  0  0  0  0  0  0  0  0  0  0  0
   -6.1691    2.6024   27.7920 C   0  0  0  0  0  0  0  0  0  0  0  0
   -8.5251    6.1376   27.6596 C   0  0  0  0  0  0  0  0  0  0  0  0
   -8.8057    4.1423   26.0061 C   0  0  0  0  0  0  0  0  0  0  0  0
   -9.4671    5.3801   25.7173 C   0  0  0  0  0  0  0  0  0  0  0  0
   -9.2619    6.4282   26.5947 C   0  0  0  0  0  0  0  0  0  0  0  0
   -5.4973    1.3252   28.0099 C   0  0  0  0  0  0  0  0  0  0  0  0
   -6.2045    0.1563   27.8570 C   0  0  0  0  0  0  0  0  0  0  0  0
   -8.1164    1.4940   27.1189 C   0  0  0  0  0  0  0  0  0  0  0  0
   -7.5371    0.2714   27.3667 C   0  0  0  0  0  0  0  0  0  0  0  0
  1  3  1  0
  1  2  2  0
  2  5  1  0
  5  8  2  0
  8  7  1  0
  7  6  2  0
  6  1  1  0
  3  4  2  0
  4  9  1  0
  9 10  2  0
 10 12  1  0
 12 11  2  0
 11  3  1  0
M  END
$$$$
