No_5874-complexes_sdf/6BKW-FPZ/2024-09-17-14-21-01/
     RDKit          3D

  8  8  0  0  0  0  0  0  0  0999 V2000
   -7.9040    3.9820   27.1177 C   0  0  0  0  0  0  0  0  0  0  0  0
   -9.0711    4.3164   27.0630 C   0  0  0  0  0  0  0  0  0  0  0  0
   -9.5182    5.5541   27.5777 C   0  0  0  0  0  0  0  0  0  0  0  0
   -6.9424    4.7983   27.8424 C   0  0  0  0  0  0  0  0  0  0  0  0
   -7.3526    5.9739   28.3909 C   0  0  0  0  0  0  0  0  0  0  0  0
   -8.6479    6.3742   28.2170 C   0  0  0  0  0  0  0  0  0  0  0  0
  -10.0621    3.4422   26.3345 C   0  0  0  0  0  0  0  0  0  0  0  0
  -10.7762    3.3987   25.6188 N   0  0  0  0  0  0  0  0  0  0  0  0
  2  7  1  0
  7  8  3  0
  1  2  2  0
  2  3  1  0
  3  6  2  0
  6  5  1  0
  5  4  2  0
  4  1  1  0
M  END
$$$$
