No_5014-complexes_sdf/6BKW-FPZ/2024-09-17-14-21-01/
     RDKit          3D

 24 25  0  0  0  0  0  0  0  0999 V2000
   -7.9040    3.9820   27.1177 C   0  0  0  0  0  0  0  0  0  0  0  0
   -7.8663    4.8694   27.9238 C   0  0  0  0  0  0  0  0  0  0  0  0
   -7.4547    2.7080   27.4594 C   0  0  0  0  0  0  0  0  0  0  0  0
   -8.7044    6.0412   27.8492 C   0  0  0  0  0  0  0  0  0  0  0  0
   -7.9501    1.5743   26.8848 C   0  0  0  0  0  0  0  0  0  0  0  0
   -8.8773    1.7289   25.8707 C   0  0  0  0  0  0  0  0  0  0  0  0
   -9.3595    2.9624   25.5238 C   0  0  0  0  0  0  0  0  0  0  0  0
   -9.0069    4.0555   26.2453 C   0  0  0  0  0  0  0  0  0  0  0  0
   -9.5875    5.3048   26.1708 C   0  0  0  0  0  0  0  0  0  0  0  0
   -9.4128    6.3702   26.8948 C   0  0  0  0  0  0  0  0  0  0  0  0
   -7.3402    0.2450   27.1413 C   0  0  0  0  0  0  0  0  0  0  0  0
   -8.0153   -0.7223   27.4476 O   0  0  0  0  0  0  0  0  0  0  0  0
   -6.0122    0.0763   26.8372 O   0  0  0  0  0  0  0  0  0  0  0  0
   -5.2458   -0.7848   27.6420 C   0  0  0  0  0  0  0  0  0  0  0  0
   -3.9766   -0.7640   27.2376 C   0  0  1  0  0  0  0  0  0  0  0  0
   -3.5726    0.1165   26.6297 O   0  0  0  0  0  0  0  0  0  0  0  0
   -2.9256   -0.8904   28.4075 C   0  0  0  0  0  0  0  0  0  0  0  0
   -3.0182   -1.9264   29.3029 C   0  0  0  0  0  0  0  0  0  0  0  0
   -2.4526   -1.7195   30.4477 C   0  0  0  0  0  0  0  0  0  0  0  0
   -3.1492   -1.7149   31.6301 N   0  0  0  0  0  0  0  0  0  0  0  0
   -4.1836   -1.0913   31.8046 C   0  0  0  0  0  0  0  0  0  0  0  0
   -4.9705   -1.1645   33.0588 C   0  0  0  0  0  0  0  0  0  0  0  0
   -6.3207   -1.0852   33.0303 C   0  0  0  0  0  0  0  0  0  0  0  0
   -2.5563   -2.4244   32.8556 C   0  0  0  0  0  0  0  0  0  0  0  0
  5 11  1  0
 11 12  2  0
 11 13  1  0
 13 14  1  0
 14 15  1  0
 15 16  1  1
 15 17  1  0
 17 18  1  0
 18 19  1  0
 19 20  1  0
 20 21  1  0
 21 22  2  3
 22 23  1  0
 20 24  1  0
  1  3  1  0
  3  5  2  0
  5  6  1  0
  6  7  2  0
  7  8  1  0
  1  2  2  0
  2  4  1  0
  4 10  2  0
 10  9  1  0
  9  8  2  0
  8  1  1  0
M  END
$$$$
