No_5864-complexes_sdf/6BKW-FPZ/2024-09-17-14-21-01/
     RDKit          3D

 29 31  0  0  0  0  0  0  0  0999 V2000
   -7.7129    4.2099   27.0854 C   0  0  0  0  0  0  0  0  0  0  0  0
   -8.2112    3.0637   26.9225 C   0  0  0  0  0  0  0  0  0  0  0  0
   -8.4224    5.2106   27.8516 C   0  0  0  0  0  0  0  0  0  0  0  0
   -9.5628    2.7160   27.4089 C   0  0  0  0  0  0  0  0  0  0  0  0
  -10.2428    3.7496   28.1155 C   0  0  0  0  0  0  0  0  0  0  0  0
   -9.6677    4.9738   28.3232 C   0  0  0  0  0  0  0  0  0  0  0  0
   -7.6358    6.7353   28.0263 Cl  0  0  0  0  0  0  0  0  0  0  0  0
  -10.0925    1.3897   27.2259 C   0  0  0  0  0  0  0  0  0  0  0  0
   -9.3182    0.3988   27.1301 N   0  0  0  0  0  0  0  0  0  0  0  0
   -9.6598   -0.8814   27.4320 C   0  0  0  0  0  0  0  0  0  0  0  0
  -10.6517   -1.0408   28.1305 C   0  0  0  0  0  0  0  0  0  0  0  0
  -11.3338    1.1442   27.9254 C   0  0  0  0  0  0  0  0  0  0  0  0
  -11.6297   -0.0555   28.3784 C   0  0  0  0  0  0  0  0  0  0  0  0
   -8.7091   -1.8602   27.1980 N   0  0  0  0  0  0  0  0  0  0  0  0
   -7.5357   -1.5274   26.6521 C   0  0  1  0  0  0  0  0  0  0  0  0
   -6.5632   -0.9171   27.3871 C   0  0  0  0  0  0  0  0  0  0  0  0
   -6.1239   -0.9008   28.3067 C   0  0  0  0  0  0  0  0  0  0  0  0
   -5.0502   -0.0247   28.9615 C   0  0  0  0  0  0  0  0  0  0  0  0
   -4.6502    1.0011   28.1014 C   0  0  0  0  0  0  0  0  0  0  0  0
   -5.2268    1.2735   26.9455 C   0  0  0  0  0  0  0  0  0  0  0  0
   -6.1749    0.4190   26.4899 C   0  0  0  0  0  0  0  0  0  0  0  0
   -7.2918   -2.1546   25.3763 C   0  0  0  0  0  0  0  0  0  0  0  0
   -4.4897   -0.2263   30.3014 C   0  0  1  0  0  0  0  0  0  0  0  0
   -3.3850    0.3569   30.6939 N   0  0  0  0  0  0  0  0  0  0  0  0
   -5.1779   -0.9897   31.3114 C   0  0  0  0  0  0  0  0  0  0  0  0
   -5.8859   -1.9339   31.3755 C   0  0  0  0  0  0  0  0  0  0  0  0
   -6.4326   -2.4295   32.6287 C   0  0  0  0  0  0  0  0  0  0  0  0
   -5.9614   -1.8828   33.8269 C   0  0  0  0  0  0  0  0  0  0  0  0
   -5.0287   -0.8404   33.8112 C   0  0  0  0  0  0  0  0  0  0  0  0
  3  7  1  0
  4  8  1  0
 10 14  1  0
 14 15  1  0
 15 16  1  0
 15 22  1  1
 18 23  1  0
 23 24  1  1
 23 25  1  0
 25 26  2  3
 26 27  1  0
 27 28  2  3
 28 29  1  0
  1  2  2  0
  2  4  1  0
  4  5  2  0
  5  6  1  0
  6  3  2  0
  3  1  1  0
 16 17  2  0
 17 18  1  0
 18 19  2  0
 19 20  1  0
 20 21  2  0
 21 16  1  0
  8  9  2  0
  9 10  1  0
 10 11  2  0
 11 13  1  0
 13 12  2  0
 12  8  1  0
M  END
$$$$
