No_5617-complexes_sdf/6BKW-FPZ/2024-09-17-14-21-01/
     RDKit          3D

 26 28  0  0  0  0  0  0  0  0999 V2000
   -7.7129    4.2099   27.0854 C   0  0  0  0  0  0  0  0  0  0  0  0
   -8.2112    3.0637   26.9225 C   0  0  0  0  0  0  0  0  0  0  0  0
   -8.5108    5.3904   26.9436 C   0  0  0  0  0  0  0  0  0  0  0  0
   -9.7256    5.1955   26.3518 C   0  0  0  0  0  0  0  0  0  0  0  0
   -9.4995    2.8258   26.4878 C   0  0  0  0  0  0  0  0  0  0  0  0
  -10.2542    3.9691   26.2055 C   0  0  0  0  0  0  0  0  0  0  0  0
   -7.9468    6.6176   27.1669 N   0  0  0  0  0  0  0  0  0  0  0  0
   -7.3610    1.8234   27.2472 C   0  0  0  0  0  0  0  0  0  0  0  0
   -7.7957    0.5988   27.0959 N   0  0  0  0  0  0  0  0  0  0  0  0
   -7.3018   -0.2081   26.3989 C   0  0  0  0  0  0  0  0  0  0  0  0
   -7.9395   -1.4865   26.2518 C   0  0  0  0  0  0  0  0  0  0  0  0
   -6.1761    2.0663   27.7180 O   0  0  0  0  0  0  0  0  0  0  0  0
   -7.7581   -2.2122   25.3426 C   0  0  0  0  0  0  0  0  0  0  0  0
   -6.5763   -2.0409   24.4174 C   0  0  0  0  0  0  0  0  0  0  0  0
   -5.9195   -0.8080   24.5204 C   0  0  0  0  0  0  0  0  0  0  0  0
   -6.2786    0.1014   25.4644 C   0  0  0  0  0  0  0  0  0  0  0  0
   -8.5458    7.8358   26.7748 C   0  0  0  0  0  0  0  0  0  0  0  0
   -6.2126   -3.0001   23.3706 C   0  0  0  0  0  0  0  0  0  0  0  0
   -6.2340   -2.7526   22.2243 O   0  0  0  0  0  0  0  0  0  0  0  0
   -5.5073   -4.0178   23.7293 O   0  0  0  0  0  0  0  0  0  0  0  0
  -11.5810    3.8279   25.5754 C   0  0  0  0  0  0  0  0  0  0  0  0
  -11.7962    3.7223   24.1782 C   0  0  0  0  0  0  0  0  0  0  0  0
  -12.9433    3.8404   23.5980 C   0  0  0  0  0  0  0  0  0  0  0  0
  -12.6939    3.8529   26.4150 C   0  0  0  0  0  0  0  0  0  0  0  0
  -14.0013    3.9728   25.8486 C   0  0  0  0  0  0  0  0  0  0  0  0
  -14.1029    3.9884   24.4335 C   0  0  0  0  0  0  0  0  0  0  0  0
  3  7  1  0
  2  8  1  0
  8  9  1  0
  9 10  1  0
  8 12  2  0
  7 17  1  0
 14 18  1  0
 18 19  1  0
 18 20  2  0
  6 21  1  0
 21 22  2  0
 22 23  1  0
 23 26  2  0
 26 25  1  0
 25 24  2  0
 24 21  1  0
  1  2  2  0
  2  5  1  0
  5  6  2  0
  6  4  1  0
  4  3  2  0
  3  1  1  0
 10 11  2  0
 11 13  1  0
 13 14  2  0
 14 15  1  0
 15 16  2  0
 16 10  1  0
M  END
$$$$
