No_5468-complexes_sdf/6BKW-FPZ/2024-09-17-14-21-01/
     RDKit          3D

 40 45  0  0  0  0  0  0  0  0999 V2000
   -7.2496    3.8871   27.4508 C   0  0  0  0  0  0  0  0  0  0  0  0
   -7.6161    2.7143   27.1523 C   0  0  0  0  0  0  0  0  0  0  0  0
   -6.9719    1.5838   27.5324 C   0  0  0  0  0  0  0  0  0  0  0  0
   -5.6316    1.7305   27.9933 C   0  0  0  0  0  0  0  0  0  0  0  0
   -4.8829    0.5418   28.3979 C   0  0  0  0  0  0  0  0  0  0  0  0
   -5.9097    4.0890   28.0607 C   0  0  0  0  0  0  0  0  0  0  0  0
   -5.1895    3.0612   28.3190 C   0  0  0  0  0  0  0  0  0  0  0  0
   -5.4007   -0.6324   28.5552 C   0  0  0  0  0  0  0  0  0  0  0  0
   -6.7581   -0.7646   27.9229 C   0  0  0  0  0  0  0  0  0  0  0  0
   -7.5061    0.2928   27.4701 C   0  0  0  0  0  0  0  0  0  0  0  0
   -8.0469    5.1039   27.1325 C   0  0  0  0  0  0  0  0  0  0  0  0
   -7.8739    6.3855   27.7950 C   0  0  0  0  0  0  0  0  0  0  0  0
   -9.0489    5.0084   26.1307 C   0  0  0  0  0  0  0  0  0  0  0  0
   -8.6149    7.4724   27.2747 C   0  0  0  0  0  0  0  0  0  0  0  0
   -9.5829    3.8104   25.7646 C   0  0  0  0  0  0  0  0  0  0  0  0
   -8.7998    2.5794   26.1672 C   0  0  0  0  0  0  0  0  0  0  0  0
  -10.6298    3.5823   24.8630 C   0  0  0  0  0  0  0  0  0  0  0  0
  -11.0521    2.6921   24.4390 N   0  0  0  0  0  0  0  0  0  0  0  0
  -11.9827    2.4589   23.5411 C   0  0  0  0  0  0  0  0  0  0  0  0
  -12.6093    3.4942   23.1427 C   0  0  0  0  0  0  0  0  0  0  0  0
  -12.2290    4.8199   23.5595 C   0  0  0  0  0  0  0  0  0  0  0  0
  -11.1402    4.9512   24.4251 C   0  0  0  0  0  0  0  0  0  0  0  0
   -4.5639   -1.7294   28.6324 C   0  0  0  0  0  0  0  0  0  0  0  0
   -4.2515   -2.5815   27.9415 C   0  0  0  0  0  0  0  0  0  0  0  0
   -3.3609   -3.6309   28.1057 C   0  0  0  0  0  0  0  0  0  0  0  0
   -2.7019   -3.7089   29.3589 C   0  0  0  0  0  0  0  0  0  0  0  0
   -3.8450   -1.6262   30.0555 C   0  0  0  0  0  0  0  0  0  0  0  0
   -2.9466   -2.6998   30.3600 C   0  0  0  0  0  0  0  0  0  0  0  0
   -4.0783   -0.6107   31.0582 C   0  0  0  0  0  0  0  0  0  0  0  0
   -4.4592   -0.9163   32.1801 C   0  0  0  0  0  0  0  0  0  0  0  0
   -5.1280   -0.0637   33.1230 C   0  0  0  0  0  0  0  0  0  0  0  0
   -4.3179   -2.3155   32.6542 C   0  0  0  0  0  0  0  0  0  0  0  0
   -4.9497   -2.6348   33.9639 C   0  0  0  0  0  0  0  0  0  0  0  0
   -5.4437   -1.7298   34.7970 C   0  0  0  0  0  0  0  0  0  0  0  0
   -5.5847   -0.3907   34.4081 C   0  0  0  0  0  0  0  0  0  0  0  0
   -5.9533   -2.0803   36.1518 C   0  0  0  0  0  0  0  0  0  0  0  0
   -5.6422   -1.4107   37.2298 N   0  0  0  0  0  0  0  0  0  0  0  0
   -6.3555   -1.3380   38.3808 C   0  0  0  0  0  0  0  0  0  0  0  0
   -7.2573   -2.0243   38.6401 C   0  0  0  0  0  0  0  0  0  0  0  0
   -6.8679   -2.9885   36.2968 N   0  0  0  0  0  0  0  0  0  0  0  0
  2  3  1  0
  1  6  1  0
  4  7  1  0
  6  7  1  0
 11 12  1  0
 12 14  2  0
 15 17  1  0
  8 23  1  0
 27 29  1  0
 34 36  1  0
 36 37  1  0
 37 38  1  0
 38 39  1  0
 36 40  2  0
 29 30  1  0
  3  4  1  0
  4  5  2  0
  5  8  1  0
  8  9  2  0
  9 10  1  0
 10  3  2  0
 30 31  2  0
 31 35  1  0
 35 34  2  0
 34 33  1  0
 33 32  2  0
 32 30  1  0
 23 24  2  0
 24 25  1  0
 25 26  2  0
 26 28  1  0
 28 27  2  0
 27 23  1  0
 17 18  2  0
 18 19  1  0
 19 20  2  0
 20 21  1  0
 21 22  2  0
 22 17  1  0
  1  2  2  0
  2 16  1  0
 16 15  2  0
 15 13  1  0
 13 11  2  0
 11  1  1  0
M  END
$$$$
