No_5788-complexes_sdf/6BKW-FPZ/2024-09-17-14-21-01/
     RDKit          3D

 20 21  0  0  0  0  0  0  0  0999 V2000
   -7.9040    3.9820   27.1177 C   0  0  0  0  0  0  0  0  0  0  0  0
   -8.2057    2.8231   26.8733 C   0  0  0  0  0  0  0  0  0  0  0  0
   -7.0130    4.3706   28.1140 C   0  0  0  0  0  0  0  0  0  0  0  0
   -7.4093    1.7370   27.3857 C   0  0  0  0  0  0  0  0  0  0  0  0
   -6.1943    2.1490   28.0403 C   0  0  0  0  0  0  0  0  0  0  0  0
   -5.9708    3.4680   28.3199 C   0  0  0  0  0  0  0  0  0  0  0  0
   -8.9048    5.0960   26.7137 C   0  0  0  0  0  0  0  0  0  0  0  0
   -8.9964    6.2306   27.3733 N   0  0  0  0  0  0  0  0  0  0  0  0
   -9.7813    4.8186   25.7533 N   0  0  0  0  0  0  0  0  0  0  0  0
   -5.2231    1.0913   28.3936 C   0  0  0  0  0  0  0  0  0  0  0  0
   -5.4913   -0.0675   28.6708 O   0  0  0  0  0  0  0  0  0  0  0  0
   -3.8432    1.4434   28.3309 O   0  0  0  0  0  0  0  0  0  0  0  0
  -10.7705    3.9303   25.7554 C   0  0  0  0  0  0  0  0  0  0  0  0
  -11.4615    3.7340   24.5341 C   0  0  0  0  0  0  0  0  0  0  0  0
  -10.8778    3.8911   23.3482 C   0  0  0  0  0  0  0  0  0  0  0  0
  -11.2471    3.7307   22.3895 C   0  0  0  0  0  0  0  0  0  0  0  0
  -12.6196    3.3005   22.0901 C   0  0  0  0  0  0  0  0  0  0  0  0
  -13.3261    3.0412   23.2184 C   0  0  0  0  0  0  0  0  0  0  0  0
  -12.7794    3.2855   24.4432 C   0  0  0  0  0  0  0  0  0  0  0  0
  -11.2126    3.4393   26.8218 O   0  0  0  0  0  0  0  0  0  0  0  0
  1  7  1  0
  7  8  2  0
  7  9  1  0
  5 10  1  0
 10 11  2  0
 10 12  1  0
  9 13  1  0
 13 14  1  0
 13 20  2  0
  1  2  2  0
  2  4  1  0
  4  5  2  0
  5  6  1  0
  6  3  2  0
  3  1  1  0
 14 15  2  0
 15 16  1  0
 16 17  2  0
 17 18  1  0
 18 19  2  0
 19 14  1  0
M  END
$$$$
