No_532-complexes_sdf/6BKW-FPZ/2024-09-17-14-21-01/
     RDKit          3D

 15 16  0  0  0  0  0  0  0  0999 V2000
   -7.9040    3.9820   27.1177 C   0  0  0  0  0  0  0  0  0  0  0  0
   -8.2057    2.8231   26.8733 C   0  0  0  0  0  0  0  0  0  0  0  0
   -8.7695    5.0740   26.7916 C   0  0  0  0  0  0  0  0  0  0  0  0
   -9.9618    4.7598   26.1630 C   0  0  0  0  0  0  0  0  0  0  0  0
   -9.4200    2.4524   26.2849 C   0  0  0  0  0  0  0  0  0  0  0  0
  -10.2590    3.4815   25.9250 C   0  0  0  0  0  0  0  0  0  0  0  0
   -8.3837    6.4702   27.0872 C   0  0  0  0  0  0  0  0  0  0  0  0
   -7.9910    7.5367   27.0318 N   0  0  0  0  0  0  0  0  0  0  0  0
   -7.1154    1.4987   27.3887 Cl  0  0  0  0  0  0  0  0  0  0  0  0
  -11.5334    3.1513   25.2187 C   0  0  0  0  0  0  0  0  0  0  0  0
  -11.5843    2.0807   24.6421 C   0  0  0  0  0  0  0  0  0  0  0  0
  -12.6760    1.7625   23.8507 C   0  0  0  0  0  0  0  0  0  0  0  0
  -13.7436    2.6978   23.7799 C   0  0  0  0  0  0  0  0  0  0  0  0
  -13.6428    3.9231   24.4023 C   0  0  0  0  0  0  0  0  0  0  0  0
  -12.5150    4.2532   25.1532 C   0  0  0  0  0  0  0  0  0  0  0  0
  3  7  1  0
  7  8  3  0
  2  9  1  0
  6 10  1  0
  1  2  2  0
  2  5  1  0
  5  6  2  0
  6  4  1  0
  4  3  2  0
  3  1  1  0
 10 11  2  0
 11 12  1  0
 12 13  2  0
 13 14  1  0
 14 15  2  0
 15 10  1  0
M  END
$$$$
