No_5008-complexes_sdf/6BKW-FPZ/2024-09-17-14-21-01/
     RDKit          3D

 25 27  0  0  0  0  0  0  0  0999 V2000
   -7.9040    3.9820   27.1177 C   0  0  0  0  0  0  0  0  0  0  0  0
   -8.2057    2.8231   26.8733 C   0  0  0  0  0  0  0  0  0  0  0  0
   -8.7695    5.0740   26.7916 C   0  0  0  0  0  0  0  0  0  0  0  0
   -9.9618    4.7598   26.1630 C   0  0  0  0  0  0  0  0  0  0  0  0
   -9.4200    2.4524   26.2849 C   0  0  0  0  0  0  0  0  0  0  0  0
  -10.2590    3.4815   25.9250 C   0  0  0  0  0  0  0  0  0  0  0  0
   -8.3837    6.4702   27.0872 C   0  0  0  0  0  0  0  0  0  0  0  0
   -8.3914    6.7863   28.2307 F   0  0  0  0  0  0  0  0  0  0  0  0
   -9.2750    7.3331   26.4029 F   0  0  0  0  0  0  0  0  0  0  0  0
   -7.1133    1.7983   27.3511 C   0  0  0  0  0  0  0  0  0  0  0  0
   -7.5012    0.4629   27.5828 C   0  0  0  0  0  0  0  0  0  0  0  0
   -6.5146   -0.4256   28.0043 C   0  0  0  0  0  0  0  0  0  0  0  0
   -5.1776    0.0436   28.2009 C   0  0  0  0  0  0  0  0  0  0  0  0
   -4.9039    1.3891   27.9639 C   0  0  0  0  0  0  0  0  0  0  0  0
   -5.8071    2.2186   27.5601 C   0  0  0  0  0  0  0  0  0  0  0  0
   -7.1291    6.7555   26.6285 F   0  0  0  0  0  0  0  0  0  0  0  0
   -3.9985   -0.7693   28.6483 C   0  0  0  0  0  0  0  0  0  0  0  0
   -3.8653   -0.9867   29.9713 C   0  0  0  0  0  0  0  0  0  0  0  0
   -2.7770   -1.6525   30.4638 C   0  0  0  0  0  0  0  0  0  0  0  0
   -1.8538   -2.1804   29.5458 C   0  0  0  0  0  0  0  0  0  0  0  0
   -3.0596   -1.2164   27.7584 C   0  0  0  0  0  0  0  0  0  0  0  0
   -1.9685   -1.9301   28.1690 C   0  0  0  0  0  0  0  0  0  0  0  0
  -11.4973    3.1816   25.1894 C   0  0  0  0  0  0  0  0  0  0  0  0
  -11.6167    2.0153   24.6052 C   0  0  0  0  0  0  0  0  0  0  0  0
  -10.6993    1.1178   24.6545 C   0  0  0  0  0  0  0  0  0  0  0  0
  3  7  1  0
  7  8  1  0
  7  9  1  0
  2 10  1  0
  7 16  1  0
 13 17  1  0
  6 23  1  0
 23 24  2  3
 24 25  1  0
 17 18  2  0
 18 19  1  0
 19 20  2  0
 20 22  1  0
 22 21  2  0
 21 17  1  0
  1  2  2  0
  2  5  1  0
  5  6  2  0
  6  4  1  0
  4  3  2  0
  3  1  1  0
 10 11  2  0
 11 12  1  0
 12 13  2  0
 13 14  1  0
 14 15  2  0
 15 10  1  0
M  END
$$$$
