No_5283-complexes_sdf/6BKW-FPZ/2024-09-17-14-21-01/
     RDKit          3D

 14 15  0  0  0  0  0  0  0  0999 V2000
   -7.2496    3.8871   27.4508 C   0  0  0  0  0  0  0  0  0  0  0  0
   -8.5096    4.0291   27.2770 C   0  0  0  0  0  0  0  0  0  0  0  0
   -9.2677    5.1714   27.5773 C   0  0  0  0  0  0  0  0  0  0  0  0
   -9.3517    2.7730   27.3663 C   0  0  0  0  0  0  0  0  0  0  0  0
   -8.7153    1.6342   27.3102 C   0  0  0  0  0  0  0  0  0  0  0  0
   -6.5564    2.7053   27.4601 N   0  0  0  0  0  0  0  0  0  0  0  0
   -7.2613    1.5980   27.3665 C   0  0  0  0  0  0  0  0  0  0  0  0
   -6.3474    0.5459   27.3602 N   0  0  0  0  0  0  0  0  0  0  0  0
  -10.6255    5.3925   27.3940 C   0  0  0  0  0  0  0  0  0  0  0  0
   -5.1653    0.6199   27.8743 C   0  0  0  0  0  0  0  0  0  0  0  0
   -4.7226    1.1162   28.8985 C   0  0  0  0  0  0  0  0  0  0  0  0
  -11.4323    4.1841   27.3590 C   0  0  0  0  0  0  0  0  0  0  0  0
  -10.7790    2.8228   27.3665 C   0  0  0  0  0  0  0  0  0  0  0  0
   -3.3551    0.8987   29.4141 C   0  0  0  0  0  0  0  0  0  0  0  0
  7  8  1  0
  8 10  1  0
 10 11  2  3
 11 14  1  0
  1  2  2  0
  4  5  2  0
  5  7  1  0
  7  6  2  0
  6  1  1  0
  2  3  1  0
  3  9  2  0
  9 12  1  0
 12 13  2  0
 13  4  1  0
  4  2  1  0
M  END
$$$$
