No_561-complexes_sdf/6BKW-FPZ/2024-09-17-14-21-01/
     RDKit          3D

 22 24  0  0  0  0  0  0  0  0999 V2000
   -7.9040    3.9820   27.1177 C   0  0  0  0  0  0  0  0  0  0  0  0
   -9.0711    4.3164   27.0630 C   0  0  0  0  0  0  0  0  0  0  0  0
   -9.8698    3.9665   25.9495 C   0  0  0  0  0  0  0  0  0  0  0  0
   -7.0332    4.5030   28.2025 C   0  0  2  0  0  0  0  0  0  0  0  0
   -9.4357    2.9501   25.1393 C   0  0  0  0  0  0  0  0  0  0  0  0
  -10.2810    2.6266   24.0411 C   0  0  0  0  0  0  0  0  0  0  0  0
   -7.7787    5.4357   28.8257 N   0  0  0  0  0  0  0  0  0  0  0  0
   -9.0547    5.4132   28.0833 C   0  0  0  0  0  0  0  0  0  0  0  0
   -9.9269    1.5144   23.2379 C   0  0  0  0  0  0  0  0  0  0  0  0
   -8.8184    0.7003   23.6437 C   0  0  0  0  0  0  0  0  0  0  0  0
   -8.1518    0.9673   24.8120 C   0  0  0  0  0  0  0  0  0  0  0  0
   -8.4418    2.0457   25.6087 C   0  0  0  0  0  0  0  0  0  0  0  0
   -7.5252    2.4974   26.6369 C   0  0  0  0  0  0  0  0  0  0  0  0
  -11.3354    3.4468   23.5321 C   0  0  0  0  0  0  0  0  0  0  0  0
  -12.3382    3.4990   24.0503 O   0  0  0  0  0  0  0  0  0  0  0  0
  -10.8949    4.5243   22.7686 O   0  0  0  0  0  0  0  0  0  0  0  0
   -5.7895    4.2133   28.4202 N   0  0  0  0  0  0  0  0  0  0  0  0
   -8.5105   -0.5167   22.8915 C   0  0  0  0  0  0  0  0  0  0  0  0
   -9.0498   -0.4964   21.7005 F   0  0  0  0  0  0  0  0  0  0  0  0
   -7.1570   -0.4881   22.7558 F   0  0  0  0  0  0  0  0  0  0  0  0
   -8.8585   -1.6166   23.4748 F   0  0  0  0  0  0  0  0  0  0  0  0
  -11.7418    4.9678   21.8305 C   0  0  0  0  0  0  0  0  0  0  0  0
  1  4  1  0
  4  7  1  0
  2  8  1  0
  7  8  2  0
  6 14  1  0
 14 15  2  0
 14 16  1  0
  4 17  1  6
 10 18  1  0
 18 19  1  0
 18 20  1  0
 18 21  1  0
 16 22  1  0
  1  2  1  0
  2  3  2  0
  3  5  1  0
 12 13  1  0
 13  1  2  0
  5  6  2  0
  6  9  1  0
  9 10  2  0
 10 11  1  0
 11 12  2  0
 12  5  1  0
M  END
$$$$
