No_5137-complexes_sdf/6BKW-FPZ/2024-09-17-14-21-01/
     RDKit          3D

 40 43  0  0  0  0  0  0  0  0999 V2000
   -7.7129    4.2099   27.0854 C   0  0  0  0  0  0  0  0  0  0  0  0
   -8.2112    3.0637   26.9225 C   0  0  0  0  0  0  0  0  0  0  0  0
   -8.5108    5.3904   26.9436 C   0  0  0  0  0  0  0  0  0  0  0  0
   -7.9752    6.6981   27.2112 C   0  0  0  0  0  0  0  0  0  0  0  0
   -9.5213    2.8208   26.4688 C   0  0  0  0  0  0  0  0  0  0  0  0
  -10.2979    3.9327   26.2378 C   0  0  0  0  0  0  0  0  0  0  0  0
   -9.7894    5.2123   26.4395 C   0  0  0  0  0  0  0  0  0  0  0  0
   -7.4103    1.9359   27.1791 F   0  0  0  0  0  0  0  0  0  0  0  0
   -8.0598    7.7642   26.6268 N   0  0  0  0  0  0  0  0  0  0  0  0
   -6.9083    6.6447   28.1896 N   0  0  0  0  0  0  0  0  0  0  0  0
   -9.9580    1.4289   26.2449 C   0  0  0  0  0  0  0  0  0  0  0  0
  -10.5473    0.7913   27.2449 C   0  0  0  0  0  0  0  0  0  0  0  0
  -10.9345   -0.5881   27.2476 C   0  0  0  0  0  0  0  0  0  0  0  0
  -10.6389   -1.2480   26.0938 C   0  0  0  0  0  0  0  0  0  0  0  0
   -9.6177    0.6347   25.1687 C   0  0  0  0  0  0  0  0  0  0  0  0
   -8.9070    1.3389   23.9916 C   0  0  0  0  0  0  0  0  0  0  0  0
   -9.9780   -0.6885   25.0249 C   0  0  0  0  0  0  0  0  0  0  0  0
   -9.6129    1.2737   22.7626 C   0  0  0  0  0  0  0  0  0  0  0  0
  -10.7677    1.9609   22.5987 C   0  0  0  0  0  0  0  0  0  0  0  0
  -11.4193    1.8985   21.3432 C   0  0  0  0  0  0  0  0  0  0  0  0
  -10.8592    1.0346   20.3922 C   0  0  0  0  0  0  0  0  0  0  0  0
   -9.1407    0.5888   21.5690 C   0  0  0  0  0  0  0  0  0  0  0  0
   -9.7388    0.4379   20.4961 C   0  0  0  0  0  0  0  0  0  0  0  0
  -11.5901   -1.2093   28.4217 C   0  0  0  0  0  0  0  0  0  0  0  0
  -12.2905   -2.0570   28.0449 F   0  0  0  0  0  0  0  0  0  0  0  0
  -12.2286   -0.1866   29.0826 F   0  0  0  0  0  0  0  0  0  0  0  0
  -10.5654   -1.6101   29.2280 F   0  0  0  0  0  0  0  0  0  0  0  0
  -12.7177    2.6064   21.1028 C   0  0  0  0  0  0  0  0  0  0  0  0
  -12.9276    3.1372   20.2400 F   0  0  0  0  0  0  0  0  0  0  0  0
  -12.8680    3.4918   22.1731 F   0  0  0  0  0  0  0  0  0  0  0  0
  -13.6946    1.6331   21.4162 F   0  0  0  0  0  0  0  0  0  0  0  0
  -11.6956    3.8384   25.7396 C   0  0  0  0  0  0  0  0  0  0  0  0
  -12.7313    3.8760   26.5098 N   0  0  0  0  0  0  0  0  0  0  0  0
  -12.6070    4.0277   27.8653 C   0  0  0  0  0  0  0  0  0  0  0  0
  -13.8439    4.0347   28.6840 C   0  0  0  0  0  0  0  0  0  0  0  0
  -14.0218    4.0310   26.0401 C   0  0  0  0  0  0  0  0  0  0  0  0
  -15.1736    4.0648   26.6997 C   0  0  0  0  0  0  0  0  0  0  0  0
  -15.0453    4.1698   28.1189 C   0  0  0  0  0  0  0  0  0  0  0  0
  -16.6089    4.2909   29.1773 Br  0  0  0  0  0  0  0  0  0  0  0  0
  -11.8137    3.7621   24.5200 O   0  0  0  0  0  0  0  0  0  0  0  0
  3  4  1  0
  2  8  1  0
  4  9  2  0
  4 10  1  0
  5 11  1  0
 15 16  1  0
 16 18  1  0
 13 24  1  0
 24 25  1  0
 24 26  1  0
 24 27  1  0
 20 28  1  0
 28 29  1  0
 28 30  1  0
 28 31  1  0
  6 32  1  0
 32 33  1  0
 33 34  1  0
 33 36  1  0
 35 38  1  0
 37 38  1  0
 38 39  1  0
 32 40  2  0
 34 35  1  0
 37 36  1  0
 18 19  2  0
 19 20  1  0
 20 21  2  0
 21 23  1  0
 23 22  2  0
 22 18  1  0
  1  2  2  0
  2  5  1  0
  5  6  2  0
  6  7  1  0
  7  3  2  0
  3  1  1  0
 11 12  2  0
 12 13  1  0
 13 14  2  0
 14 17  1  0
 17 15  2  0
 15 11  1  0
M  END
$$$$
