No_5027-complexes_sdf/6BKW-FPZ/2024-09-17-14-21-01/
     RDKit          3D

 27 29  0  0  0  0  0  0  0  0999 V2000
   -7.7129    4.2099   27.0854 C   0  0  0  0  0  0  0  0  0  0  0  0
   -7.7814    5.1722   27.8972 C   0  0  0  0  0  0  0  0  0  0  0  0
   -8.8998    3.8713   26.3707 C   0  0  0  0  0  0  0  0  0  0  0  0
   -9.9938    4.6774   26.5446 C   0  0  0  0  0  0  0  0  0  0  0  0
   -8.7789    6.1536   27.9256 C   0  0  0  0  0  0  0  0  0  0  0  0
   -9.9428    5.8398   27.2296 C   0  0  0  0  0  0  0  0  0  0  0  0
   -8.9119    2.6447   25.5685 C   0  0  0  0  0  0  0  0  0  0  0  0
   -9.7965    2.5353   24.5160 C   0  0  0  0  0  0  0  0  0  0  0  0
   -9.8470    1.4006   23.7115 C   0  0  0  0  0  0  0  0  0  0  0  0
   -8.8958    0.3527   23.9867 C   0  0  0  0  0  0  0  0  0  0  0  0
   -8.0531    0.4472   25.0634 C   0  0  0  0  0  0  0  0  0  0  0  0
   -8.0207    1.5886   25.8749 C   0  0  0  0  0  0  0  0  0  0  0  0
  -10.8728    1.2919   22.3963 Cl  0  0  0  0  0  0  0  0  0  0  0  0
   -6.6415    5.5714   28.5792 F   0  0  0  0  0  0  0  0  0  0  0  0
   -7.1161   -0.6489   25.3416 C   0  0  0  0  0  0  0  0  0  0  0  0
   -7.4016   -1.4053   26.0461 O   0  0  0  0  0  0  0  0  0  0  0  0
   -6.1469   -0.8159   24.3577 O   0  0  0  0  0  0  0  0  0  0  0  0
   -5.0259   -1.4090   24.8194 C   0  0  0  0  0  0  0  0  0  0  0  0
   -4.1971   -0.6148   25.6600 C   0  0  0  0  0  0  0  0  0  0  0  0
   -3.1337   -1.3152   26.3743 C   0  0  0  0  0  0  0  0  0  0  0  0
   -2.3806   -0.5624   27.3295 C   0  0  0  0  0  0  0  0  0  0  0  0
   -2.7977    0.3477   27.9390 C   0  0  0  0  0  0  0  0  0  0  0  0
   -3.9989    1.0734   27.5096 C   0  0  0  0  0  0  0  0  0  0  0  0
   -4.7276    0.4292   26.4855 C   0  0  0  0  0  0  0  0  0  0  0  0
   -4.4035    2.0691   28.2363 O   0  0  0  0  0  0  0  0  0  0  0  0
   -4.7106   -2.4962   24.2619 O   0  0  0  0  0  0  0  0  0  0  0  0
   -0.8892   -1.4309   27.8392 Cl  0  0  0  0  0  0  0  0  0  0  0  0
  3  7  1  0
  9 13  1  0
  2 14  1  0
 11 15  1  0
 15 16  2  0
 15 17  1  0
 17 18  1  0
 18 19  1  0
 23 25  1  0
 18 26  2  0
 21 27  1  0
 19 20  2  0
 20 21  1  0
 21 22  2  0
 22 23  1  0
 23 24  2  0
 24 19  1  0
  1  2  2  0
  2  5  1  0
  5  6  2  0
  6  4  1  0
  4  3  2  0
  3  1  1  0
  7  8  2  0
  8  9  1  0
  9 10  2  0
 10 11  1  0
 11 12  2  0
 12  7  1  0
M  END
$$$$
