No_5637-complexes_sdf/6BKW-FPZ/2024-09-17-14-21-01/
     RDKit          3D

 26 29  0  0  0  0  0  0  0  0999 V2000
   -7.7129    4.2099   27.0854 C   0  0  0  0  0  0  0  0  0  0  0  0
   -8.2112    3.0637   26.9225 C   0  0  0  0  0  0  0  0  0  0  0  0
   -9.4446    2.8304   26.1868 C   0  0  0  0  0  0  0  0  0  0  0  0
   -8.4697    5.3956   26.7238 C   0  0  0  0  0  0  0  0  0  0  0  0
   -9.6172    5.2111   25.9513 C   0  0  0  0  0  0  0  0  0  0  0  0
  -10.0424    3.9782   25.6873 C   0  0  0  0  0  0  0  0  0  0  0  0
   -7.9172    6.7181   27.0124 C   0  0  0  0  0  0  0  0  0  0  0  0
   -8.4852    7.8665   26.4359 C   0  0  0  0  0  0  0  0  0  0  0  0
   -7.4914    1.8052   27.3828 C   0  0  0  0  0  0  0  0  0  0  0  0
   -8.0595    0.6130   27.3029 N   0  0  0  0  0  0  0  0  0  0  0  0
   -6.1906    1.8848   27.7568 N   0  0  0  0  0  0  0  0  0  0  0  0
   -7.4301   -0.4673   27.5637 C   0  0  0  0  0  0  0  0  0  0  0  0
   -5.4744    0.8150   28.1202 C   0  0  0  0  0  0  0  0  0  0  0  0
   -6.0753   -0.4009   28.0594 C   0  0  0  0  0  0  0  0  0  0  0  0
   -4.1801    0.9962   28.5126 N   0  0  0  0  0  0  0  0  0  0  0  0
   -3.4443   -0.0364   29.0883 C   0  0  0  0  0  0  0  0  0  0  0  0
   -2.2515   -0.0695   29.3064 C   0  0  0  0  0  0  0  0  0  0  0  0
   -4.1965   -1.2115   29.5579 C   0  0  0  0  0  0  0  0  0  0  0  0
   -5.4907   -1.4325   28.9002 C   0  0  0  0  0  0  0  0  0  0  0  0
   -1.5352   -1.0464   30.1096 C   0  0  0  0  0  0  0  0  0  0  0  0
   -2.3643   -2.1406   30.5388 C   0  0  0  0  0  0  0  0  0  0  0  0
   -3.6413   -2.2376   30.2405 C   0  0  0  0  0  0  0  0  0  0  0  0
   -6.9713    6.7505   27.9282 O   0  0  0  0  0  0  0  0  0  0  0  0
   -8.1692   -1.6996   27.6285 C   0  0  0  0  0  0  0  0  0  0  0  0
   -8.0601   -2.6244   26.7102 C   0  0  0  0  0  0  0  0  0  0  0  0
   -8.8225   -3.8437   26.7467 C   0  0  0  0  0  0  0  0  0  0  0  0
  4  7  1  0
  7  8  1  0
  2  9  1  0
  7 23  2  0
 12 24  1  0
 24 25  2  3
 25 26  1  0
  9 10  2  0
 10 12  1  0
 12 14  2  0
 13 11  2  0
 11  9  1  0
 13 14  1  0
 14 19  1  0
 19 18  2  0
 16 15  2  0
 15 13  1  0
  1  2  2  0
  2  3  1  0
  3  6  2  0
  6  5  1  0
  5  4  2  0
  4  1  1  0
 16 17  1  0
 17 20  2  0
 20 21  1  0
 21 22  2  0
 22 18  1  0
 18 16  1  0
M  END
$$$$
