No_5328-complexes_sdf/6BKW-FPZ/2024-09-17-14-21-01/
     RDKit          3D

 25 27  0  0  0  0  0  0  0  0999 V2000
   -7.9040    3.9820   27.1177 C   0  0  0  0  0  0  0  0  0  0  0  0
   -8.2057    2.8231   26.8733 C   0  0  0  0  0  0  0  0  0  0  0  0
   -8.7695    5.0740   26.7916 C   0  0  0  0  0  0  0  0  0  0  0  0
   -8.4337    6.4678   27.0913 C   0  0  0  0  0  0  0  0  0  0  0  0
   -9.3742    2.4311   26.2346 C   0  0  0  0  0  0  0  0  0  0  0  0
  -10.2395    3.4267   25.8887 C   0  0  0  0  0  0  0  0  0  0  0  0
   -9.9567    4.7548   26.1374 C   0  0  0  0  0  0  0  0  0  0  0  0
   -8.5487    6.7970   28.2303 F   0  0  0  0  0  0  0  0  0  0  0  0
   -9.2267    7.3313   26.2905 F   0  0  0  0  0  0  0  0  0  0  0  0
   -7.0999    6.7109   26.8189 F   0  0  0  0  0  0  0  0  0  0  0  0
   -7.2401    1.6939   27.3123 C   0  0  0  0  0  0  0  0  0  0  0  0
   -6.8340    0.7602   26.7767 Cl  0  0  0  0  0  0  0  0  0  0  0  0
  -11.4614    3.1784   25.1033 C   0  0  0  0  0  0  0  0  0  0  0  0
  -12.5637    2.6245   25.7434 C   0  0  0  0  0  0  0  0  0  0  0  0
  -13.7323    2.3735   25.0380 C   0  0  0  0  0  0  0  0  0  0  0  0
  -11.2555    2.5871   23.8075 C   0  0  0  0  0  0  0  0  0  0  0  0
  -12.3794    2.3300   23.0007 C   0  0  0  0  0  0  0  0  0  0  0  0
  -12.1703    1.9896   21.6161 C   0  0  0  0  0  0  0  0  0  0  0  0
  -13.5874    2.1087   23.6372 C   0  0  0  0  0  0  0  0  0  0  0  0
  -11.5962    2.7943   20.8171 C   0  0  0  0  0  0  0  0  0  0  0  0
  -10.8542    3.9194   21.3494 C   0  0  0  0  0  0  0  0  0  0  0  0
   -9.8967    4.5652   20.4341 C   0  0  0  0  0  0  0  0  0  0  0  0
   -9.9981    4.2653   19.1080 C   0  0  0  0  0  0  0  0  0  0  0  0
  -10.7224    3.2540   18.5992 C   0  0  0  0  0  0  0  0  0  0  0  0
  -11.4346    2.4724   19.4523 C   0  0  0  0  0  0  0  0  0  0  0  0
  3  4  1  0
  4  8  1  0
  4  9  1  0
  4 10  1  0
  2 11  1  0
 11 12  1  0
  6 13  1  0
 17 18  1  0
 18 20  1  0
 13 14  2  0
 14 15  1  0
 15 19  2  0
 19 17  1  0
 17 16  2  0
 16 13  1  0
  1  2  2  0
  2  5  1  0
  5  6  2  0
  6  7  1  0
  7  3  2  0
  3  1  1  0
 20 21  2  0
 21 22  1  0
 22 23  2  0
 23 24  1  0
 24 25  2  0
 25 20  1  0
M  END
$$$$
