No_5396-complexes_sdf/6BKW-FPZ/2024-09-17-14-21-01/
     RDKit          3D

 17 18  0  0  0  0  0  0  0  0999 V2000
   -7.2496    3.8871   27.4508 C   0  0  0  0  0  0  0  0  0  0  0  0
   -7.9379    4.9063   27.8518 C   0  0  1  0  0  0  0  0  0  0  0  0
   -7.5112    6.1898   27.6280 C   0  0  0  0  0  0  0  0  0  0  0  0
   -9.3085    4.6933   28.2930 C   0  0  0  0  0  0  0  0  0  0  0  0
   -7.7804    2.5137   27.6845 C   0  0  0  0  0  0  0  0  0  0  0  0
   -8.5337    2.1142   26.6680 C   0  0  1  0  0  0  0  0  0  0  0  0
   -8.3386    0.9291   26.1449 C   0  0  0  0  0  0  0  0  0  0  0  0
   -9.2441    0.1366   26.2048 C   0  0  0  0  0  0  0  0  0  0  0  0
   -9.5946    2.9873   26.2540 C   0  0  1  0  0  0  0  0  0  0  0  0
  -10.0210    4.1681   27.0212 C   0  0  0  0  0  0  0  0  0  0  0  0
  -10.4448    0.3419   26.7090 C   0  0  0  0  0  0  0  0  0  0  0  0
  -11.0164   -0.0810   27.5227 C   0  0  0  0  0  0  0  0  0  0  0  0
  -12.3519    0.2460   28.1539 C   0  0  0  0  0  0  0  0  0  0  0  0
  -12.9291    1.3581   27.6573 C   0  0  0  0  0  0  0  0  0  0  0  0
  -12.3597    2.0117   26.6427 C   0  0  0  0  0  0  0  0  0  0  0  0
  -11.0979    1.6525   26.1776 C   0  0  0  0  0  0  0  0  0  0  0  0
   -9.5404    3.2129   24.7747 C   0  0  0  0  0  0  0  0  0  0  0  0
  1  2  1  0
  2  3  1  6
  2  4  1  0
  1  5  1  0
  6  5  1  1
  6  7  1  0
  7  8  2  3
  6  9  1  0
  4 10  1  0
  9 10  1  0
  8 11  1  0
  9 17  1  6
 11 12  2  0
 12 13  1  0
 13 14  2  0
 14 15  1  0
 15 16  2  0
 16 11  1  0
M  END
$$$$
