No_5094-complexes_sdf/6BKW-FPZ/2024-09-17-14-21-01/
     RDKit          3D

 31 34  0  0  0  0  0  0  0  0999 V2000
   -7.9040    3.9820   27.1177 C   0  0  0  0  0  0  0  0  0  0  0  0
   -7.8663    4.8694   27.9238 C   0  0  0  0  0  0  0  0  0  0  0  0
   -9.0501    3.8017   26.2617 C   0  0  0  0  0  0  0  0  0  0  0  0
  -10.0189    4.7608   26.3707 C   0  0  0  0  0  0  0  0  0  0  0  0
   -8.6770    5.9780   27.9222 C   0  0  0  0  0  0  0  0  0  0  0  0
   -9.8040    5.8752   27.0958 C   0  0  0  0  0  0  0  0  0  0  0  0
   -9.1317    2.6414   25.4147 C   0  0  0  0  0  0  0  0  0  0  0  0
   -9.9416    2.7613   24.3677 N   0  0  0  0  0  0  0  0  0  0  0  0
  -10.5713    3.9085   24.1314 C   0  0  0  0  0  0  0  0  0  0  0  0
  -10.8107    4.8492   25.1924 N   0  0  0  0  0  0  0  0  0  0  0  0
  -11.5150    4.0891   23.1489 N   0  0  0  0  0  0  0  0  0  0  0  0
  -12.6769    4.1727   22.9932 C   0  0  0  0  0  0  0  0  0  0  0  0
  -10.7400    4.5241   21.9095 C   0  0  0  0  0  0  0  0  0  0  0  0
  -13.4113    3.2573   22.7763 C   0  0  0  0  0  0  0  0  0  0  0  0
  -13.8206    2.5400   23.3432 C   0  0  0  0  0  0  0  0  0  0  0  0
  -13.9721    3.4154   21.3294 C   0  0  0  0  0  0  0  0  0  0  0  0
  -14.6841    1.3844   22.9580 C   0  0  0  0  0  0  0  0  0  0  0  0
  -14.8168    2.4175   20.8253 C   0  0  0  0  0  0  0  0  0  0  0  0
  -15.1778    1.4216   21.6953 C   0  0  0  0  0  0  0  0  0  0  0  0
   -6.8949    2.8272   27.2582 C   0  0  0  0  0  0  0  0  0  0  0  0
   -6.5456    2.0398   28.0346 C   0  0  0  0  0  0  0  0  0  0  0  0
   -5.5382    1.0382   27.8229 C   0  0  0  0  0  0  0  0  0  0  0  0
   -5.0541    0.2535   28.8754 C   0  0  0  0  0  0  0  0  0  0  0  0
   -4.3097   -0.8923   28.7208 C   0  0  0  0  0  0  0  0  0  0  0  0
   -3.8640   -1.1858   27.4409 C   0  0  0  0  0  0  0  0  0  0  0  0
   -4.2561   -0.4512   26.3597 C   0  0  0  0  0  0  0  0  0  0  0  0
   -5.0794    0.5968   26.5400 C   0  0  0  0  0  0  0  0  0  0  0  0
   -3.8020   -1.5894   29.9295 C   0  0  0  0  0  0  0  0  0  0  0  0
   -4.4852   -1.7917   30.6443 F   0  0  0  0  0  0  0  0  0  0  0  0
   -3.2056   -2.7983   29.4371 F   0  0  0  0  0  0  0  0  0  0  0  0
   -2.6332   -0.8955   30.3942 F   0  0  0  0  0  0  0  0  0  0  0  0
  9 11  1  0
 11 12  1  0
 11 13  1  0
 12 14  1  0
  1 20  1  0
 20 21  1  0
 21 22  1  0
 24 28  1  0
 28 29  1  0
 28 30  1  0
 28 31  1  0
  4 10  2  0
 10  9  1  0
  9  8  2  0
  8  7  1  0
  7  3  2  0
 22 23  2  0
 23 24  1  0
 24 25  2  0
 25 26  1  0
 26 27  2  0
 27 22  1  0
  1  2  2  0
  2  5  1  0
  5  6  2  0
  6  4  1  0
  4  3  1  0
  3  1  1  0
 14 15  2  0
 15 17  1  0
 17 19  2  0
 19 18  1  0
 18 16  2  0
 16 14  1  0
M  END
$$$$
