No_5709-complexes_sdf/6BKW-FPZ/2024-09-17-14-21-01/
     RDKit          3D

 16 18  0  0  0  0  0  0  0  0999 V2000
   -7.7129    4.2099   27.0854 C   0  0  0  0  0  0  0  0  0  0  0  0
   -7.7814    5.1722   27.8972 C   0  0  0  0  0  0  0  0  0  0  0  0
   -8.8776    3.8408   26.3416 C   0  0  0  0  0  0  0  0  0  0  0  0
   -9.9844    4.6492   26.4743 C   0  0  0  0  0  0  0  0  0  0  0  0
   -8.8033    6.1375   27.8728 C   0  0  0  0  0  0  0  0  0  0  0  0
   -9.9554    5.8280   27.1736 C   0  0  0  0  0  0  0  0  0  0  0  0
   -8.8740    2.6184   25.5584 C   0  0  0  0  0  0  0  0  0  0  0  0
   -8.2606    1.4639   26.1340 C   0  0  1  0  0  0  0  0  0  0  0  0
   -7.8238    1.4892   27.3984 C   0  0  0  0  0  0  0  0  0  0  0  0
   -7.1140    2.7426   27.8329 C   0  0  0  0  0  0  0  0  0  0  0  0
   -8.5325    0.1794   25.5014 C   0  0  0  0  0  0  0  0  0  0  0  0
   -9.5379   -0.3667   25.5371 C   0  0  0  0  0  0  0  0  0  0  0  0
   -9.8075   -1.5739   24.9408 C   0  0  0  0  0  0  0  0  0  0  0  0
   -7.3749   -0.2978   24.7957 C   0  0  0  0  0  0  0  0  0  0  0  0
   -7.4620   -1.4950   24.0604 C   0  0  0  0  0  0  0  0  0  0  0  0
   -8.7169   -2.1556   24.1805 C   0  0  0  0  0  0  0  0  0  0  0  0
  3  7  1  0
  7  8  1  0
  8  9  1  0
  1 10  1  0
  9 10  1  0
  8 11  1  1
  1  2  2  0
  2  5  1  0
  5  6  2  0
  6  4  1  0
  4  3  2  0
  3  1  1  0
 11 12  2  0
 12 13  1  0
 13 16  2  0
 16 15  1  0
 15 14  2  0
 14 11  1  0
M  END
$$$$
