No_5523-complexes_sdf/6BKW-FPZ/2024-09-17-14-21-01/
     RDKit          3D

  9  9  0  0  0  0  0  0  0  0999 V2000
   -7.7129    4.2099   27.0854 C   0  0  0  0  0  0  0  0  0  0  0  0
   -8.2112    3.0637   26.9225 C   0  0  0  0  0  0  0  0  0  0  0  0
   -8.5108    5.3904   26.9436 C   0  0  0  0  0  0  0  0  0  0  0  0
   -7.9752    6.6981   27.2112 C   0  0  0  0  0  0  0  0  0  0  0  0
   -7.4938    1.8178   27.3608 C   0  0  0  0  0  0  0  0  0  0  0  0
   -7.9553    0.5308   27.1577 C   0  0  0  0  0  0  0  0  0  0  0  0
   -9.3187    0.4484   26.7039 C   0  0  0  0  0  0  0  0  0  0  0  0
  -10.0295    1.5648   26.3528 C   0  0  0  0  0  0  0  0  0  0  0  0
   -9.4848    2.8460   26.4847 C   0  0  0  0  0  0  0  0  0  0  0  0
  1  2  1  0
  1  3  2  3
  3  4  1  0
  2  5  2  0
  5  6  1  0
  6  7  2  0
  7  8  1  0
  8  9  2  0
  9  2  1  0
M  END
$$$$
