No_517-complexes_sdf/6BKW-FPZ/2024-09-17-14-21-01/
     RDKit          3D

 29 32  0  0  0  0  0  0  0  0999 V2000
   -7.9040    3.9820   27.1177 C   0  0  0  0  0  0  0  0  0  0  0  0
   -7.8663    4.8694   27.9238 C   0  0  0  0  0  0  0  0  0  0  0  0
   -9.0806    3.1428   27.1220 C   0  0  0  0  0  0  0  0  0  0  0  0
  -10.1072    3.3606   27.8219 C   0  0  0  0  0  0  0  0  0  0  0  0
   -8.9918    5.4653   28.5483 C   0  0  0  0  0  0  0  0  0  0  0  0
  -10.1493    4.6383   28.6025 C   0  0  0  0  0  0  0  0  0  0  0  0
   -8.9761    1.8223   26.3519 C   0  0  0  0  0  0  0  0  0  0  0  0
   -9.4812    1.9055   25.0562 C   0  0  0  0  0  0  0  0  0  0  0  0
   -9.4053    0.8449   24.1584 C   0  0  0  0  0  0  0  0  0  0  0  0
   -9.8566    1.0015   22.8139 C   0  0  0  0  0  0  0  0  0  0  0  0
  -10.3181    2.2663   22.3567 C   0  0  0  0  0  0  0  0  0  0  0  0
  -10.3311    3.3431   23.2624 C   0  0  0  0  0  0  0  0  0  0  0  0
   -9.9073    3.2270   24.5804 C   0  0  0  0  0  0  0  0  0  0  0  0
   -7.5590    1.2958   26.4942 C   0  0  0  0  0  0  0  0  0  0  0  0
   -9.9630    0.7533   27.0482 C   0  0  0  0  0  0  0  0  0  0  0  0
   -9.4419   -0.4143   27.4323 C   0  0  0  0  0  0  0  0  0  0  0  0
  -11.3030    0.9922   27.1875 C   0  0  0  0  0  0  0  0  0  0  0  0
  -10.2715   -1.3367   28.0915 C   0  0  0  0  0  0  0  0  0  0  0  0
  -12.1522    0.0529   27.7612 C   0  0  0  0  0  0  0  0  0  0  0  0
  -11.6025   -1.0775   28.2645 C   0  0  0  0  0  0  0  0  0  0  0  0
  -10.8332    4.6276   22.7337 C   0  0  0  0  0  0  0  0  0  0  0  0
  -10.9431    5.5679   23.6320 N   0  0  0  0  0  0  0  0  0  0  0  0
  -11.0834    4.7344   21.5363 O   0  0  0  0  0  0  0  0  0  0  0  0
   -7.0992    0.3618   25.7503 C   0  0  0  0  0  0  0  0  0  0  0  0
   -5.7997   -0.2007   25.9886 C   0  0  0  0  0  0  0  0  0  0  0  0
   -4.9772    0.2820   26.9986 C   0  0  0  0  0  0  0  0  0  0  0  0
   -5.5474    1.3333   27.8396 C   0  0  0  0  0  0  0  0  0  0  0  0
   -6.7323    1.7635   27.6397 C   0  0  0  0  0  0  0  0  0  0  0  0
   -4.7129    1.7632   28.8305 O   0  0  0  0  0  0  0  0  0  0  0  0
  3  7  1  0
  7  8  1  0
  7 14  1  0
  7 15  1  0
 12 21  1  0
 21 22  1  0
 21 23  2  0
 27 29  1  0
 14 24  2  0
 24 25  1  0
 25 26  2  0
 26 27  1  0
 27 28  2  0
 28 14  1  0
  8  9  2  0
  9 10  1  0
 10 11  2  0
 11 12  1  0
 12 13  2  0
 13  8  1  0
  1  2  2  0
  2  5  1  0
  5  6  2  0
  6  4  1  0
  4  3  2  0
  3  1  1  0
 15 16  2  0
 16 18  1  0
 18 20  2  0
 20 19  1  0
 19 17  2  0
 17 15  1  0
M  END
$$$$
