No_5131-complexes_sdf/6BKW-FPZ/2024-09-17-14-21-01/
     RDKit          3D

 12 13  0  0  0  0  0  0  0  0999 V2000
   -7.7129    4.2099   27.0854 C   0  0  0  0  0  0  0  0  0  0  0  0
   -8.2112    3.0637   26.9225 C   0  0  0  0  0  0  0  0  0  0  0  0
   -8.5108    5.3904   26.9436 C   0  0  0  0  0  0  0  0  0  0  0  0
   -9.7256    5.1955   26.3518 C   0  0  0  0  0  0  0  0  0  0  0  0
   -7.4704    1.8386   27.3272 C   0  0  0  0  0  0  0  0  0  0  0  0
   -9.4948    2.8714   26.4765 C   0  0  0  0  0  0  0  0  0  0  0  0
  -10.2383    3.9753   26.1836 C   0  0  0  0  0  0  0  0  0  0  0  0
   -6.1705    1.9918   27.7118 N   0  0  0  0  0  0  0  0  0  0  0  0
   -7.7744    0.5312   26.9766 C   0  0  0  0  0  0  0  0  0  0  0  0
   -6.8804   -0.4186   27.3464 C   0  0  0  0  0  0  0  0  0  0  0  0
   -5.3516    1.0216   28.0984 C   0  0  0  0  0  0  0  0  0  0  0  0
   -5.6948   -0.2436   27.9338 C   0  0  0  0  0  0  0  0  0  0  0  0
  2  5  1  0
  1  2  2  0
  2  6  1  0
  6  7  2  0
  7  4  1  0
  4  3  2  0
  3  1  1  0
  5  8  2  0
  8 11  1  0
 11 12  2  0
 12 10  1  0
 10  9  2  0
  9  5  1  0
M  END
$$$$
