No_5358-complexes_sdf/6BKW-FPZ/2024-09-17-14-21-01/
     RDKit          3D

 27 30  0  0  0  0  0  0  0  0999 V2000
   -7.7129    4.2099   27.0854 C   0  0  0  0  0  0  0  0  0  0  0  0
   -7.7814    5.1722   27.8972 C   0  0  0  0  0  0  0  0  0  0  0  0
   -8.8255    3.2789   27.1191 C   0  0  0  0  0  0  0  0  0  0  0  0
   -9.9209    3.4734   27.9101 C   0  0  0  0  0  0  0  0  0  0  0  0
  -10.0316    4.7089   28.6463 C   0  0  0  0  0  0  0  0  0  0  0  0
   -8.9258    5.5669   28.6427 C   0  0  0  0  0  0  0  0  0  0  0  0
   -8.6970    1.9978   26.3619 C   0  0  0  0  0  0  0  0  0  0  0  0
   -9.1595    2.0002   25.0585 C   0  0  0  0  0  0  0  0  0  0  0  0
   -8.0543    0.8759   26.9127 C   0  0  0  0  0  0  0  0  0  0  0  0
   -8.0524   -0.3146   26.3771 C   0  0  0  0  0  0  0  0  0  0  0  0
   -9.8410    3.0847   24.5427 C   0  0  0  0  0  0  0  0  0  0  0  0
   -8.5486   -0.3066   24.9902 C   0  0  0  0  0  0  0  0  0  0  0  0
   -9.1331    0.8108   24.3264 C   0  0  0  0  0  0  0  0  0  0  0  0
  -11.0365    2.5581   27.9648 C   0  0  0  0  0  0  0  0  0  0  0  0
  -12.2952    2.8242   27.3611 C   0  0  0  0  0  0  0  0  0  0  0  0
  -13.2368    2.6491   28.0997 C   0  0  0  0  0  0  0  0  0  0  0  0
  -14.4935    3.2885   28.0139 C   0  0  0  0  0  0  0  0  0  0  0  0
  -14.6610    3.9034   26.7450 C   0  0  0  0  0  0  0  0  0  0  0  0
  -13.5487    4.2126   25.9078 C   0  0  0  0  0  0  0  0  0  0  0  0
  -12.3331    3.7297   26.2537 C   0  0  0  0  0  0  0  0  0  0  0  0
  -10.7833    1.3824   28.4496 O   0  0  0  0  0  0  0  0  0  0  0  0
  -10.2525    3.1393   23.1449 C   0  0  0  0  0  0  0  0  0  0  0  0
  -10.8472    4.2324   22.6287 C   0  0  0  0  0  0  0  0  0  0  0  0
  -11.2319    4.2289   21.3092 C   0  0  0  0  0  0  0  0  0  0  0  0
  -11.0195    3.0513   20.5330 C   0  0  0  0  0  0  0  0  0  0  0  0
  -10.4033    1.9443   21.0878 C   0  0  0  0  0  0  0  0  0  0  0  0
   -9.9921    1.9891   22.4234 C   0  0  0  0  0  0  0  0  0  0  0  0
  3  7  1  0
  8 11  1  0
  4 14  1  0
 14 15  1  0
 14 21  2  0
 11 22  1  0
 15 16  2  0
 16 17  1  0
 17 18  2  0
 18 19  1  0
 19 20  2  0
 20 15  1  0
  1  2  2  0
  2  6  1  0
  6  5  2  0
  5  4  1  0
  4  3  2  0
  3  1  1  0
 22 23  2  0
 23 24  1  0
 24 25  2  0
 25 26  1  0
 26 27  2  0
 27 22  1  0
  7  8  2  0
  8 13  1  0
 13 12  2  0
 12 10  1  0
 10  9  2  0
  9  7  1  0
M  END
$$$$
