No_5458-complexes_sdf/6BKW-FPZ/2024-09-17-14-21-01/
     RDKit          3D

 27 30  0  0  0  0  0  0  0  0999 V2000
   -7.9040    3.9820   27.1177 C   0  0  0  0  0  0  0  0  0  0  0  0
   -9.0711    4.3164   27.0630 C   0  0  0  0  0  0  0  0  0  0  0  0
   -9.5182    5.5541   27.5777 C   0  0  0  0  0  0  0  0  0  0  0  0
   -7.4468    2.6843   26.6499 C   0  0  0  0  0  0  0  0  0  0  0  0
   -8.3856    1.7878   26.2216 C   0  0  0  0  0  0  0  0  0  0  0  0
   -9.6812    2.2328   26.0889 C   0  0  0  0  0  0  0  0  0  0  0  0
  -10.0147    3.4312   26.5259 C   0  0  0  0  0  0  0  0  0  0  0  0
   -7.9132    0.4733   25.8127 C   0  0  0  0  0  0  0  0  0  0  0  0
   -7.2363   -0.3021   26.6221 N   0  0  0  0  0  0  0  0  0  0  0  0
   -6.3585   -1.0364   26.3752 C   0  0  0  0  0  0  0  0  0  0  0  0
   -5.3633   -1.1871   26.5301 C   0  0  0  0  0  0  0  0  0  0  0  0
   -6.9790   -2.1437   25.3507 C   0  0  0  0  0  0  0  0  0  0  0  0
   -4.6262   -0.3152   27.5879 C   0  0  0  0  0  0  0  0  0  0  0  0
   -8.2564    0.1751   24.6774 O   0  0  0  0  0  0  0  0  0  0  0  0
   -3.2274   -0.1199   27.7709 C   0  0  0  0  0  0  0  0  0  0  0  0
   -2.7286    0.8050   28.7462 C   0  0  0  0  0  0  0  0  0  0  0  0
   -3.7067    1.2705   29.6612 C   0  0  0  0  0  0  0  0  0  0  0  0
   -5.0681    0.8862   29.5415 C   0  0  0  0  0  0  0  0  0  0  0  0
   -5.4852    0.1801   28.5503 C   0  0  0  0  0  0  0  0  0  0  0  0
   -8.5636    6.6578   27.4978 C   0  0  0  0  0  0  0  0  0  0  0  0
   -7.3565    6.3656   26.8641 C   0  0  0  0  0  0  0  0  0  0  0  0
   -6.8567    5.0734   27.0557 C   0  0  0  0  0  0  0  0  0  0  0  0
   -7.7414   -2.7825   25.4700 C   0  0  0  0  0  0  0  0  0  0  0  0
   -8.2005   -3.7233   24.4686 C   0  0  0  0  0  0  0  0  0  0  0  0
   -7.5405   -3.6882   23.2515 C   0  0  0  0  0  0  0  0  0  0  0  0
   -6.5405   -2.7723   22.9971 C   0  0  0  0  0  0  0  0  0  0  0  0
   -6.1108   -1.9509   23.9125 C   0  0  0  0  0  0  0  0  0  0  0  0
  5  8  1  0
  8  9  1  0
  9 10  1  0
 10 11  2  3
 10 12  1  0
 11 13  1  0
  8 14  2  0
 13 15  2  0
 15 16  1  0
 16 17  2  0
 17 18  1  0
 18 19  2  0
 19 13  1  0
  2  3  2  0
  3 20  1  0
 20 21  2  0
 21 22  1  0
 22  1  2  0
 12 23  2  0
 23 24  1  0
 24 25  2  0
 25 26  1  0
 26 27  2  0
 27 12  1  0
  1  2  1  0
  2  7  1  0
  7  6  2  0
  6  5  1  0
  5  4  2  0
  4  1  1  0
M  END
$$$$
