No_5537-complexes_sdf/6BKW-FPZ/2024-09-17-14-21-01/
     RDKit          3D

 14 15  0  0  0  0  0  0  0  0999 V2000
   -7.7129    4.2099   27.0854 C   0  0  0  0  0  0  0  0  0  0  0  0
   -7.7814    5.1722   27.8972 C   0  0  0  0  0  0  0  0  0  0  0  0
   -8.8998    3.8713   26.3707 C   0  0  0  0  0  0  0  0  0  0  0  0
   -9.1401    2.5906   25.9433 C   0  0  0  0  0  0  0  0  0  0  0  0
   -8.5962    6.2844   27.4570 C   0  0  0  0  0  0  0  0  0  0  0  0
   -9.8066    2.2812   24.7846 C   0  0  0  0  0  0  0  0  0  0  0  0
   -9.6866    6.1038   26.6821 C   0  0  0  0  0  0  0  0  0  0  0  0
   -9.7538    4.8600   26.0790 C   0  0  0  0  0  0  0  0  0  0  0  0
   -8.0996    1.5648   26.3350 C   0  0  0  0  0  0  0  0  0  0  0  0
   -8.4784    0.4688   26.4869 C   0  0  0  0  0  0  0  0  0  0  0  0
   -7.6883   -0.4951   27.2865 C   0  0  0  0  0  0  0  0  0  0  0  0
   -6.3972    0.0026   27.6619 C   0  0  0  0  0  0  0  0  0  0  0  0
   -6.0449    1.3420   27.4828 C   0  0  0  0  0  0  0  0  0  0  0  0
   -6.8969    2.1113   26.9866 C   0  0  0  0  0  0  0  0  0  0  0  0
  3  4  1  0
  4  6  2  0
  4  9  1  0
  1  2  2  0
  2  5  1  0
  5  7  2  0
  7  8  1  0
  8  3  2  0
  3  1  1  0
  9 10  2  0
 10 11  1  0
 11 12  2  0
 12 13  1  0
 13 14  2  0
 14  9  1  0
M  END
$$$$
