No_5321-complexes_sdf/6BKW-FPZ/2024-09-17-14-21-01/
     RDKit          3D

 23 25  0  0  0  0  0  0  0  0999 V2000
   -7.7129    4.2099   27.0854 C   0  0  0  0  0  0  0  0  0  0  0  0
   -8.9133    4.4736   27.0998 C   0  0  0  0  0  0  0  0  0  0  0  0
   -9.7937    3.7367   26.2091 C   0  0  0  0  0  0  0  0  0  0  0  0
   -7.2496    2.8647   26.8496 C   0  0  0  0  0  0  0  0  0  0  0  0
   -8.1891    1.9790   26.3454 C   0  0  0  0  0  0  0  0  0  0  0  0
  -11.0808    4.1954   25.9087 C   0  0  0  0  0  0  0  0  0  0  0  0
   -9.4405    2.4420   25.9289 C   0  0  0  0  0  0  0  0  0  0  0  0
  -11.3803    4.5482   24.6216 C   0  0  0  0  0  0  0  0  0  0  0  0
  -12.1469    4.2713   23.8311 C   0  0  0  0  0  0  0  0  0  0  0  0
  -12.1285    4.5836   22.3707 C   0  0  0  0  0  0  0  0  0  0  0  0
  -10.8481    5.0794   22.0289 C   0  0  0  0  0  0  0  0  0  0  0  0
  -10.1277    5.1608   23.6668 C   0  0  0  0  0  0  0  0  0  0  0  0
  -12.0644    4.4237   26.8298 C   0  0  2  0  0  0  0  0  0  0  0  0
  -11.8330    4.7927   28.1490 C   0  0  0  0  0  0  0  0  0  0  0  0
  -13.0263    3.2391   26.8126 C   0  0  0  0  0  0  0  0  0  0  0  0
  -14.0456    3.1482   27.0356 C   0  0  0  0  0  0  0  0  0  0  0  0
  -14.7224    4.3743   27.6649 C   0  0  0  0  0  0  0  0  0  0  0  0
  -14.2099    4.9492   28.9165 C   0  0  0  0  0  0  0  0  0  0  0  0
  -12.8706    5.5610   28.7637 C   0  0  0  0  0  0  0  0  0  0  0  0
   -6.8536    4.7782   28.1526 C   0  0  0  0  0  0  0  0  0  0  0  0
  -10.2697    1.5310   25.1275 C   0  0  0  0  0  0  0  0  0  0  0  0
   -9.9783    0.3046   24.9986 C   0  0  0  0  0  0  0  0  0  0  0  0
   -8.7324   -0.1406   25.3513 C   0  0  0  0  0  0  0  0  0  0  0  0
  3  6  1  0
  6  8  2  3
  8  9  1  0
  9 10  2  0
 10 11  1  0
  8 12  1  0
 11 12  1  0
  6 13  1  0
 13 14  1  1
 13 15  1  0
 15 16  2  0
 16 17  1  0
 17 18  1  0
 14 19  1  0
 18 19  1  0
  1 20  1  0
  7 21  1  0
 21 22  2  3
 22 23  1  0
  1  2  2  0
  2  3  1  0
  3  7  2  0
  7  5  1  0
  5  4  2  0
  4  1  1  0
M  END
$$$$
