No_5832-complexes_sdf/6BKW-FPZ/2024-09-17-14-21-01/
     RDKit          3D

 16 18  0  0  0  0  0  0  0  0999 V2000
   -7.9040    3.9820   27.1177 C   0  0  0  0  0  0  0  0  0  0  0  0
   -7.8663    4.8694   27.9238 C   0  0  0  0  0  0  0  0  0  0  0  0
   -7.4547    2.7080   27.4594 C   0  0  0  0  0  0  0  0  0  0  0  0
   -7.9337    1.5946   26.8372 C   0  0  0  0  0  0  0  0  0  0  0  0
   -8.9032    1.7881   25.8510 C   0  0  0  0  0  0  0  0  0  0  0  0
   -9.3787    2.9871   25.5530 C   0  0  0  0  0  0  0  0  0  0  0  0
   -8.9781    4.0300   26.2200 C   0  0  0  0  0  0  0  0  0  0  0  0
   -8.1814    6.3212   27.6124 C   0  0  0  0  0  0  0  0  0  0  0  0
   -9.0815    6.5466   26.5513 C   0  0  0  0  0  0  0  0  0  0  0  0
   -9.5713    5.3763   25.7539 C   0  0  0  0  0  0  0  0  0  0  0  0
   -7.3426    0.2548   27.1320 C   0  0  0  0  0  0  0  0  0  0  0  0
   -6.0695    0.1064   27.6550 C   0  0  0  0  0  0  0  0  0  0  0  0
   -5.5804   -1.1009   28.0734 C   0  0  0  0  0  0  0  0  0  0  0  0
   -6.4381   -2.1813   27.9420 C   0  0  0  0  0  0  0  0  0  0  0  0
   -8.0250   -0.9751   27.1835 C   0  0  0  0  0  0  0  0  0  0  0  0
   -7.6463   -2.1005   27.5564 C   0  0  0  0  0  0  0  0  0  0  0  0
  4 11  1  0
  1  2  2  0
  2  8  1  0
  8  9  2  0
  9 10  1  0
 10  7  2  0
 11 12  2  0
 12 13  1  0
 13 14  2  0
 14 16  1  0
 16 15  2  0
 15 11  1  0
  1  3  1  0
  3  4  2  0
  4  5  1  0
  5  6  2  0
  6  7  1  0
  7  1  1  0
M  END
$$$$
