No_5080-complexes_sdf/6BKW-FPZ/2024-09-17-14-21-01/
     RDKit          3D

 27 29  0  0  0  0  0  0  0  0999 V2000
   -7.2496    3.8871   27.4508 C   0  0  0  0  0  0  0  0  0  0  0  0
   -8.5096    4.0291   27.2770 C   0  0  0  0  0  0  0  0  0  0  0  0
   -9.3451    2.8786   26.9046 C   0  0  0  0  0  0  0  0  0  0  0  0
   -6.6065    2.5680   27.5073 C   0  0  0  0  0  0  0  0  0  0  0  0
   -7.4233    1.4858   27.2402 C   0  0  0  0  0  0  0  0  0  0  0  0
   -8.7362    1.6525   26.9989 C   0  0  0  0  0  0  0  0  0  0  0  0
   -9.0996    5.3741   27.2134 C   0  0  0  0  0  0  0  0  0  0  0  0
  -10.3332    5.4271   27.5994 F   0  0  0  0  0  0  0  0  0  0  0  0
   -9.0058    5.9425   25.9672 F   0  0  0  0  0  0  0  0  0  0  0  0
   -8.5286    6.3039   28.0773 F   0  0  0  0  0  0  0  0  0  0  0  0
   -6.7650    0.2070   27.2473 C   0  0  0  0  0  0  0  0  0  0  0  0
   -7.3716   -0.9009   27.1816 C   0  0  0  0  0  0  0  0  0  0  0  0
   -8.8407   -0.8397   27.1483 C   0  0  0  0  0  0  0  0  0  0  0  0
   -9.5247    0.4463   27.0147 C   0  0  0  0  0  0  0  0  0  0  0  0
   -5.2591    0.1672   27.4480 C   0  0  0  0  0  0  0  0  0  0  0  0
   -4.6777    0.4435   28.4511 O   0  0  0  0  0  0  0  0  0  0  0  0
   -4.5415   -0.0628   26.3803 O   0  0  0  0  0  0  0  0  0  0  0  0
   -3.3392    0.4109   28.6755 C   0  0  0  0  0  0  0  0  0  0  0  0
   -3.0522   -0.3688   29.9320 C   0  0  0  0  0  0  0  0  0  0  0  0
   -3.5860    0.0911   30.9590 O   0  0  0  0  0  0  0  0  0  0  0  0
   -3.9986   -0.8685   31.9617 C   0  0  0  0  0  0  0  0  0  0  0  0
   -5.2636   -1.2414   31.8152 C   0  0  0  0  0  0  0  0  0  0  0  0
   -5.6889   -1.9839   30.8097 C   0  0  0  0  0  0  0  0  0  0  0  0
   -7.0301   -2.3930   30.6441 C   0  0  0  0  0  0  0  0  0  0  0  0
   -7.8662   -2.4388   31.7569 C   0  0  0  0  0  0  0  0  0  0  0  0
   -7.3782   -1.8362   32.9776 C   0  0  0  0  0  0  0  0  0  0  0  0
   -6.1010   -1.2580   33.0356 C   0  0  0  0  0  0  0  0  0  0  0  0
  2  7  1  0
  7  8  1  0
  7  9  1  0
  7 10  1  0
 11 15  1  0
 15 16  1  0
 15 17  2  0
 16 18  1  0
 18 19  1  0
 19 20  1  0
 20 21  1  0
 21 22  1  0
 22 23  2  0
 23 24  1  0
 24 25  2  0
 25 26  1  0
 26 27  2  0
 27 22  1  0
  1  2  2  0
  2  3  1  0
  3  6  2  0
  5  4  2  0
  4  1  1  0
  5  6  1  0
  6 14  1  0
 14 13  2  0
 13 12  1  0
 12 11  2  0
 11  5  1  0
M  END
$$$$
