No_5720-complexes_sdf/6BKW-FPZ/2024-09-17-14-21-01/
     RDKit          3D

 24 27  0  0  0  0  0  0  0  0999 V2000
   -7.9040    3.9820   27.1177 C   0  0  0  0  0  0  0  0  0  0  0  0
   -7.8663    4.8694   27.9238 C   0  0  0  0  0  0  0  0  0  0  0  0
   -7.4698    2.6989   27.4277 C   0  0  0  0  0  0  0  0  0  0  0  0
   -7.9683    1.5964   26.8266 C   0  0  1  0  0  0  0  0  0  0  0  0
   -8.9447    1.7923   25.8533 C   0  0  0  0  0  0  0  0  0  0  0  0
   -9.4405    2.9988   25.5757 C   0  0  0  0  0  0  0  0  0  0  0  0
   -8.9424    4.1117   26.2388 C   0  0  0  0  0  0  0  0  0  0  0  0
   -8.0525    6.0889   27.7934 N   0  0  0  0  0  0  0  0  0  0  0  0
   -7.4419    0.2917   27.0869 C   0  0  1  0  0  0  0  0  0  0  0  0
   -6.1735    0.1397   27.6280 C   0  0  0  0  0  0  0  0  0  0  0  0
   -5.6405   -1.0846   27.9391 C   0  0  0  0  0  0  0  0  0  0  0  0
   -6.4575   -2.1667   27.7634 C   0  0  0  0  0  0  0  0  0  0  0  0
   -7.8239   -1.0939   27.0905 C   0  0  0  0  0  0  0  0  0  0  0  0
   -9.4622    5.3947   25.9440 C   0  0  0  0  0  0  0  0  0  0  0  0
   -8.9306    6.4658   26.7960 C   0  0  0  0  0  0  0  0  0  0  0  0
   -4.2739   -1.2885   28.5545 C   0  0  0  0  0  0  0  0  0  0  0  0
   -4.0857   -1.0375   29.8380 C   0  0  0  0  0  0  0  0  0  0  0  0
   -2.8815   -1.1410   30.4735 C   0  0  0  0  0  0  0  0  0  0  0  0
   -1.7697   -1.4427   29.6502 C   0  0  0  0  0  0  0  0  0  0  0  0
   -1.9275   -1.5713   28.2986 C   0  0  0  0  0  0  0  0  0  0  0  0
   -3.1728   -1.4310   27.7088 C   0  0  0  0  0  0  0  0  0  0  0  0
   -2.6898   -0.9191   31.9368 C   0  0  0  0  0  0  0  0  0  0  0  0
   -3.2821    0.0774   32.4272 O   0  0  0  0  0  0  0  0  0  0  0  0
   -1.9776   -1.7293   32.5831 O   0  0  0  0  0  0  0  0  0  0  0  0
  1  3  1  0
  4  3  1  6
  4  5  1  0
  5  6  1  0
  6  7  1  0
  4  9  1  0
  9 10  1  1
 10 11  2  0
 11 12  1  0
  9 13  1  0
 12 13  2  0
 11 16  1  0
 18 22  1  0
 22 23  2  0
 22 24  1  0
 16 17  2  0
 17 18  1  0
 18 19  2  0
 19 20  1  0
 20 21  2  0
 21 16  1  0
  1  2  2  0
  2  8  1  0
  8 15  2  0
 15 14  1  0
 14  7  2  0
  7  1  1  0
M  END
$$$$
