No_5408-complexes_sdf/6BKW-FPZ/2024-09-17-14-21-01/
     RDKit          3D

 21 23  0  0  0  0  0  0  0  0999 V2000
   -7.9040    3.9820   27.1177 C   0  0  0  0  0  0  0  0  0  0  0  0
   -9.0711    4.3164   27.0630 C   0  0  0  0  0  0  0  0  0  0  0  0
   -9.5182    5.5541   27.5777 C   0  0  0  0  0  0  0  0  0  0  0  0
   -7.4468    2.6843   26.6499 C   0  0  0  0  0  0  0  0  0  0  0  0
   -6.3753    2.0179   27.3532 C   0  0  0  0  0  0  0  0  0  0  0  0
   -6.0780    0.6961   27.2494 C   0  0  0  0  0  0  0  0  0  0  0  0
   -6.9717   -0.0893   26.5189 C   0  0  0  0  0  0  0  0  0  0  0  0
   -8.0557    0.4835   25.8806 C   0  0  0  0  0  0  0  0  0  0  0  0
   -8.3641    1.8290   26.0914 C   0  0  0  0  0  0  0  0  0  0  0  0
   -8.5384    6.5615   27.8374 C   0  0  0  0  0  0  0  0  0  0  0  0
   -7.0114    4.9981   27.6264 C   0  0  0  0  0  0  0  0  0  0  0  0
   -7.2964    6.1914   27.8624 C   0  0  0  0  0  0  0  0  0  0  0  0
   -5.0025   -0.0551   27.8666 C   0  0  1  0  0  0  0  0  0  0  0  0
   -3.9597    0.5138   28.2457 O   0  0  0  0  0  0  0  0  0  0  0  0
   -5.1016   -1.3243   28.1838 N   0  0  0  0  0  0  0  0  0  0  0  0
   -4.0960   -2.0330   28.9401 C   0  0  0  0  0  0  0  0  0  0  0  0
   -3.0145   -2.0421   28.3951 C   0  0  0  0  0  0  0  0  0  0  0  0
   -2.0105   -2.1463   29.1245 C   0  0  0  0  0  0  0  0  0  0  0  0
   -1.7362   -1.6452   30.0064 C   0  0  0  0  0  0  0  0  0  0  0  0
   -2.8555   -1.1743   30.9479 C   0  0  0  0  0  0  0  0  0  0  0  0
   -4.1316   -1.2696   30.2593 C   0  0  0  0  0  0  0  0  0  0  0  0
  1  4  1  0
  6 13  1  0
 13 14  1  1
 13 15  1  0
 15 16  1  0
  1  2  2  0
  2  3  1  0
  3 10  2  0
 10 12  1  0
 12 11  2  0
 11  1  1  0
 16 17  2  0
 17 18  1  0
 18 19  2  0
 19 20  1  0
 20 21  2  0
 21 16  1  0
  4  5  2  0
  5  6  1  0
  6  7  2  0
  7  8  1  0
  8  9  2  0
  9  4  1  0
M  END
$$$$
