No_5649-complexes_sdf/6BKW-FPZ/2024-09-17-14-21-01/
     RDKit          3D

 22 24  0  0  0  0  0  0  0  0999 V2000
   -7.9040    3.9820   27.1177 C   0  0  0  0  0  0  0  0  0  0  0  0
   -8.2057    2.8231   26.8733 C   0  0  0  0  0  0  0  0  0  0  0  0
   -7.0130    4.3706   28.1140 C   0  0  0  0  0  0  0  0  0  0  0  0
   -9.4741    2.4344   26.3718 C   0  0  0  0  0  0  0  0  0  0  0  0
  -10.2009    3.3542   25.7490 C   0  0  0  0  0  0  0  0  0  0  0  0
   -9.8070    4.7433   25.8809 C   0  0  0  0  0  0  0  0  0  0  0  0
   -8.7506    5.0992   26.6368 C   0  0  0  0  0  0  0  0  0  0  0  0
   -8.2000    6.3979   26.9560 C   0  0  0  0  0  0  0  0  0  0  0  0
   -9.0149    7.5861   26.5232 C   0  0  0  0  0  0  0  0  0  0  0  0
   -7.1186    6.4499   27.8821 C   0  0  0  0  0  0  0  0  0  0  0  0
   -6.6017    5.5716   28.4148 N   0  0  0  0  0  0  0  0  0  0  0  0
   -9.7758    0.9879   26.0786 C   0  0  0  0  0  0  0  0  0  0  0  0
   -9.4899    0.3202   25.2979 N   0  0  0  0  0  0  0  0  0  0  0  0
   -9.1389    0.5210   24.2989 C   0  0  0  0  0  0  0  0  0  0  0  0
   -8.5389   -0.4377   23.3391 C   0  0  0  0  0  0  0  0  0  0  0  0
   -9.0440   -1.0915   25.4598 C   0  0  0  0  0  0  0  0  0  0  0  0
   -8.5448   -1.5274   24.2258 C   0  0  0  0  0  0  0  0  0  0  0  0
  -10.6127    0.5446   27.2292 C   0  0  0  0  0  0  0  0  0  0  0  0
  -11.9690    0.6275   27.1905 C   0  0  0  0  0  0  0  0  0  0  0  0
  -12.7248    0.1443   28.2325 C   0  0  0  0  0  0  0  0  0  0  0  0
  -12.1249   -0.7162   29.1865 C   0  0  0  0  0  0  0  0  0  0  0  0
  -10.7647   -0.9888   29.1221 C   0  0  0  0  0  0  0  0  0  0  0  0
  8  9  1  0
  4 12  1  0
 12 13  1  0
 13 14  1  0
 14 15  2  0
 13 16  1  0
 15 17  1  0
 16 17  1  0
 12 18  1  0
 18 19  2  3
 19 20  1  0
 20 21  2  3
 21 22  1  0
  1  3  1  0
  3 11  2  0
 11 10  1  0
 10  8  2  0
  8  7  1  0
  1  2  2  0
  2  4  1  0
  4  5  2  0
  5  6  1  0
  6  7  2  0
  7  1  1  0
M  END
$$$$
