No_5317-complexes_sdf/6BKW-FPZ/2024-09-17-14-21-01/
     RDKit          3D

 28 31  0  0  0  0  0  0  0  0999 V2000
   -7.9040    3.9820   27.1177 C   0  0  0  0  0  0  0  0  0  0  0  0
   -7.8663    4.8694   27.9238 C   0  0  0  0  0  0  0  0  0  0  0  0
   -9.0501    3.8017   26.2617 C   0  0  0  0  0  0  0  0  0  0  0  0
  -10.0189    4.7608   26.3707 C   0  0  0  0  0  0  0  0  0  0  0  0
   -8.6973    5.9722   27.8968 C   0  0  0  0  0  0  0  0  0  0  0  0
   -9.8216    5.8946   27.1241 C   0  0  0  0  0  0  0  0  0  0  0  0
   -9.1437    2.6293   25.4175 C   0  0  0  0  0  0  0  0  0  0  0  0
   -8.6100    1.5009   25.7781 N   0  0  0  0  0  0  0  0  0  0  0  0
   -8.5030    0.4530   24.9505 C   0  0  0  0  0  0  0  0  0  0  0  0
   -9.8441    2.7298   24.2293 C   0  0  0  0  0  0  0  0  0  0  0  0
   -9.8439    1.6541   23.3645 C   0  0  0  0  0  0  0  0  0  0  0  0
   -9.1736    0.5039   23.7426 C   0  0  0  0  0  0  0  0  0  0  0  0
   -9.1276   -0.6663   22.8104 C   0  0  0  0  0  0  0  0  0  0  0  0
   -7.9957   -1.2755   22.6430 C   0  0  0  0  0  0  0  0  0  0  0  0
   -6.8242   -0.8987   23.3927 C   0  0  0  0  0  0  0  0  0  0  0  0
   -7.1383   -0.1802   24.6706 C   0  0  0  0  0  0  0  0  0  0  0  0
  -10.6185    1.7562   22.1626 C   0  0  0  0  0  0  0  0  0  0  0  0
  -11.5558    2.0623   21.9800 C   0  0  0  0  0  0  0  0  0  0  0  0
  -12.4155    2.3646   21.4641 C   0  0  0  0  0  0  0  0  0  0  0  0
  -13.6353    2.8319   21.4409 C   0  0  0  0  0  0  0  0  0  0  0  0
  -14.7356    3.2525   21.5745 C   0  0  1  0  0  0  0  0  0  0  0  0
  -15.2231    3.6868   22.7267 C   0  0  0  0  0  0  0  0  0  0  0  0
  -14.5205    3.6200   23.9318 C   0  0  0  0  0  0  0  0  0  0  0  0
  -14.6285    3.6745   24.9610 C   0  0  0  0  0  0  0  0  0  0  0  0
  -15.8483    3.8521   25.6544 C   0  0  0  0  0  0  0  0  0  0  0  0
  -16.9178    4.0944   24.6906 C   0  0  0  0  0  0  0  0  0  0  0  0
  -16.6828    3.8852   23.2082 C   0  0  0  0  0  0  0  0  0  0  0  0
  -15.5981    3.4011   20.3440 C   0  0  0  0  0  0  0  0  0  0  0  0
  3  7  1  0
 11 17  1  0
 17 18  2  3
 18 19  1  0
 19 20  2  3
 20 21  1  0
 21 28  1  6
 21 22  1  0
 22 23  2  0
 23 24  1  0
 24 25  2  0
 25 26  1  0
 26 27  2  0
 27 22  1  0
 12 13  2  0
 13 14  1  0
 14 15  2  0
 15 16  1  0
 16  9  2  0
  1  2  2  0
  2  5  1  0
  5  6  2  0
  6  4  1  0
  4  3  2  0
  3  1  1  0
  7  8  2  0
  8  9  1  0
  9 12  1  0
 12 11  1  0
 11 10  2  0
 10  7  1  0
M  END
$$$$
