No_5936-complexes_sdf/6BKW-FPZ/2024-09-17-14-21-01/
     RDKit          3D

 15 16  0  0  0  0  0  0  0  0999 V2000
   -7.7129    4.2099   27.0854 C   0  0  0  0  0  0  0  0  0  0  0  0
   -7.7814    5.1722   27.8972 C   0  0  0  0  0  0  0  0  0  0  0  0
   -8.8776    3.8408   26.3416 C   0  0  0  0  0  0  0  0  0  0  0  0
   -8.9136    2.6330   25.5655 C   0  0  0  0  0  0  0  0  0  0  0  0
   -8.8361    6.1389   27.9032 C   0  0  0  0  0  0  0  0  0  0  0  0
   -9.9718    4.7048   26.3433 C   0  0  0  0  0  0  0  0  0  0  0  0
   -9.9027    5.6473   27.1351 C   0  0  0  0  0  0  0  0  0  0  0  0
   -8.2953    1.4733   26.1740 C   0  0  0  0  0  0  0  0  0  0  0  0
   -7.8889    1.5531   27.4458 C   0  0  0  0  0  0  0  0  0  0  0  0
   -8.1454    0.4002   25.2888 C   0  0  0  0  0  0  0  0  0  0  0  0
   -7.2315    0.2529   27.9066 C   0  0  0  0  0  0  0  0  0  0  0  0
   -7.5283   -0.7746   25.7895 C   0  0  0  0  0  0  0  0  0  0  0  0
   -7.0574   -0.8024   27.1173 C   0  0  0  0  0  0  0  0  0  0  0  0
   -9.6194    2.5439   24.3770 C   0  0  0  0  0  0  0  0  0  0  0  0
  -10.1668    3.5268   23.8747 O   0  0  0  0  0  0  0  0  0  0  0  0
  3  4  1  0
  4  8  1  0
  4 14  1  0
 14 15  2  0
  8  9  2  0
  9 11  1  0
 11 13  2  0
 13 12  1  0
 12 10  2  0
 10  8  1  0
  1  2  2  0
  2  5  1  0
  5  7  2  0
  7  6  1  0
  6  3  2  0
  3  1  1  0
M  END
$$$$
