No_5386-complexes_sdf/6BKW-FPZ/2024-09-17-14-21-01/
     RDKit          3D

 22 25  0  0  0  0  0  0  0  0999 V2000
   -7.2496    3.8871   27.4508 C   0  0  0  0  0  0  0  0  0  0  0  0
   -7.6161    2.7143   27.1523 C   0  0  0  0  0  0  0  0  0  0  0  0
   -8.8302    2.4659   26.5056 C   0  0  0  0  0  0  0  0  0  0  0  0
   -8.1584    5.0090   27.3234 C   0  0  0  0  0  0  0  0  0  0  0  0
   -9.3788    4.7965   26.7695 C   0  0  0  0  0  0  0  0  0  0  0  0
   -9.7028    3.5649   26.3276 C   0  0  0  0  0  0  0  0  0  0  0  0
   -6.7182    1.5519   27.3631 C   0  0  0  0  0  0  0  0  0  0  0  0
   -5.4694    1.7365   28.0694 C   0  0  0  0  0  0  0  0  0  0  0  0
   -4.5986    0.6519   28.2611 C   0  0  0  0  0  0  0  0  0  0  0  0
   -5.0102   -0.6262   27.9715 C   0  0  0  0  0  0  0  0  0  0  0  0
   -6.9338    0.1692   27.2539 C   0  0  0  0  0  0  0  0  0  0  0  0
   -8.3090   -0.0213   26.6583 C   0  0  0  0  0  0  0  0  0  0  0  0
   -6.2032   -0.8250   27.5116 C   0  0  0  0  0  0  0  0  0  0  0  0
   -9.2507    1.1007   26.2622 C   0  0  0  0  0  0  0  0  0  0  0  0
   -7.8991    6.3699   27.8581 C   0  0  0  0  0  0  0  0  0  0  0  0
   -3.0197    1.0671   28.9891 Cl  0  0  0  0  0  0  0  0  0  0  0  0
  -10.4692    0.7725   25.6480 C   0  0  0  0  0  0  0  0  0  0  0  0
  -10.4515   -0.2151   24.8679 C   0  0  0  0  0  0  0  0  0  0  0  0
  -11.6648   -0.5911   24.1481 C   0  0  0  0  0  0  0  0  0  0  0  0
  -12.7165    0.2413   24.2824 C   0  0  0  0  0  0  0  0  0  0  0  0
  -12.6876    1.3323   25.1098 C   0  0  0  0  0  0  0  0  0  0  0  0
  -11.5599    1.6585   25.8130 C   0  0  0  0  0  0  0  0  0  0  0  0
  4 15  1  0
  9 16  1  0
 14 17  1  0
  3 14  1  0
 14 12  2  0
 12 11  1  0
  7  2  1  0
  1  2  2  0
  2  3  1  0
  3  6  2  0
  6  5  1  0
  5  4  2  0
  4  1  1  0
  7  8  2  0
  8  9  1  0
  9 10  2  0
 10 13  1  0
 13 11  2  0
 11  7  1  0
 17 18  2  0
 18 19  1  0
 19 20  2  0
 20 21  1  0
 21 22  2  0
 22 17  1  0
M  END
$$$$
