No_5563-complexes_sdf/6BKW-FPZ/2024-09-17-14-21-01/
     RDKit          3D

 37 41  0  0  0  0  0  0  0  0999 V2000
   -7.7129    4.2099   27.0854 C   0  0  0  0  0  0  0  0  0  0  0  0
   -8.9134    4.4736   27.0998 C   0  0  0  0  0  0  0  0  0  0  0  0
   -9.4643    5.5426   27.7628 C   0  0  0  0  0  0  0  0  0  0  0  0
   -7.2009    2.9448   26.6134 C   0  0  0  0  0  0  0  0  0  0  0  0
   -8.1365    1.9533   26.2981 C   0  0  0  0  0  0  0  0  0  0  0  0
   -9.4514    2.2934   26.2667 C   0  0  0  0  0  0  0  0  0  0  0  0
   -9.8600    3.4834   26.7068 C   0  0  0  0  0  0  0  0  0  0  0  0
   -7.6019    0.6586   25.9004 C   0  0  0  0  0  0  0  0  0  0  0  0
   -7.7518    0.2166   24.8045 O   0  0  0  0  0  0  0  0  0  0  0  0
   -7.0398   -0.2502   26.9289 N   0  0  0  0  0  0  0  0  0  0  0  0
   -6.5133   -1.2075   26.9560 C   0  0  0  0  0  0  0  0  0  0  0  0
   -6.0872   -1.6498   28.1046 C   0  0  0  0  0  0  0  0  0  0  0  0
   -6.3299   -0.5937   29.0854 C   0  0  0  0  0  0  0  0  0  0  0  0
   -6.6811    0.3960   28.2981 C   0  0  0  0  0  0  0  0  0  0  0  0
   -5.6020   -2.9738   28.5559 C   0  0  0  0  0  0  0  0  0  0  0  0
   -5.5714   -3.3205   29.6274 C   0  0  0  0  0  0  0  0  0  0  0  0
   -5.0661   -4.5960   30.1050 C   0  0  0  0  0  0  0  0  0  0  0  0
   -4.6969   -5.4275   29.0551 C   0  0  0  0  0  0  0  0  0  0  0  0
   -4.7385   -5.0350   27.7878 C   0  0  0  0  0  0  0  0  0  0  0  0
   -5.1806   -3.7183   27.3980 C   0  0  0  0  0  0  0  0  0  0  0  0
   -6.7527    5.0108   27.6315 F   0  0  0  0  0  0  0  0  0  0  0  0
   -4.2710   -5.9044   26.6712 C   0  0  0  0  0  0  0  0  0  0  0  0
   -3.0686   -5.6291   26.1653 C   0  0  0  0  0  0  0  0  0  0  0  0
   -2.6677   -6.2252   25.0040 C   0  0  0  0  0  0  0  0  0  0  0  0
   -5.1029   -6.8883   26.2650 C   0  0  0  0  0  0  0  0  0  0  0  0
   -4.6893   -7.6094   25.1070 C   0  0  0  0  0  0  0  0  0  0  0  0
   -3.4701   -7.2776   24.5319 C   0  0  0  0  0  0  0  0  0  0  0  0
   -2.9136   -8.2567   23.0348 Br  0  0  0  0  0  0  0  0  0  0  0  0
  -10.3892    1.3173   25.6594 C   0  0  0  0  0  0  0  0  0  0  0  0
  -11.1810    0.7494   26.5330 N   0  0  0  0  0  0  0  0  0  0  0  0
  -11.1865   -0.4638   26.9346 C   0  0  0  0  0  0  0  0  0  0  0  0
  -11.9876   -0.8945   28.0804 C   0  0  0  0  0  0  0  0  0  0  0  0
  -12.7237    0.2547   28.4732 C   0  0  1  0  0  0  0  0  0  0  0  0
  -13.6235    0.1343   29.5892 C   0  0  0  0  0  0  0  0  0  0  0  0
  -12.1482    1.3924   27.4998 C   0  0  0  0  0  0  0  0  0  0  0  0
  -13.8148    1.2628   30.0954 O   0  0  0  0  0  0  0  0  0  0  0  0
  -14.1746   -0.8348   29.8820 O   0  0  0  0  0  0  0  0  0  0  0  0
  5  8  1  0
  8  9  2  0
  8 10  1  0
 10 11  1  0
 11 12  2  0
 12 13  1  0
 10 14  1  0
 13 14  2  0
 12 15  1  0
  1 21  1  0
 19 22  1  0
 27 28  1  0
  6 29  1  0
 29 30  1  0
 30 31  1  0
 31 32  2  0
 32 33  1  0
 33 34  1  1
 30 35  1  0
 33 35  1  0
 34 36  2  0
 34 37  1  0
  3  2  1  0
 15 16  2  0
 16 17  1  0
 17 18  2  0
 18 19  1  0
 19 20  2  0
 20 15  1  0
  1  2  2  0
  2  7  1  0
  7  6  2  0
  6  5  1  0
  5  4  2  0
  4  1  1  0
 22 23  2  0
 23 24  1  0
 24 27  2  0
 27 26  1  0
 26 25  2  0
 25 22  1  0
M  END
$$$$
