No_5628-complexes_sdf/6BKW-FPZ/2024-09-17-14-21-01/
     RDKit          3D

 32 34  0  0  0  0  0  0  0  0999 V2000
   -7.2496    3.8871   27.4508 C   0  0  0  0  0  0  0  0  0  0  0  0
   -8.5096    4.0291   27.2770 C   0  0  0  0  0  0  0  0  0  0  0  0
   -9.2677    5.1714   27.5773 C   0  0  0  0  0  0  0  0  0  0  0  0
   -6.5711    2.6400   27.2842 C   0  0  0  0  0  0  0  0  0  0  0  0
   -7.2939    1.5094   27.0532 C   0  0  0  0  0  0  0  0  0  0  0  0
   -8.6122    1.6580   26.7575 C   0  0  0  0  0  0  0  0  0  0  0  0
   -9.2984    2.8495   26.9904 C   0  0  0  0  0  0  0  0  0  0  0  0
  -10.6595    5.2649   27.6290 C   0  0  0  0  0  0  0  0  0  0  0  0
   -8.5006    6.4154   27.7187 C   0  0  0  0  0  0  0  0  0  0  0  0
   -6.5776    0.2848   26.8341 C   0  0  0  0  0  0  0  0  0  0  0  0
   -6.7663   -0.3531   25.8985 O   0  0  0  0  0  0  0  0  0  0  0  0
   -6.0506   -0.2238   28.0445 N   0  0  0  0  0  0  0  0  0  0  0  0
   -5.3382   -1.4917   28.0586 C   0  0  0  0  0  0  0  0  0  0  0  0
   -5.1137   -1.7492   29.3001 C   0  0  0  0  0  0  0  0  0  0  0  0
   -5.1212   -2.7199   29.9566 C   0  0  0  0  0  0  0  0  0  0  0  0
   -4.7842   -2.8856   31.4444 C   0  0  0  0  0  0  0  0  0  0  0  0
   -4.4365   -1.7291   32.1647 C   0  0  0  0  0  0  0  0  0  0  0  0
   -4.3802   -0.5141   31.4595 C   0  0  0  0  0  0  0  0  0  0  0  0
   -4.7254   -0.4383   30.1254 C   0  0  0  0  0  0  0  0  0  0  0  0
   -4.0633   -1.7584   33.5888 C   0  0  0  0  0  0  0  0  0  0  0  0
   -2.8761   -1.2226   34.0272 C   0  0  0  0  0  0  0  0  0  0  0  0
   -2.7672   -0.7875   35.2327 N   0  0  0  0  0  0  0  0  0  0  0  0
   -1.9431   -1.0649   33.1752 O   0  0  0  0  0  0  0  0  0  0  0  0
   -1.4817   -0.1638   35.7600 C   0  0  0  0  0  0  0  0  0  0  0  0
   -1.5250   -0.0374   37.2200 C   0  0  0  0  0  0  0  0  0  0  0  0
   -2.5625    0.6435   37.7530 C   0  0  0  0  0  0  0  0  0  0  0  0
   -3.9095    0.1644   37.1909 C   0  0  0  0  0  0  0  0  0  0  0  0
   -3.8951   -0.4482   36.0139 C   0  0  0  0  0  0  0  0  0  0  0  0
   -2.5133    1.5580   38.8458 C   0  0  0  0  0  0  0  0  0  0  0  0
   -1.5605    2.4152   39.0096 C   0  0  0  0  0  0  0  0  0  0  0  0
   -1.4929    3.3850   40.0797 C   0  0  0  0  0  0  0  0  0  0  0  0
   -2.6467    3.5720   40.8719 C   0  0  0  0  0  0  0  0  0  0  0  0
  3  8  1  0
  3  9  1  0
  5 10  1  0
 10 11  2  0
 10 12  1  0
 12 13  1  0
 17 20  1  0
 20 21  1  0
 21 22  1  0
 21 23  2  0
 22 24  1  0
 24 25  1  0
 25 26  1  0
 26 27  1  0
 22 28  1  0
 27 28  1  0
 26 29  1  0
 29 30  2  3
 30 31  1  0
 31 32  2  0
 13 14  1  0
  3  2  1  0
 14 15  2  0
 15 16  1  0
 16 17  2  0
 17 18  1  0
 18 19  2  0
 19 14  1  0
  1  2  2  0
  2  7  1  0
  7  6  2  0
  6  5  1  0
  5  4  2  0
  4  1  1  0
M  END
$$$$
