No_5102-complexes_sdf/6BKW-FPZ/2024-09-17-14-21-01/
     RDKit          3D

 30 34  0  0  0  0  0  0  0  0999 V2000
   -7.7129    4.2099   27.0854 C   0  0  0  0  0  0  0  0  0  0  0  0
   -7.7814    5.1722   27.8972 C   0  0  0  0  0  0  0  0  0  0  0  0
   -8.8998    3.8713   26.3707 C   0  0  0  0  0  0  0  0  0  0  0  0
   -8.9563    2.6796   25.5490 C   0  0  0  0  0  0  0  0  0  0  0  0
   -8.8131    6.1334   27.9344 C   0  0  0  0  0  0  0  0  0  0  0  0
   -9.9804    5.8121   27.1929 C   0  0  0  0  0  0  0  0  0  0  0  0
   -9.9861    4.6836   26.4532 C   0  0  0  0  0  0  0  0  0  0  0  0
   -9.8430    2.5340   24.5239 C   0  0  0  0  0  0  0  0  0  0  0  0
  -10.8827    3.5687   24.4657 C   0  0  0  0  0  0  0  0  0  0  0  0
  -10.9782    4.5310   25.4380 N   0  0  0  0  0  0  0  0  0  0  0  0
  -11.9502    3.4567   23.5506 C   0  0  0  0  0  0  0  0  0  0  0  0
  -13.0846    2.9974   23.6864 C   0  0  0  0  0  0  0  0  0  0  0  0
  -11.5767    4.0227   22.2068 C   0  0  0  0  0  0  0  0  0  0  0  0
  -14.0958    2.9719   22.7876 C   0  0  0  0  0  0  0  0  0  0  0  0
  -12.4984    4.0536   21.1994 C   0  0  0  0  0  0  0  0  0  0  0  0
  -12.1624    4.5483   19.8956 C   0  0  0  0  0  0  0  0  0  0  0  0
  -13.7952    3.4965   21.3958 C   0  0  0  0  0  0  0  0  0  0  0  0
   -9.8652    1.4525   23.6666 C   0  0  0  0  0  0  0  0  0  0  0  0
   -9.2510    0.2716   24.1857 C   0  0  0  0  0  0  0  0  0  0  0  0
   -9.4502   -0.8670   23.4591 C   0  0  0  0  0  0  0  0  0  0  0  0
  -10.1140   -0.8168   22.2190 C   0  0  0  0  0  0  0  0  0  0  0  0
  -10.7021    0.3533   21.7492 C   0  0  0  0  0  0  0  0  0  0  0  0
  -10.5587    1.4718   22.5272 C   0  0  0  0  0  0  0  0  0  0  0  0
   -6.6921    5.5695   28.6564 O   0  0  0  0  0  0  0  0  0  0  0  0
  -13.4495    2.3665   25.0634 C   0  0  0  0  0  0  0  0  0  0  0  0
  -13.9613    3.1494   26.0691 C   0  0  0  0  0  0  0  0  0  0  0  0
  -13.8183    2.7975   27.3434 C   0  0  0  0  0  0  0  0  0  0  0  0
  -13.4198    1.4855   27.6790 C   0  0  0  0  0  0  0  0  0  0  0  0
  -12.8967    0.6575   26.6869 C   0  0  0  0  0  0  0  0  0  0  0  0
  -12.8772    1.1250   25.3184 C   0  0  0  0  0  0  0  0  0  0  0  0
  9 11  1  0
 15 16  1  0
  8 18  1  0
  2 24  1  0
 12 25  1  0
 18 19  2  0
 19 20  1  0
 20 21  2  0
 21 22  1  0
 22 23  2  0
 23 18  1  0
 25 26  2  0
 26 27  1  0
 27 28  2  0
 28 29  1  0
 29 30  2  0
 30 25  1  0
  1  2  2  0
  2  5  1  0
  5  6  2  0
  6  7  1  0
  3  1  1  0
  3  4  2  0
  4  8  1  0
  8  9  2  0
  9 10  1  0
 10  7  2  0
  7  3  1  0
 11 12  2  0
 12 14  1  0
 14 17  2  0
 17 15  1  0
 15 13  2  0
 13 11  1  0
M  END
$$$$
