No_5871-complexes_sdf/6BKW-FPZ/2024-09-17-14-21-01/
     RDKit          3D

 31 34  0  0  0  0  0  0  0  0999 V2000
   -7.9040    3.9820   27.1177 C   0  0  0  0  0  0  0  0  0  0  0  0
   -8.2057    2.8231   26.8733 C   0  0  0  0  0  0  0  0  0  0  0  0
   -8.7695    5.0740   26.7916 C   0  0  0  0  0  0  0  0  0  0  0  0
   -8.4337    6.4678   27.0913 C   0  0  0  0  0  0  0  0  0  0  0  0
   -9.3742    2.4311   26.2346 C   0  0  0  0  0  0  0  0  0  0  0  0
  -10.2395    3.4267   25.8887 C   0  0  0  0  0  0  0  0  0  0  0  0
   -9.9567    4.7548   26.1374 C   0  0  0  0  0  0  0  0  0  0  0  0
   -8.7531    7.4243   26.4062 N   0  0  0  0  0  0  0  0  0  0  0  0
   -7.5354    6.5488   28.0787 O   0  0  0  0  0  0  0  0  0  0  0  0
   -7.2583    1.6712   27.2816 C   0  0  0  0  0  0  0  0  0  0  0  0
   -6.0084    1.9999   27.8528 C   0  0  0  0  0  0  0  0  0  0  0  0
   -5.1219    0.9324   28.2095 C   0  0  0  0  0  0  0  0  0  0  0  0
   -5.5000   -0.3515   28.0723 C   0  0  0  0  0  0  0  0  0  0  0  0
   -7.5552    0.3174   27.1910 C   0  0  0  0  0  0  0  0  0  0  0  0
   -6.7840   -0.6334   27.6238 C   0  0  0  0  0  0  0  0  0  0  0  0
   -4.5990   -1.3864   28.6000 C   0  0  0  0  0  0  0  0  0  0  0  0
   -3.9132   -1.2353   29.6170 N   0  0  0  0  0  0  0  0  0  0  0  0
   -4.0946   -1.3317   30.6742 C   0  0  0  0  0  0  0  0  0  0  0  0
   -3.1938   -0.8519   31.8003 C   0  0  0  0  0  0  0  0  0  0  0  0
   -5.3300   -1.8332   31.2852 C   0  0  0  0  0  0  0  0  0  0  0  0
   -5.6565   -1.8228   32.6695 C   0  0  0  0  0  0  0  0  0  0  0  0
   -3.4395   -0.8659   33.1787 C   0  0  0  0  0  0  0  0  0  0  0  0
   -4.6741   -1.3424   33.6131 C   0  0  0  0  0  0  0  0  0  0  0  0
   -2.4524   -0.8339   29.1329 C   0  0  0  0  0  0  0  0  0  0  0  0
   -1.5463   -1.8659   29.0951 C   0  0  0  0  0  0  0  0  0  0  0  0
   -1.7721   -2.7189   28.0090 C   0  0  0  0  0  0  0  0  0  0  0  0
   -1.0246   -3.7893   27.9356 C   0  0  0  0  0  0  0  0  0  0  0  0
    0.0913   -3.9987   28.7143 C   0  0  0  0  0  0  0  0  0  0  0  0
    0.3890   -3.0795   29.7260 C   0  0  0  0  0  0  0  0  0  0  0  0
   -0.4078   -1.9950   29.9756 C   0  0  0  0  0  0  0  0  0  0  0  0
   -4.8671   -2.6381   28.2231 O   0  0  0  0  0  0  0  0  0  0  0  0
  3  4  1  0
  4  8  1  0
  4  9  2  0
  2 10  1  0
 13 16  1  0
 16 17  1  0
 17 18  1  0
 17 24  1  0
 24 25  1  0
 16 31  2  0
 10 11  2  0
 11 12  1  0
 12 13  2  0
 13 15  1  0
 15 14  2  0
 14 10  1  0
 25 26  2  0
 26 27  1  0
 27 28  2  0
 28 29  1  0
 29 30  2  0
 30 25  1  0
 18 19  2  0
 19 22  1  0
 22 23  2  0
 23 21  1  0
 21 20  2  0
 20 18  1  0
  1  2  2  0
  2  5  1  0
  5  6  2  0
  6  7  1  0
  7  3  2  0
  3  1  1  0
M  END
$$$$
