No_5827-complexes_sdf/6BKW-FPZ/2024-09-17-14-21-01/
     RDKit          3D

 17 19  0  0  0  0  0  0  0  0999 V2000
   -7.2496    3.8871   27.4508 C   0  0  0  0  0  0  0  0  0  0  0  0
   -8.5096    4.0291   27.2770 C   0  0  0  0  0  0  0  0  0  0  0  0
   -9.3502    2.8685   26.8763 C   0  0  0  0  0  0  0  0  0  0  0  0
   -6.6288    2.5513   27.4938 C   0  0  0  0  0  0  0  0  0  0  0  0
   -7.4365    1.4714   27.2032 C   0  0  0  0  0  0  0  0  0  0  0  0
   -8.7772    1.6579   26.9338 C   0  0  0  0  0  0  0  0  0  0  0  0
   -9.1078    5.3660   27.2249 C   0  0  0  0  0  0  0  0  0  0  0  0
   -8.5994    6.3712   27.0779 C   0  0  0  0  0  0  0  0  0  0  0  0
   -7.1702    6.4219   26.8544 C   0  0  0  0  0  0  0  0  0  0  0  0
   -6.4869    5.1861   27.3865 C   0  0  0  0  0  0  0  0  0  0  0  0
   -6.7963    0.1698   27.3130 C   0  0  0  0  0  0  0  0  0  0  0  0
   -7.3873   -0.9714   27.0921 C   0  0  0  0  0  0  0  0  0  0  0  0
   -6.7303   -2.2088   27.1821 C   0  0  0  0  0  0  0  0  0  0  0  0
   -5.3911    0.1019   27.6757 C   0  0  0  0  0  0  0  0  0  0  0  0
   -4.7393   -1.1090   27.8124 C   0  0  0  0  0  0  0  0  0  0  0  0
   -5.4169   -2.2509   27.5476 C   0  0  0  0  0  0  0  0  0  0  0  0
  -11.0025    2.9960   26.5717 Cl  0  0  0  0  0  0  0  0  0  0  0  0
  5 11  1  0
  3 17  1  0
  2  7  1  0
  7  8  2  0
  8  9  1  0
  9 10  2  0
 10  1  1  0
  1  2  1  0
  2  3  2  0
  3  6  1  0
  6  5  2  0
  5  4  1  0
  4  1  2  0
 11 12  2  0
 12 13  1  0
 13 16  2  0
 16 15  1  0
 15 14  2  0
 14 11  1  0
M  END
$$$$
