No_5163-complexes_sdf/6BKW-FPZ/2024-09-17-14-21-01/
     RDKit          3D

 13 13  0  0  0  0  0  0  0  0999 V2000
   -7.7129    4.2099   27.0854 C   0  0  0  0  0  0  0  0  0  0  0  0
   -7.7814    5.1722   27.8972 C   0  0  0  0  0  0  0  0  0  0  0  0
   -7.2983    2.9533   27.5684 C   0  0  0  0  0  0  0  0  0  0  0  0
   -7.6908    1.8111   26.9553 C   0  0  0  0  0  0  0  0  0  0  0  0
   -8.6533    1.9165   25.9430 C   0  0  0  0  0  0  0  0  0  0  0  0
   -9.2376    3.0581   25.6387 C   0  0  0  0  0  0  0  0  0  0  0  0
   -8.8901    4.1760   26.2867 C   0  0  0  0  0  0  0  0  0  0  0  0
   -8.3894    6.3916   27.5666 N   0  0  0  0  0  0  0  0  0  0  0  0
   -6.9181    0.6076   27.4292 C   0  0  0  0  0  0  0  0  0  0  0  0
   -7.6335   -0.6512   27.4218 C   0  0  0  0  0  0  0  0  0  0  0  0
   -9.0201   -0.6688   27.1911 C   0  0  0  0  0  0  0  0  0  0  0  0
   -9.6848   -1.7777   27.3043 C   0  0  0  0  0  0  0  0  0  0  0  0
   -8.9841   -2.9393   27.6778 C   0  0  0  0  0  0  0  0  0  0  0  0
  2  8  1  0
  4  9  1  0
  9 10  2  3
 10 11  1  0
 11 12  2  3
 12 13  1  0
  2  1  1  0
  1  3  2  0
  3  4  1  0
  4  5  2  0
  5  6  1  0
  6  7  2  0
  7  1  1  0
M  END
$$$$
