No_526-complexes_sdf/6BKW-FPZ/2024-09-17-14-21-01/
     RDKit          3D

 40 44  0  0  0  0  0  0  0  0999 V2000
   -7.9040    3.9820   27.1177 C   0  0  0  0  0  0  0  0  0  0  0  0
   -9.0711    4.3164   27.0630 C   0  0  0  0  0  0  0  0  0  0  0  0
   -9.5182    5.5541   27.5777 C   0  0  0  0  0  0  0  0  0  0  0  0
   -7.4468    2.6843   26.6499 C   0  0  0  0  0  0  0  0  0  0  0  0
   -8.3856    1.7878   26.2216 C   0  0  0  0  0  0  0  0  0  0  0  0
   -9.6812    2.2328   26.0889 C   0  0  0  0  0  0  0  0  0  0  0  0
  -10.0147    3.4312   26.5259 C   0  0  0  0  0  0  0  0  0  0  0  0
   -7.9132    0.4733   25.8127 C   0  0  0  0  0  0  0  0  0  0  0  0
   -7.3372   -0.3146   26.4746 O   0  0  0  0  0  0  0  0  0  0  0  0
   -8.4789    0.0158   24.6159 O   0  0  0  0  0  0  0  0  0  0  0  0
   -8.9799    6.6038   27.0686 F   0  0  0  0  0  0  0  0  0  0  0  0
  -10.9032    5.8123   27.3041 F   0  0  0  0  0  0  0  0  0  0  0  0
   -9.2897    5.6597   28.8900 F   0  0  0  0  0  0  0  0  0  0  0  0
   -6.6016    4.8436   27.9606 Cl  0  0  0  0  0  0  0  0  0  0  0  0
   -7.7487   -0.8067   23.8290 C   0  0  1  0  0  0  0  0  0  0  0  0
   -8.0287   -0.6408   22.4694 C   0  0  2  0  0  0  0  0  0  0  0  0
   -9.0483    0.2161   22.1749 C   0  0  0  0  0  0  0  0  0  0  0  0
  -10.3683   -0.2562   22.1583 C   0  0  0  0  0  0  0  0  0  0  0  0
  -11.4481    0.6600   21.9147 C   0  0  0  0  0  0  0  0  0  0  0  0
  -11.1365    2.0172   21.6596 C   0  0  0  0  0  0  0  0  0  0  0  0
   -9.8290    2.4691   21.6178 C   0  0  0  0  0  0  0  0  0  0  0  0
   -8.8283    1.6305   21.8652 C   0  0  0  0  0  0  0  0  0  0  0  0
   -6.2973   -0.6595   24.1632 C   0  0  0  0  0  0  0  0  0  0  0  0
   -8.2373   -2.2303   24.2158 C   0  0  0  0  0  0  0  0  0  0  0  0
   -8.2054   -3.3264   23.5249 C   0  0  1  0  0  0  0  0  0  0  0  0
   -7.2566   -3.4966   22.7221 C   0  0  2  0  0  0  0  0  0  0  0  0
   -7.4347   -2.8545   21.4095 C   0  0  0  0  0  0  0  0  0  0  0  0
   -7.5448   -1.5443   21.4422 C   0  0  0  0  0  0  0  0  0  0  0  0
  -12.1891    2.8275   21.4114 F   0  0  0  0  0  0  0  0  0  0  0  0
   -9.0596   -4.4303   23.8244 C   0  0  0  0  0  0  0  0  0  0  0  0
   -9.2070   -5.3618   23.4283 C   0  0  0  0  0  0  0  0  0  0  0  0
   -9.8453   -6.3892   23.4762 C   0  0  0  0  0  0  0  0  0  0  0  0
   -9.7618   -7.5828   22.6834 C   0  0  0  0  0  0  0  0  0  0  0  0
   -8.8043   -7.5415   21.7266 C   0  0  0  0  0  0  0  0  0  0  0  0
   -8.0247   -6.5310   21.5054 C   0  0  0  0  0  0  0  0  0  0  0  0
   -8.1380   -5.3876   22.2962 C   0  0  0  0  0  0  0  0  0  0  0  0
   -6.6993   -4.6453   22.4779 N   0  0  0  0  0  0  0  0  0  0  0  0
   -5.8505   -5.1133   23.5473 C   0  0  0  0  0  0  0  0  0  0  0  0
   -4.7957   -5.9953   23.0695 C   0  0  0  0  0  0  0  0  0  0  0  0
   -4.0914   -5.7570   22.1418 C   0  0  0  0  0  0  0  0  0  0  0  0
  2  3  1  0
  5  8  1  0
  8  9  2  0
  8 10  1  0
  3 11  1  0
  3 12  1  0
  3 13  1  0
  1 14  1  0
 10 15  1  0
 15 16  1  0
 16 17  1  1
 15 23  1  6
 15 24  1  0
 25 24  1  1
 26 27  1  0
 16 28  1  0
 27 28  2  0
 20 29  1  0
 25 30  1  0
 26 37  1  6
 36 37  1  0
 37 38  1  0
 38 39  2  3
 39 40  1  0
 26 25  1  0
 30 31  1  0
 17 18  2  0
 18 19  1  0
 19 20  2  0
 20 21  1  0
 21 22  2  0
 22 17  1  0
 31 32  2  0
 32 33  1  0
 33 34  2  0
 34 35  1  0
 35 36  2  0
 36 31  1  0
  1  2  2  0
  2  7  1  0
  7  6  2  0
  6  5  1  0
  5  4  2  0
  4  1  1  0
M  END
$$$$
