No_5736-complexes_sdf/6BKW-FPZ/2024-09-17-14-21-01/
     RDKit          3D

 40 43  0  0  0  0  0  0  0  0999 V2000
   -7.7129    4.2099   27.0854 C   0  0  0  0  0  0  0  0  0  0  0  0
   -7.7814    5.1722   27.8972 C   0  0  0  0  0  0  0  0  0  0  0  0
   -7.3155    2.9699   27.6145 C   0  0  0  0  0  0  0  0  0  0  0  0
   -7.6814    1.8188   26.9581 C   0  0  0  0  0  0  0  0  0  0  0  0
   -7.2010    0.5770   27.3247 C   0  0  0  0  0  0  0  0  0  0  0  0
   -5.9385    0.5276   27.8977 C   0  0  0  0  0  0  0  0  0  0  0  0
   -5.2995    1.7578   28.2688 C   0  0  0  0  0  0  0  0  0  0  0  0
   -5.9104    2.9355   27.9924 C   0  0  0  0  0  0  0  0  0  0  0  0
   -8.4342    6.5185   27.5776 C   0  0  0  0  0  0  0  0  0  0  0  0
   -8.6596    4.3215   26.0225 C   0  0  0  0  0  0  0  0  0  0  0  0
   -9.4089    5.4776   25.7269 C   0  0  0  0  0  0  0  0  0  0  0  0
   -9.2329    6.5768   26.4921 C   0  0  0  0  0  0  0  0  0  0  0  0
   -5.2776   -0.7456   28.1779 C   0  0  0  0  0  0  0  0  0  0  0  0
   -4.2752   -1.0602   28.2073 O   0  0  0  0  0  0  0  0  0  0  0  0
   -6.2245   -1.6989   28.5656 O   0  0  0  0  0  0  0  0  0  0  0  0
   -5.8510   -2.7401   29.3062 C   0  0  0  0  0  0  0  0  0  0  0  0
   -5.5751   -2.4380   30.5362 C   0  0  0  0  0  0  0  0  0  0  0  0
   -6.0996   -2.4668   31.5323 C   0  0  0  0  0  0  0  0  0  0  0  0
   -5.6900   -1.9970   32.9490 C   0  0  0  0  0  0  0  0  0  0  0  0
   -4.7009   -1.4572   33.0139 C   0  0  0  0  0  0  0  0  0  0  0  0
   -3.8014   -1.1723   31.8757 C   0  0  0  0  0  0  0  0  0  0  0  0
   -4.2629   -1.6215   30.6695 C   0  0  0  0  0  0  0  0  0  0  0  0
   -2.5747   -0.3969   32.0446 C   0  0  0  0  0  0  0  0  0  0  0  0
   -1.8246   -0.9427   32.8105 O   0  0  0  0  0  0  0  0  0  0  0  0
   -0.9611   -1.7493   32.9061 C   0  0  0  0  0  0  0  0  0  0  0  0
   -0.2058   -1.8188   34.0655 C   0  0  0  0  0  0  0  0  0  0  0  0
   -0.7338   -2.6223   31.8277 C   0  0  0  0  0  0  0  0  0  0  0  0
   -0.4571   -1.0877   35.2368 C   0  0  0  0  0  0  0  0  0  0  0  0
   -1.6084   -0.7164   35.5704 N   0  0  0  0  0  0  0  0  0  0  0  0
   -1.9266    0.0014   36.7097 C   0  0  0  0  0  0  0  0  0  0  0  0
   -3.3476    0.3012   36.8711 C   0  0  0  0  0  0  0  0  0  0  0  0
   -3.7583    0.9333   38.0921 C   0  0  0  0  0  0  0  0  0  0  0  0
   -5.1134    1.1786   38.3780 C   0  0  0  0  0  0  0  0  0  0  0  0
   -5.5646    1.9409   39.4655 C   0  0  0  0  0  0  0  0  0  0  0  0
   -6.9536    2.2025   39.6522 C   0  0  0  0  0  0  0  0  0  0  0  0
   -7.4084    3.2117   40.4921 C   0  0  0  0  0  0  0  0  0  0  0  0
   -6.4460    3.8517   41.3453 C   0  0  0  0  0  0  0  0  0  0  0  0
   -5.1079    3.5223   41.2170 C   0  0  0  0  0  0  0  0  0  0  0  0
   -4.6791    2.6984   40.2577 C   0  0  0  0  0  0  0  0  0  0  0  0
   -1.0748    0.3558   37.4828 O   0  0  0  0  0  0  0  0  0  0  0  0
  6 13  1  0
 13 14  2  0
 13 15  1  0
 15 16  1  0
 16 17  1  0
 21 23  1  0
 23 24  1  0
 24 25  1  0
 25 26  2  3
 25 27  1  0
 26 28  1  0
 28 29  1  0
 29 30  1  0
 30 31  1  0
 31 32  2  3
 32 33  1  0
 33 34  1  0
 30 40  2  0
  3  1  1  0
 17 18  2  0
 18 19  1  0
 19 20  2  0
 20 21  1  0
 21 22  2  0
 22 17  1  0
 34 35  2  0
 35 36  1  0
 36 37  2  0
 37 38  1  0
 38 39  2  0
 39 34  1  0
  3  4  2  0
  4  5  1  0
  5  6  2  0
  6  7  1  0
  7  8  2  0
  8  3  1  0
  1  2  2  0
  2  9  1  0
  9 12  2  0
 12 11  1  0
 11 10  2  0
 10  1  1  0
M  END
$$$$
