No_524-complexes_sdf/6BKW-FPZ/2024-09-17-14-21-01/
     RDKit          3D

 20 23  0  0  0  0  0  0  0  0999 V2000
   -7.9040    3.9820   27.1177 C   0  0  0  0  0  0  0  0  0  0  0  0
   -8.2057    2.8231   26.8733 C   0  0  0  0  0  0  0  0  0  0  0  0
   -7.0130    4.3706   28.1140 C   0  0  0  0  0  0  0  0  0  0  0  0
   -9.3829    2.4374   26.1668 C   0  0  0  0  0  0  0  0  0  0  0  0
   -9.6934    1.0230   26.0164 C   0  0  0  0  0  0  0  0  0  0  0  0
   -8.8160    0.1163   26.5021 C   0  0  0  0  0  0  0  0  0  0  0  0
   -7.6769    0.4330   27.1868 C   0  0  0  0  0  0  0  0  0  0  0  0
   -7.3087    1.7883   27.4390 C   0  0  0  0  0  0  0  0  0  0  0  0
   -8.6131    5.1170   26.4509 C   0  0  0  0  0  0  0  0  0  0  0  0
   -6.8702    5.8049   28.5280 C   0  0  0  0  0  0  0  0  0  0  0  0
   -8.4952    6.4801   26.8096 C   0  0  0  0  0  0  0  0  0  0  0  0
   -7.5769    6.7559   27.8300 C   0  0  0  0  0  0  0  0  0  0  0  0
   -6.8054   -0.6188   27.7737 C   0  0  0  0  0  0  0  0  0  0  0  0
   -5.4907   -0.3154   28.1024 C   0  0  0  0  0  0  0  0  0  0  0  0
   -4.6400   -0.8992   28.6490 C   0  0  0  0  0  0  0  0  0  0  0  0
   -3.8070   -0.7213   29.2341 C   0  0  0  0  0  0  0  0  0  0  0  0
   -3.1432    0.7189   29.2656 C   0  0  0  0  0  0  0  0  0  0  0  0
   -4.0454    1.6015   28.6292 C   0  0  0  0  0  0  0  0  0  0  0  0
   -5.2090    1.1959   28.1301 C   0  0  0  0  0  0  0  0  0  0  0  0
   -6.1558    2.0902   27.6823 N   0  0  0  0  0  0  0  0  0  0  0  0
  1  2  1  0
  2  4  2  0
  4  5  1  0
  5  6  2  0
  6  7  1  0
  8  2  1  0
  7  8  2  0
  8 20  1  0
 20 19  2  0
 14 13  2  0
 13  7  1  0
 14 15  1  0
 15 16  2  0
 16 17  1  0
 17 18  2  0
 18 19  1  0
 19 14  1  0
  1  3  2  0
  3 10  1  0
 10 12  2  0
 12 11  1  0
 11  9  2  0
  9  1  1  0
M  END
$$$$
