No_5622-complexes_sdf/6BKW-FPZ/2024-09-17-14-21-01/
     RDKit          3D

 20 22  0  0  0  0  0  0  0  0999 V2000
   -7.9040    3.9820   27.1177 C   0  0  0  0  0  0  0  0  0  0  0  0
   -9.0711    4.3164   27.0630 C   0  0  0  0  0  0  0  0  0  0  0  0
   -9.9692    3.7224   26.1073 C   0  0  0  0  0  0  0  0  0  0  0  0
   -6.9787    4.6761   28.1003 C   0  0  0  0  0  0  0  0  0  0  0  0
   -9.4538    2.6801   25.3673 C   0  0  0  0  0  0  0  0  0  0  0  0
   -8.1927    2.1957   25.6621 C   0  0  0  0  0  0  0  0  0  0  0  0
   -7.4333    2.8255   26.6299 C   0  0  0  0  0  0  0  0  0  0  0  0
  -10.3181    2.0008   24.3846 C   0  0  0  0  0  0  0  0  0  0  0  0
  -10.7358    2.6411   23.3159 C   0  0  0  0  0  0  0  0  0  0  0  0
  -11.4735    2.0086   22.2438 C   0  0  0  0  0  0  0  0  0  0  0  0
  -11.6287    0.6012   22.3603 C   0  0  0  0  0  0  0  0  0  0  0  0
  -10.4396    0.6125   24.2797 C   0  0  0  0  0  0  0  0  0  0  0  0
  -11.0707   -0.0469   23.3408 C   0  0  0  0  0  0  0  0  0  0  0  0
   -7.4862    5.8005   28.6551 N   0  0  0  0  0  0  0  0  0  0  0  0
   -5.7421    4.3007   28.2783 N   0  0  0  0  0  0  0  0  0  0  0  0
  -10.6105    4.1646   23.1271 C   0  0  2  0  0  0  0  0  0  0  0  0
  -11.7345    4.8780   23.1819 C   0  0  0  0  0  0  0  0  0  0  0  0
  -10.2099    4.6092   21.8105 C   0  0  0  0  0  0  0  0  0  0  0  0
  -12.3107    5.4181   22.1626 C   0  0  0  0  0  0  0  0  0  0  0  0
  -11.0573    5.4894   21.2982 C   0  0  0  0  0  0  0  0  0  0  0  0
  1  4  1  0
  5  8  1  0
  4 14  1  0
  4 15  2  0
 16  9  1  6
 16 17  1  0
 16 18  1  0
 17 19  2  0
 18 20  1  0
 19 20  1  0
  8  9  1  0
  9 10  2  0
 10 11  1  0
 11 13  2  0
 13 12  1  0
 12  8  2  0
  1  2  2  0
  2  3  1  0
  3  5  2  0
  5  6  1  0
  6  7  2  0
  7  1  1  0
M  END
$$$$
