No_5932-complexes_sdf/6BKW-FPZ/2024-09-17-14-21-01/
     RDKit          3D

 16 18  0  0  0  0  0  0  0  0999 V2000
   -7.7129    4.2099   27.0854 C   0  0  0  0  0  0  0  0  0  0  0  0
   -8.2112    3.0637   26.9225 C   0  0  0  0  0  0  0  0  0  0  0  0
   -9.4446    2.8304   26.1868 C   0  0  0  0  0  0  0  0  0  0  0  0
   -8.4697    5.3956   26.7238 C   0  0  0  0  0  0  0  0  0  0  0  0
   -9.6172    5.2111   25.9513 C   0  0  0  0  0  0  0  0  0  0  0  0
  -10.0424    3.9782   25.6873 C   0  0  0  0  0  0  0  0  0  0  0  0
   -7.5056    1.8167   27.4088 C   0  0  0  0  0  0  0  0  0  0  0  0
   -8.0423    0.5366   27.2920 C   0  0  0  0  0  0  0  0  0  0  0  0
   -7.3570   -0.5133   27.7568 C   0  0  0  0  0  0  0  0  0  0  0  0
   -6.0645   -0.3845   28.2643 C   0  0  0  0  0  0  0  0  0  0  0  0
   -5.2826   -1.4567   28.7685 C   0  0  0  0  0  0  0  0  0  0  0  0
   -5.4792    0.9043   28.3077 C   0  0  0  0  0  0  0  0  0  0  0  0
   -6.1339    1.9494   27.8740 C   0  0  0  0  0  0  0  0  0  0  0  0
   -4.1981   -1.3458   29.1406 C   0  0  0  0  0  0  0  0  0  0  0  0
   -3.4793   -0.0008   29.1899 C   0  0  0  0  0  0  0  0  0  0  0  0
   -4.1179    1.0357   28.7812 C   0  0  0  0  0  0  0  0  0  0  0  0
  2  7  1  0
  7  8  2  0
  8  9  1  0
  9 10  2  0
 12 13  2  0
 13  7  1  0
  1  2  2  0
  2  3  1  0
  3  6  2  0
  6  5  1  0
  5  4  2  0
  4  1  1  0
 10 11  1  0
 11 14  2  0
 14 15  1  0
 15 16  2  0
 16 12  1  0
 12 10  1  0
M  END
$$$$
