No_5293-complexes_sdf/6BKW-FPZ/2024-09-17-14-21-01/
     RDKit          3D

 37 42  0  0  0  0  0  0  0  0999 V2000
   -7.9040    3.9820   27.1177 C   0  0  0  0  0  0  0  0  0  0  0  0
   -8.2057    2.8231   26.8733 C   0  0  0  0  0  0  0  0  0  0  0  0
   -7.4766    1.7477   27.4593 C   0  0  0  0  0  0  0  0  0  0  0  0
   -8.7468    5.1251   26.6967 C   0  0  0  0  0  0  0  0  0  0  0  0
   -9.7234    4.8589   25.8202 C   0  0  0  0  0  0  0  0  0  0  0  0
   -9.9711    3.5858   25.4266 C   0  0  0  0  0  0  0  0  0  0  0  0
   -9.2266    2.4957   25.9600 C   0  0  0  0  0  0  0  0  0  0  0  0
   -7.8826    0.4491   27.3570 N   0  0  0  0  0  0  0  0  0  0  0  0
   -9.0872    0.1761   27.3809 C   0  0  0  0  0  0  0  0  0  0  0  0
   -6.1930    2.0003   27.7510 O   0  0  0  0  0  0  0  0  0  0  0  0
   -8.4114    6.3693   27.0549 F   0  0  0  0  0  0  0  0  0  0  0  0
   -9.9580   -0.5424   27.4413 C   0  0  0  0  0  0  0  0  0  0  0  0
   -9.7398   -1.9389   27.6762 C   0  0  0  0  0  0  0  0  0  0  0  0
   -8.7627   -2.4762   27.4143 C   0  0  0  0  0  0  0  0  0  0  0  0
   -7.4723   -2.1101   27.6438 C   0  0  0  0  0  0  0  0  0  0  0  0
   -6.9682   -0.6782   27.5659 C   0  0  0  0  0  0  0  0  0  0  0  0
  -11.0407    3.2993   24.4455 C   0  0  0  0  0  0  0  0  0  0  0  0
  -10.9642    3.8076   23.2399 C   0  0  0  0  0  0  0  0  0  0  0  0
  -11.3077    3.7910   22.2882 C   0  0  0  0  0  0  0  0  0  0  0  0
  -10.9666    4.6137   21.0463 C   0  0  0  0  0  0  0  0  0  0  0  0
  -10.1342    5.3768   21.7766 N   0  0  0  0  0  0  0  0  0  0  0  0
  -10.1766    4.9827   23.0587 N   0  0  0  0  0  0  0  0  0  0  0  0
  -12.0240    2.3590   24.8134 C   0  0  0  0  0  0  0  0  0  0  0  0
  -13.2725    2.9592   25.1796 C   0  0  0  0  0  0  0  0  0  0  0  0
  -14.3481    2.1304   25.5714 C   0  0  0  0  0  0  0  0  0  0  0  0
  -14.1028    0.7634   25.5647 C   0  0  0  0  0  0  0  0  0  0  0  0
  -12.9195    0.1980   25.1712 C   0  0  0  0  0  0  0  0  0  0  0  0
  -11.8584    1.0166   24.8408 C   0  0  0  0  0  0  0  0  0  0  0  0
  -12.2772    2.5924   21.7656 C   0  0  0  0  0  0  0  0  0  0  0  0
  -12.6443    2.4324   20.7013 C   0  0  0  0  0  0  0  0  0  0  0  0
  -12.2489    3.3649   19.6618 C   0  0  0  0  0  0  0  0  0  0  0  0
  -11.3836    4.4521   19.8451 C   0  0  0  0  0  0  0  0  0  0  0  0
   -5.7226   -0.4216   27.7018 O   0  0  0  0  0  0  0  0  0  0  0  0
  -15.1635   -0.1263   25.9288 N   0  0  0  0  0  0  0  0  0  0  0  0
  -15.1828   -1.2957   25.8854 C   0  0  0  0  0  0  0  0  0  0  0  0
  -13.9371   -1.9536   25.4791 C   0  0  0  0  0  0  0  0  0  0  0  0
  -12.8369   -1.2405   25.1803 C   0  0  0  0  0  0  0  0  0  0  0  0
  2  3  1  0
  3  8  1  0
  8  9  1  0
  3 10  2  0
  4 11  1  0
  9 12  3  0
 12 13  1  0
 13 14  2  0
 14 15  1  0
  8 16  1  0
 15 16  1  0
  6 17  1  0
 17 18  2  3
 18 19  1  0
 20 21  1  0
 18 22  1  0
 21 22  1  0
 17 23  1  0
 16 33  2  0
 27 37  1  0
 37 36  2  0
 36 35  1  0
 35 34  2  0
 34 26  1  0
 19 20  2  0
 20 32  1  0
 32 31  2  0
 31 30  1  0
 30 29  2  0
 29 19  1  0
  1  2  2  0
  2  7  1  0
  7  6  2  0
  6  5  1  0
  5  4  2  0
  4  1  1  0
 23 24  2  0
 24 25  1  0
 25 26  2  0
 26 27  1  0
 27 28  2  0
 28 23  1  0
M  END
$$$$
