No_5543-complexes_sdf/6BKW-FPZ/2024-09-17-14-21-01/
     RDKit          3D

 15 17  0  0  0  0  0  0  0  0999 V2000
   -7.9040    3.9820   27.1177 C   0  0  0  0  0  0  0  0  0  0  0  0
   -7.8663    4.8694   27.9238 C   0  0  0  0  0  0  0  0  0  0  0  0
   -7.4698    2.6989   27.4277 C   0  0  0  0  0  0  0  0  0  0  0  0
   -7.9683    1.5964   26.8266 C   0  0  0  0  0  0  0  0  0  0  0  0
   -7.5288    0.3101   27.1202 C   0  0  0  0  0  0  0  0  0  0  0  0
   -8.3245   -0.7895   26.7699 C   0  0  0  0  0  0  0  0  0  0  0  0
   -9.4233   -0.5403   25.9713 C   0  0  0  0  0  0  0  0  0  0  0  0
   -9.0873    1.5285   25.8950 C   0  0  0  0  0  0  0  0  0  0  0  0
   -9.4457    3.0290   25.4766 C   0  0  0  0  0  0  0  0  0  0  0  0
   -9.7493    0.5797   25.4766 C   0  0  0  0  0  0  0  0  0  0  0  0
   -8.9567    4.1589   26.2033 C   0  0  0  0  0  0  0  0  0  0  0  0
   -8.1946    6.2646   27.6492 N   0  0  0  0  0  0  0  0  0  0  0  0
   -9.1195    6.5822   26.6994 C   0  0  0  0  0  0  0  0  0  0  0  0
   -9.5137    5.4125   25.8995 C   0  0  0  0  0  0  0  0  0  0  0  0
  -10.2790    3.1343   24.5653 O   0  0  0  0  0  0  0  0  0  0  0  0
  1  3  1  0
  3  4  1  0
  8  9  1  0
  9 11  1  0
  9 15  2  0
  4  5  2  0
  5  6  1  0
  6  7  2  0
  7 10  1  0
 10  8  2  0
  8  4  1  0
  1  2  2  0
  2 12  1  0
 12 13  2  0
 13 14  1  0
 14 11  2  0
 11  1  1  0
M  END
$$$$
