No_5047-complexes_sdf/6BKW-FPZ/2024-09-17-14-21-01/
     RDKit          3D

 19 20  0  0  0  0  0  0  0  0999 V2000
   -7.2496    3.8871   27.4508 C   0  0  0  0  0  0  0  0  0  0  0  0
   -8.5096    4.0291   27.2770 C   0  0  0  0  0  0  0  0  0  0  0  0
   -9.3502    2.8685   26.8763 C   0  0  0  0  0  0  0  0  0  0  0  0
   -6.6288    2.5513   27.4938 C   0  0  0  0  0  0  0  0  0  0  0  0
   -7.4365    1.4714   27.2032 C   0  0  0  0  0  0  0  0  0  0  0  0
   -8.7772    1.6579   26.9338 C   0  0  0  0  0  0  0  0  0  0  0  0
   -9.1119    5.3743   27.2229 C   0  0  0  0  0  0  0  0  0  0  0  0
   -8.3195    6.4988   26.9602 C   0  0  0  0  0  0  0  0  0  0  0  0
   -8.6574    7.8231   27.0769 C   0  0  0  0  0  0  0  0  0  0  0  0
   -6.8259    0.1593   27.2486 C   0  0  0  0  0  0  0  0  0  0  0  0
   -5.8273    0.0351   27.9426 F   0  0  0  0  0  0  0  0  0  0  0  0
   -7.7465   -0.7048   27.1651 F   0  0  0  0  0  0  0  0  0  0  0  0
  -10.4688    5.5232   27.4300 C   0  0  0  0  0  0  0  0  0  0  0  0
   -6.1974    0.0802   25.9016 F   0  0  0  0  0  0  0  0  0  0  0  0
  -11.3127    4.4488   27.6235 C   0  0  0  0  0  0  0  0  0  0  0  0
  -11.0272    3.3639   27.5778 C   0  0  1  0  0  0  0  0  0  0  0  0
  -11.7298    2.0169   27.8049 C   0  0  0  0  0  0  0  0  0  0  0  0
  -11.9100    1.1322   27.3172 C   0  0  0  0  0  0  0  0  0  0  0  0
  -12.6618   -0.0334   27.8183 C   0  0  0  0  0  0  0  0  0  0  0  0
  2  7  1  0
  7  8  1  0
  8  9  2  0
  5 10  1  0
 10 11  1  0
 10 12  1  0
  7 13  1  0
 10 14  1  0
 13 15  1  0
  3 16  1  0
 16 15  1  6
 16 17  1  0
 17 18  2  3
 18 19  1  0
  1  2  2  0
  2  3  1  0
  3  6  2  0
  6  5  1  0
  5  4  2  0
  4  1  1  0
M  END
$$$$
