No_5812-complexes_sdf/6BKW-FPZ/2024-09-17-14-21-01/
     RDKit          3D

 23 26  0  0  0  0  0  0  0  0999 V2000
   -7.9040    3.9820   27.1177 C   0  0  0  0  0  0  0  0  0  0  0  0
   -7.8663    4.8694   27.9238 C   0  0  0  0  0  0  0  0  0  0  0  0
   -9.0491    3.8523   26.2542 C   0  0  0  0  0  0  0  0  0  0  0  0
   -8.7661    5.9491   27.9690 C   0  0  0  0  0  0  0  0  0  0  0  0
   -9.9295    4.8502   26.2323 C   0  0  0  0  0  0  0  0  0  0  0  0
   -9.8077    5.9288   27.0933 C   0  0  0  0  0  0  0  0  0  0  0  0
   -6.8002    2.6256   27.2024 Cl  0  0  0  0  0  0  0  0  0  0  0  0
   -9.0975    2.7884   25.3552 O   0  0  0  0  0  0  0  0  0  0  0  0
  -10.1093    2.7937   24.4191 C   0  0  0  0  0  0  0  0  0  0  0  0
  -11.1509    2.3481   24.8090 C   0  0  0  0  0  0  0  0  0  0  0  0
  -12.2633    2.3074   23.8309 C   0  0  0  0  0  0  0  0  0  0  0  0
  -11.9877    2.7226   22.5217 C   0  0  0  0  0  0  0  0  0  0  0  0
  -10.7097    3.1995   22.1793 C   0  0  0  0  0  0  0  0  0  0  0  0
   -9.7400    3.2529   23.1327 C   0  0  0  0  0  0  0  0  0  0  0  0
  -10.3715    3.7445   20.5935 Cl  0  0  0  0  0  0  0  0  0  0  0  0
  -13.5828    1.7916   24.1550 C   0  0  0  0  0  0  0  0  0  0  0  0
  -14.5039    1.8416   23.4327 C   0  0  0  0  0  0  0  0  0  0  0  0
  -15.8482    1.3211   23.7514 C   0  0  0  0  0  0  0  0  0  0  0  0
  -16.8967    1.3566   22.8636 C   0  0  0  0  0  0  0  0  0  0  0  0
  -16.6650    1.9243   21.5958 C   0  0  0  0  0  0  0  0  0  0  0  0
  -15.4702    2.4169   21.2290 C   0  0  0  0  0  0  0  0  0  0  0  0
  -14.3804    2.3942   22.1393 C   0  0  0  0  0  0  0  0  0  0  0  0
  -13.1216    2.8724   21.6683 C   0  0  0  0  0  0  0  0  0  0  0  0
  1  7  1  0
  3  8  1  0
  8  9  1  0
 13 15  1  0
 12 23  2  0
 23 22  1  0
 17 16  1  0
 16 11  2  0
  1  2  2  0
  2  4  1  0
  4  6  2  0
  6  5  1  0
  5  3  2  0
  3  1  1  0
  9 10  2  0
 10 11  1  0
 11 12  1  0
 12 13  1  0
 13 14  2  0
 14  9  1  0
 17 18  2  0
 18 19  1  0
 19 20  2  0
 20 21  1  0
 21 22  2  0
 22 17  1  0
M  END
$$$$
