No_5896-complexes_sdf/6BKW-FPZ/2024-09-17-14-21-01/
     RDKit          3D

 29 32  0  0  0  0  0  0  0  0999 V2000
   -7.9040    3.9820   27.1177 C   0  0  0  0  0  0  0  0  0  0  0  0
   -8.2057    2.8231   26.8733 C   0  0  0  0  0  0  0  0  0  0  0  0
   -8.7695    5.0740   26.7916 C   0  0  0  0  0  0  0  0  0  0  0  0
   -8.4337    6.4678   27.0913 C   0  0  0  0  0  0  0  0  0  0  0  0
   -9.3742    2.4311   26.2346 C   0  0  0  0  0  0  0  0  0  0  0  0
  -10.2395    3.4267   25.8887 C   0  0  0  0  0  0  0  0  0  0  0  0
   -9.9567    4.7548   26.1374 C   0  0  0  0  0  0  0  0  0  0  0  0
   -7.9449    7.5014   26.9590 N   0  0  0  0  0  0  0  0  0  0  0  0
   -7.3078    1.7582   27.2741 N   0  0  0  0  0  0  0  0  0  0  0  0
   -6.0950    2.0519   27.8506 C   0  0  0  0  0  0  0  0  0  0  0  0
   -5.2596    0.8350   28.1847 C   0  0  1  0  0  0  0  0  0  0  0  0
   -5.4854   -0.2067   27.9505 C   0  0  0  0  0  0  0  0  0  0  0  0
   -7.4840    0.3825   27.1142 C   0  0  0  0  0  0  0  0  0  0  0  0
   -6.7572   -0.5518   27.4900 C   0  0  1  0  0  0  0  0  0  0  0  0
   -3.6529    1.5159   28.8617 Cl  0  0  0  0  0  0  0  0  0  0  0  0
  -11.4592    3.1135   25.1054 C   0  0  0  0  0  0  0  0  0  0  0  0
  -11.3118    2.4910   24.0017 C   0  0  0  0  0  0  0  0  0  0  0  0
  -12.4624    2.1710   23.1595 C   0  0  0  0  0  0  0  0  0  0  0  0
  -13.6809    2.7185   23.5142 C   0  0  0  0  0  0  0  0  0  0  0  0
  -12.7169    3.7250   25.3630 C   0  0  0  0  0  0  0  0  0  0  0  0
  -13.7906    3.5628   24.6415 C   0  0  0  0  0  0  0  0  0  0  0  0
   -7.1879   -1.9490   27.3264 C   0  0  0  0  0  0  0  0  0  0  0  0
   -8.2847   -2.1926   26.8780 N   0  0  0  0  0  0  0  0  0  0  0  0
   -8.7139   -2.3522   25.6101 C   0  0  0  0  0  0  0  0  0  0  0  0
  -10.0762   -2.3346   25.2182 C   0  0  0  0  0  0  0  0  0  0  0  0
   -9.4781   -2.2656   27.7835 C   0  0  0  0  0  0  0  0  0  0  0  0
  -10.7998   -2.1691   27.4777 C   0  0  0  0  0  0  0  0  0  0  0  0
  -11.0931   -2.3475   26.1196 C   0  0  0  0  0  0  0  0  0  0  0  0
   -6.4818   -2.9287   27.6891 O   0  0  0  0  0  0  0  0  0  0  0  0
  3  4  1  0
  4  8  3  0
  2  9  1  0
  9 10  1  0
 11 12  1  0
  9 13  1  0
 12 14  1  0
 11 15  1  6
  6 16  1  0
 14 22  1  6
 22 23  1  0
 23 24  1  0
 23 26  1  0
 25 28  1  0
 27 28  1  0
 22 29  2  0
 24 25  1  0
 27 26  1  0
 10 11  1  0
 14 13  1  0
  1  2  2  0
  2  5  1  0
  5  6  2  0
  6  7  1  0
  7  3  2  0
  3  1  1  0
 16 17  2  0
 17 18  1  0
 18 19  2  0
 19 21  1  0
 21 20  2  0
 20 16  1  0
M  END
$$$$
