No_5634-complexes_sdf/6BKW-FPZ/2024-09-17-14-21-01/
     RDKit          3D

 20 21  0  0  0  0  0  0  0  0999 V2000
   -7.9040    3.9820   27.1177 C   0  0  0  0  0  0  0  0  0  0  0  0
   -8.2057    2.8231   26.8733 C   0  0  0  0  0  0  0  0  0  0  0  0
   -9.2962    2.4021   26.1155 C   0  0  0  0  0  0  0  0  0  0  0  0
   -8.7358    5.0662   26.5917 C   0  0  0  0  0  0  0  0  0  0  0  0
   -9.7618    4.7023   25.7546 C   0  0  0  0  0  0  0  0  0  0  0  0
  -10.0066    3.4105   25.4922 C   0  0  0  0  0  0  0  0  0  0  0  0
   -8.3943    6.4760   26.8801 C   0  0  0  0  0  0  0  0  0  0  0  0
   -8.1074    7.5208   26.4293 Cl  0  0  0  0  0  0  0  0  0  0  0  0
   -9.5042    0.9714   25.8025 C   0  0  2  0  0  0  0  0  0  0  0  0
  -10.1826    0.1978   26.7094 C   0  0  0  0  0  0  0  0  0  0  0  0
  -10.1612   -1.1131   26.7313 C   0  0  0  0  0  0  0  0  0  0  0  0
  -10.7751   -1.8823   27.7992 C   0  0  0  0  0  0  0  0  0  0  0  0
  -11.5160   -1.1851   28.7952 C   0  0  0  0  0  0  0  0  0  0  0  0
  -11.5609    0.2071   28.7654 C   0  0  0  0  0  0  0  0  0  0  0  0
  -10.8728    0.9097   27.8102 C   0  0  0  0  0  0  0  0  0  0  0  0
   -8.9474    0.4007   24.6536 C   0  0  0  0  0  0  0  0  0  0  0  0
   -8.5145    0.8016   23.6331 C   0  0  0  0  0  0  0  0  0  0  0  0
   -7.9915    0.1023   22.4780 C   0  0  0  0  0  0  0  0  0  0  0  0
   -7.9053   -1.2922   22.6416 C   0  0  0  0  0  0  0  0  0  0  0  0
   -8.2966   -1.8871   23.7879 C   0  0  0  0  0  0  0  0  0  0  0  0
  4  7  1  0
  7  8  1  0
  9  3  1  1
  9 10  1  0
  9 16  1  0
 16 17  2  3
 17 18  1  0
 18 19  2  3
 19 20  1  0
  1  2  2  0
  2  3  1  0
  3  6  2  0
  6  5  1  0
  5  4  2  0
  4  1  1  0
 10 11  2  0
 11 12  1  0
 12 13  2  0
 13 14  1  0
 14 15  2  0
 15 10  1  0
M  END
$$$$
