No_5619-complexes_sdf/6BKW-FPZ/2024-09-17-14-21-01/
     RDKit          3D

 38 42  0  0  0  0  0  0  0  0999 V2000
   -7.2496    3.8871   27.4508 C   0  0  0  0  0  0  0  0  0  0  0  0
   -7.9379    4.9063   27.8518 C   0  0  0  0  0  0  0  0  0  0  0  0
   -9.3376    4.8647   27.7795 C   0  0  0  0  0  0  0  0  0  0  0  0
   -7.8544    2.6294   27.0414 C   0  0  0  0  0  0  0  0  0  0  0  0
   -9.2852    2.6570   27.0666 C   0  0  0  0  0  0  0  0  0  0  0  0
  -10.0126    3.7528   27.4890 C   0  0  0  0  0  0  0  0  0  0  0  0
   -9.9609    1.3640   26.7239 C   0  0  0  0  0  0  0  0  0  0  0  0
  -10.7817    1.2617   26.0939 C   0  0  0  0  0  0  0  0  0  0  0  0
  -11.3271    2.4823   25.3896 C   0  0  0  0  0  0  0  0  0  0  0  0
  -11.1578    2.6609   24.3600 C   0  0  0  0  0  0  0  0  0  0  0  0
  -11.5555    3.9566   23.6119 C   0  0  0  0  0  0  0  0  0  0  0  0
  -12.2239    4.8361   24.3875 C   0  0  0  0  0  0  0  0  0  0  0  0
  -12.5963    4.5892   25.6510 C   0  0  0  0  0  0  0  0  0  0  0  0
  -12.0861    3.4452   26.2477 C   0  0  0  0  0  0  0  0  0  0  0  0
  -11.4177    3.7262   27.5790 C   0  0  0  0  0  0  0  0  0  0  0  0
   -7.2879    6.0436   28.2386 O   0  0  0  0  0  0  0  0  0  0  0  0
  -11.4169    4.1480   22.1482 C   0  0  0  0  0  0  0  0  0  0  0  0
  -10.0900    4.4118   21.8249 C   0  0  0  0  0  0  0  0  0  0  0  0
  -12.4521    3.9224   21.3040 C   0  0  0  0  0  0  0  0  0  0  0  0
   -9.2796    0.1283   27.3939 C   0  0  0  0  0  0  0  0  0  0  0  0
   -7.9863   -0.2168   27.1609 C   0  0  0  0  0  0  0  0  0  0  0  0
   -7.5244   -1.2201   27.7158 C   0  0  0  0  0  0  0  0  0  0  0  0
  -10.0379   -0.6525   28.1759 C   0  0  0  0  0  0  0  0  0  0  0  0
   -9.5651   -1.7874   28.8148 C   0  0  0  0  0  0  0  0  0  0  0  0
   -8.2143   -2.0535   28.6087 C   0  0  0  0  0  0  0  0  0  0  0  0
   -7.6483   -3.2551   29.2983 C   0  0  0  0  0  0  0  0  0  0  0  0
   -6.3947   -3.3075   29.3978 C   0  0  0  0  0  0  0  0  0  0  0  0
   -5.5301   -2.4996   28.5184 C   0  0  0  0  0  0  0  0  0  0  0  0
   -5.9897   -1.4890   27.7746 C   0  0  0  0  0  0  0  0  0  0  0  0
   -5.1026   -0.6352   26.9894 C   0  0  0  0  0  0  0  0  0  0  0  0
   -4.6261    0.4776   27.7217 C   0  0  0  0  0  0  0  0  0  0  0  0
   -3.3133    0.3059   28.3681 C   0  0  1  0  0  0  0  0  0  0  0  0
   -3.3382    0.3182   29.8425 C   0  0  0  0  0  0  0  0  0  0  0  0
   -2.1819   -0.0461   27.6587 C   0  0  0  0  0  0  0  0  0  0  0  0
   -2.3101   -0.0814   30.4631 F   0  0  0  0  0  0  0  0  0  0  0  0
   -3.6039    1.5326   30.3914 F   0  0  0  0  0  0  0  0  0  0  0  0
   -4.4553   -0.3823   30.2838 F   0  0  0  0  0  0  0  0  0  0  0  0
   -1.8875    0.7581   26.6722 O   0  0  0  0  0  0  0  0  0  0  0  0
  5  7  1  0
  7  8  2  0
  8  9  1  0
  6 15  1  0
 14 15  1  0
  2 16  1  0
 11 17  1  0
 17 18  1  0
 17 19  1  0
  7 20  1  0
 29 30  1  0
 30 31  1  0
 32 31  1  1
 32 33  1  0
 32 34  1  0
 33 35  1  0
 33 36  1  0
 33 37  1  0
 34 38  2  0
 25 26  2  0
 26 27  1  0
 27 28  2  0
 28 29  1  0
 29 22  2  0
 20 21  2  0
 21 22  1  0
 22 25  1  0
 25 24  1  0
 24 23  2  0
 23 20  1  0
  1  2  2  0
  2  3  1  0
  3  6  2  0
  6  5  1  0
  5  4  2  0
  4  1  1  0
  9 10  2  0
 10 11  1  0
 11 12  2  0
 12 13  1  0
 13 14  2  0
 14  9  1  0
M  END
$$$$
