No_5346-complexes_sdf/6BKW-FPZ/2024-09-17-14-21-01/
     RDKit          3D

 26 28  0  0  0  0  0  0  0  0999 V2000
   -7.7129    4.2099   27.0854 C   0  0  0  0  0  0  0  0  0  0  0  0
   -8.2112    3.0637   26.9225 C   0  0  0  0  0  0  0  0  0  0  0  0
   -7.0021    4.5281   28.2396 C   0  0  0  0  0  0  0  0  0  0  0  0
   -7.5497    1.9016   27.4549 C   0  0  0  0  0  0  0  0  0  0  0  0
   -6.3677    2.2142   28.2276 C   0  0  0  0  0  0  0  0  0  0  0  0
   -6.0061    3.5229   28.4663 C   0  0  0  0  0  0  0  0  0  0  0  0
   -8.6034    5.5331   26.7691 C   0  0  2  0  0  0  0  0  0  0  0  0
   -8.6722    6.6534   27.5652 C   0  0  0  0  0  0  0  0  0  0  0  0
   -9.3861    5.3197   25.5442 C   0  0  0  0  0  0  0  0  0  0  0  0
   -5.4663    1.0737   28.5493 C   0  0  0  0  0  0  0  0  0  0  0  0
   -4.6511    0.4800   27.6962 C   0  0  0  0  0  0  0  0  0  0  0  0
   -3.6999   -0.5101   28.1066 C   0  0  0  0  0  0  0  0  0  0  0  0
   -2.8394   -1.1185   27.1680 C   0  0  0  0  0  0  0  0  0  0  0  0
   -3.0073   -0.7512   25.8186 C   0  0  0  0  0  0  0  0  0  0  0  0
   -4.0249    0.0680   25.4714 C   0  0  0  0  0  0  0  0  0  0  0  0
   -4.8146    0.6868   26.3309 C   0  0  0  0  0  0  0  0  0  0  0  0
   -3.4522   -0.7313   29.5671 C   0  0  0  0  0  0  0  0  0  0  0  0
   -4.1256   -1.5784   30.1251 O   0  0  0  0  0  0  0  0  0  0  0  0
   -2.5641    0.0020   30.1836 O   0  0  0  0  0  0  0  0  0  0  0  0
  -10.3615    4.3712   25.4445 C   0  0  0  0  0  0  0  0  0  0  0  0
  -11.0050    4.2564   24.1693 C   0  0  0  0  0  0  0  0  0  0  0  0
  -10.4979    4.8714   23.0196 C   0  0  0  0  0  0  0  0  0  0  0  0
  -12.1807    3.4745   23.9564 C   0  0  0  0  0  0  0  0  0  0  0  0
  -12.8134    3.3827   22.9341 C   0  0  0  0  0  0  0  0  0  0  0  0
  -11.1122    4.8100   21.8337 C   0  0  0  0  0  0  0  0  0  0  0  0
  -12.2637    4.0996   21.7363 C   0  0  0  0  0  0  0  0  0  0  0  0
  1  7  1  0
  7  8  1  1
  7  9  1  0
  5 10  1  0
 12 17  1  0
 17 18  2  0
 17 19  1  0
  9 20  2  3
 20 21  1  0
 10 11  1  0
  1  2  2  0
  2  4  1  0
  4  5  2  0
  5  6  1  0
  6  3  2  0
  3  1  1  0
 11 12  2  0
 12 13  1  0
 13 14  2  0
 14 15  1  0
 15 16  2  0
 16 11  1  0
 21 22  2  0
 22 25  1  0
 25 26  2  0
 26 24  1  0
 24 23  2  0
 23 21  1  0
M  END
$$$$
