No_5495-complexes_sdf/6BKW-FPZ/2024-09-17-14-21-01/
     RDKit          3D

 14 16  0  0  0  0  0  0  0  0999 V2000
   -7.7129    4.2099   27.0854 C   0  0  0  0  0  0  0  0  0  0  0  0
   -8.9133    4.4736   27.0998 C   0  0  0  0  0  0  0  0  0  0  0  0
   -9.7135    3.9633   26.0300 C   0  0  0  0  0  0  0  0  0  0  0  0
   -7.1708    2.9509   26.6517 C   0  0  0  0  0  0  0  0  0  0  0  0
   -8.1422    2.1350   26.0104 C   0  0  0  0  0  0  0  0  0  0  0  0
   -9.3363    2.7131   25.6563 C   0  0  0  0  0  0  0  0  0  0  0  0
   -9.2657    5.9651   27.4012 C   0  0  0  0  0  0  0  0  0  0  0  0
   -7.7451    0.7860   25.6444 C   0  0  0  0  0  0  0  0  0  0  0  0
   -7.0350    0.0145   26.5733 C   0  0  0  0  0  0  0  0  0  0  0  0
   -6.7689    0.5863   27.9198 C   0  0  0  0  0  0  0  0  0  0  0  0
   -6.3468    2.0412   27.8731 C   0  0  0  0  0  0  0  0  0  0  0  0
   -8.3760    7.0468   27.1579 C   0  0  0  0  0  0  0  0  0  0  0  0
   -6.9999    6.7825   27.1703 C   0  0  0  0  0  0  0  0  0  0  0  0
   -6.6459    5.3263   27.2793 C   0  0  0  0  0  0  0  0  0  0  0  0
  2  7  1  0
  7 12  2  0
 12 13  1  0
 13 14  2  0
 14  1  1  0
  1  2  1  0
  2  3  2  0
  3  6  1  0
  6  5  2  0
  4  1  2  0
  4  5  1  0
  5  8  1  0
  8  9  2  0
  9 10  1  0
 10 11  2  0
 11  4  1  0
M  END
$$$$
