No_5536-complexes_sdf/6BKW-FPZ/2024-09-17-14-21-01/
     RDKit          3D

 14 15  0  0  0  0  0  0  0  0999 V2000
   -7.2496    3.8871   27.4508 C   0  0  0  0  0  0  0  0  0  0  0  0
   -7.6161    2.7143   27.1523 C   0  0  0  0  0  0  0  0  0  0  0  0
   -8.8302    2.4659   26.5056 C   0  0  0  0  0  0  0  0  0  0  0  0
   -8.1584    5.0090   27.3234 C   0  0  0  0  0  0  0  0  0  0  0  0
   -9.3788    4.7965   26.7695 C   0  0  0  0  0  0  0  0  0  0  0  0
   -9.7028    3.5649   26.3276 C   0  0  0  0  0  0  0  0  0  0  0  0
   -6.7803    1.6411   27.3559 N   0  0  0  0  0  0  0  0  0  0  0  0
   -5.6034    1.7594   28.0457 C   0  0  0  0  0  0  0  0  0  0  0  0
   -4.7914    0.5022   28.2252 C   0  0  1  0  0  0  0  0  0  0  0  0
   -3.5674    0.5749   28.9090 C   0  0  0  0  0  0  0  0  0  0  0  0
   -5.4221   -0.6649   27.8145 C   0  0  0  0  0  0  0  0  0  0  0  0
   -6.6294   -0.6726   27.2149 C   0  0  0  0  0  0  0  0  0  0  0  0
   -7.3473    0.4573   26.9933 C   0  0  0  0  0  0  0  0  0  0  0  0
   -3.4329   -0.0519   30.1040 C   0  0  0  0  0  0  0  0  0  0  0  0
  2  7  1  0
  7  8  1  0
  9 10  1  1
  9 11  1  0
  7 13  1  0
 12 13  1  0
 10 14  1  0
  8  9  1  0
 11 12  1  0
  1  2  2  0
  2  3  1  0
  3  6  2  0
  6  5  1  0
  5  4  2  0
  4  1  1  0
M  END
$$$$
