No_5685-complexes_sdf/6BKW-FPZ/2024-09-17-14-21-01/
     RDKit          3D

 28 30  0  0  0  0  0  0  0  0999 V2000
   -7.9040    3.9820   27.1177 C   0  0  0  0  0  0  0  0  0  0  0  0
   -7.8663    4.8694   27.9238 C   0  0  0  0  0  0  0  0  0  0  0  0
   -9.0491    3.8523   26.2542 C   0  0  0  0  0  0  0  0  0  0  0  0
   -8.7661    5.9491   27.9690 C   0  0  0  0  0  0  0  0  0  0  0  0
   -9.1715    2.7136   25.4037 C   0  0  0  0  0  0  0  0  0  0  0  0
   -9.8832    5.8611   27.1405 C   0  0  0  0  0  0  0  0  0  0  0  0
  -10.0016    4.7998   26.3324 C   0  0  0  0  0  0  0  0  0  0  0  0
  -10.0621    2.7513   24.3194 C   0  0  0  0  0  0  0  0  0  0  0  0
  -10.9414    3.8960   24.2704 C   0  0  0  0  0  0  0  0  0  0  0  0
  -10.9513    4.7869   25.2207 C   0  0  0  0  0  0  0  0  0  0  0  0
  -11.9428    3.8383   23.1932 C   0  0  0  0  0  0  0  0  0  0  0  0
  -11.6123    4.1696   22.0865 N   0  0  0  0  0  0  0  0  0  0  0  0
  -10.8075    3.3657   21.3861 C   0  0  0  0  0  0  0  0  0  0  0  0
  -10.8698    2.8733   20.4735 C   0  0  0  0  0  0  0  0  0  0  0  0
  -11.9704    3.0652   19.6011 C   0  0  0  0  0  0  0  0  0  0  0  0
  -12.0933    2.5546   18.3473 C   0  0  0  0  0  0  0  0  0  0  0  0
   -6.7136    2.6976   27.2188 Cl  0  0  0  0  0  0  0  0  0  0  0  0
  -11.5677    1.3470   18.1225 C   0  0  0  0  0  0  0  0  0  0  0  0
  -10.6868    0.7525   19.0864 C   0  0  0  0  0  0  0  0  0  0  0  0
  -10.2715    1.5005   20.2085 C   0  0  0  0  0  0  0  0  0  0  0  0
  -13.1271    3.7720   23.5426 O   0  0  0  0  0  0  0  0  0  0  0  0
  -11.8624    0.5674   16.9173 C   0  0  0  0  0  0  0  0  0  0  0  0
  -12.8294    0.4046   16.6020 O   0  0  0  0  0  0  0  0  0  0  0  0
  -10.8327    0.3907   16.0515 O   0  0  0  0  0  0  0  0  0  0  0  0
   -9.4637    0.9743   21.0382 F   0  0  0  0  0  0  0  0  0  0  0  0
  -10.3627    0.6557   15.2002 C   0  0  0  0  0  0  0  0  0  0  0  0
  -10.7644    0.1592   13.9614 C   0  0  0  0  0  0  0  0  0  0  0  0
  -10.2963    0.6459   12.7631 C   0  0  0  0  0  0  0  0  0  0  0  0
  9 11  1  0
 11 12  1  0
 12 13  1  0
  1 17  1  0
 11 21  2  0
 18 22  1  0
 22 23  2  0
 22 24  1  0
 20 25  1  0
 24 26  1  0
 26 27  2  3
 27 28  1  0
 13 14  1  0
  3  5  2  0
  5  8  1  0
  8  9  2  0
  9 10  1  0
 10  7  2  0
 14 15  2  0
 15 16  1  0
 16 18  2  0
 18 19  1  0
 19 20  2  0
 20 14  1  0
  1  2  2  0
  2  4  1  0
  4  6  2  0
  6  7  1  0
  7  3  1  0
  3  1  1  0
M  END
$$$$
