No_5837-complexes_sdf/6BKW-FPZ/2024-09-17-14-21-01/
     RDKit          3D

  7  7  0  0  0  0  0  0  0  0999 V2000
   -7.9040    3.9820   27.1177 C   0  0  0  0  0  0  0  0  0  0  0  0
   -9.0711    4.3164   27.0630 C   0  0  0  0  0  0  0  0  0  0  0  0
   -9.9692    3.7224   26.1073 C   0  0  0  0  0  0  0  0  0  0  0  0
   -7.6100    2.8057   27.0183 C   0  0  0  0  0  0  0  0  0  0  0  0
   -8.4359    1.9023   26.2804 C   0  0  0  0  0  0  0  0  0  0  0  0
   -9.6274    2.4173   25.8979 C   0  0  0  0  0  0  0  0  0  0  0  0
   -7.0343    4.7648   27.9865 O   0  0  0  0  0  0  0  0  0  0  0  0
  1  7  1  0
  1  2  2  0
  2  3  1  0
  3  6  2  0
  6  5  1  0
  5  4  2  0
  4  1  1  0
M  END
$$$$
