No_5028-complexes_sdf/6BKW-FPZ/2024-09-17-14-21-01/
     RDKit          3D

 24 28  0  0  0  0  0  0  0  0999 V2000
   -7.9040    3.9820   27.1177 C   0  0  0  0  0  0  0  0  0  0  0  0
   -7.8663    4.8694   27.9238 C   0  0  0  0  0  0  0  0  0  0  0  0
   -7.4698    2.6989   27.4277 C   0  0  0  0  0  0  0  0  0  0  0  0
   -6.1691    2.6024   27.7920 C   0  0  0  0  0  0  0  0  0  0  0  0
   -8.5251    6.1376   27.6596 C   0  0  0  0  0  0  0  0  0  0  0  0
   -8.9724    4.1320   26.1724 C   0  0  0  0  0  0  0  0  0  0  0  0
   -9.5826    5.3306   25.8444 C   0  0  0  0  0  0  0  0  0  0  0  0
   -9.3147    6.4110   26.6793 C   0  0  0  0  0  0  0  0  0  0  0  0
   -5.4767    1.3291   27.9782 C   0  0  0  0  0  0  0  0  0  0  0  0
   -4.1677    1.2318   28.4814 C   0  0  0  0  0  0  0  0  0  0  0  0
   -6.1976    0.1559   27.6340 C   0  0  0  0  0  0  0  0  0  0  0  0
   -7.4970    0.2353   27.1557 C   0  0  0  0  0  0  0  0  0  0  0  0
   -8.1097    1.5189   26.9778 C   0  0  0  0  0  0  0  0  0  0  0  0
   -3.6270    0.0726   28.6811 C   0  0  0  0  0  0  0  0  0  0  0  0
   -4.2292   -1.1233   28.4117 C   0  0  0  0  0  0  0  0  0  0  0  0
   -5.5363   -1.0769   27.9082 C   0  0  0  0  0  0  0  0  0  0  0  0
   -6.2273   -2.3566   27.6360 C   0  0  0  0  0  0  0  0  0  0  0  0
   -5.6444   -3.5005   27.7057 C   0  0  0  0  0  0  0  0  0  0  0  0
   -6.3315   -4.7064   27.4272 C   0  0  0  0  0  0  0  0  0  0  0  0
   -7.6720   -4.5963   27.0577 C   0  0  0  0  0  0  0  0  0  0  0  0
   -8.3052   -3.3853   26.9762 C   0  0  0  0  0  0  0  0  0  0  0  0
   -7.6466   -2.2574   27.2857 C   0  0  0  0  0  0  0  0  0  0  0  0
   -8.2376   -0.9232   26.9637 C   0  0  0  0  0  0  0  0  0  0  0  0
   -9.4472   -0.8918   26.6585 O   0  0  0  0  0  0  0  0  0  0  0  0
  1  3  1  0
 16 17  1  0
 12 23  1  0
 22 23  1  0
 23 24  2  0
  9 10  2  0
 10 14  1  0
 14 15  2  0
 15 16  1  0
 16 11  2  0
  3  4  2  0
  4  9  1  0
  9 11  1  0
 11 12  1  0
 12 13  2  0
 13  3  1  0
 17 18  2  0
 18 19  1  0
 19 20  2  0
 20 21  1  0
 21 22  2  0
 22 17  1  0
  1  2  2  0
  2  5  1  0
  5  8  2  0
  8  7  1  0
  7  6  2  0
  6  1  1  0
M  END
$$$$
