No_5249-complexes_sdf/6BKW-FPZ/2024-09-17-14-21-01/
     RDKit          3D

 20 21  0  0  0  0  0  0  0  0999 V2000
   -7.9040    3.9820   27.1177 C   0  0  0  0  0  0  0  0  0  0  0  0
   -7.8663    4.8694   27.9238 C   0  0  0  0  0  0  0  0  0  0  0  0
   -9.0491    3.8523   26.2542 C   0  0  0  0  0  0  0  0  0  0  0  0
   -8.7661    5.9491   27.9690 C   0  0  0  0  0  0  0  0  0  0  0  0
   -9.9295    4.8502   26.2323 C   0  0  0  0  0  0  0  0  0  0  0  0
   -9.8077    5.9288   27.0933 C   0  0  0  0  0  0  0  0  0  0  0  0
   -6.6950    2.5005   27.2061 Br  0  0  0  0  0  0  0  0  0  0  0  0
   -9.1018    2.7859   25.3566 O   0  0  0  0  0  0  0  0  0  0  0  0
  -10.1198    2.7929   24.4260 C   0  0  0  0  0  0  0  0  0  0  0  0
   -9.8783    3.3529   23.2258 C   0  0  0  0  0  0  0  0  0  0  0  0
  -10.8336    3.3577   22.1938 C   0  0  0  0  0  0  0  0  0  0  0  0
  -12.0346    2.6510   22.3706 C   0  0  0  0  0  0  0  0  0  0  0  0
  -11.2186    2.0414   24.6123 C   0  0  0  0  0  0  0  0  0  0  0  0
  -12.2010    1.9902   23.6048 C   0  0  0  0  0  0  0  0  0  0  0  0
  -13.6425    1.0919   23.7757 Cl  0  0  0  0  0  0  0  0  0  0  0  0
  -10.5627    4.1340   20.9758 C   0  0  0  0  0  0  0  0  0  0  0  0
   -9.9478    3.7125   20.1466 N   0  0  0  0  0  0  0  0  0  0  0  0
  -11.0199    5.3459   20.9846 O   0  0  0  0  0  0  0  0  0  0  0  0
  -11.4775    1.2121   26.1135 Cl  0  0  0  0  0  0  0  0  0  0  0  0
   -9.5912    4.4113   18.7837 C   0  0  0  0  0  0  0  0  0  0  0  0
  1  7  1  0
  3  8  1  0
  8  9  1  0
 14 15  1  0
 11 16  1  0
 16 17  1  0
 16 18  2  0
 13 19  1  0
 17 20  1  0
  1  2  2  0
  2  4  1  0
  4  6  2  0
  6  5  1  0
  5  3  2  0
  3  1  1  0
  9 10  2  0
 10 11  1  0
 11 12  2  0
 12 14  1  0
 14 13  2  0
 13  9  1  0
M  END
$$$$
