No_5282-complexes_sdf/6BKW-FPZ/2024-09-17-14-21-01/
     RDKit          3D

 40 44  0  0  0  0  0  0  0  0999 V2000
   -7.2496    3.8871   27.4508 C   0  0  0  0  0  0  0  0  0  0  0  0
   -7.9379    4.9063   27.8518 C   0  0  0  0  0  0  0  0  0  0  0  0
   -9.3376    4.8647   27.7795 C   0  0  0  0  0  0  0  0  0  0  0  0
   -7.8544    2.6294   27.0414 C   0  0  0  0  0  0  0  0  0  0  0  0
   -9.2852    2.6570   27.0666 C   0  0  0  0  0  0  0  0  0  0  0  0
  -10.0126    3.7528   27.4890 C   0  0  0  0  0  0  0  0  0  0  0  0
  -11.5186    3.8830   27.5378 C   0  0  0  0  0  0  0  0  0  0  0  0
  -12.1846    4.3291   26.9174 C   0  0  0  0  0  0  0  0  0  0  0  0
  -13.6389    4.4828   27.0320 C   0  0  0  0  0  0  0  0  0  0  0  0
  -14.1223    4.0492   27.8684 C   0  0  0  0  0  0  0  0  0  0  0  0
  -12.1446    3.1993   28.7965 C   0  0  0  0  0  0  0  0  0  0  0  0
  -13.4336    3.3298   28.9833 C   0  0  0  0  0  0  0  0  0  0  0  0
   -7.1450    1.4731   26.7151 C   0  0  2  0  0  0  0  0  0  0  0  0
   -7.7114    0.5922   25.8920 N   0  0  0  0  0  0  0  0  0  0  0  0
   -8.4818    0.8334   24.9700 C   0  0  0  0  0  0  0  0  0  0  0  0
   -9.4722    1.1372   24.8149 C   0  0  0  0  0  0  0  0  0  0  0  0
   -9.8759    2.4334   25.8336 C   0  0  0  0  0  0  0  0  0  0  0  0
   -7.2706    6.0272   28.2855 O   0  0  0  0  0  0  0  0  0  0  0  0
   -5.9930    1.2751   27.3778 N   0  0  0  0  0  0  0  0  0  0  0  0
   -5.5748    0.1677   28.1255 C   0  0  0  0  0  0  0  0  0  0  0  0
   -4.3677    0.3992   28.8578 C   0  0  0  0  0  0  0  0  0  0  0  0
   -6.3273   -0.9061   28.3104 C   0  0  0  0  0  0  0  0  0  0  0  0
   -3.4013    1.3977   28.6841 C   0  0  0  0  0  0  0  0  0  0  0  0
   -5.9877   -1.8570   29.2666 C   0  0  0  0  0  0  0  0  0  0  0  0
   -3.8787   -0.6554   29.8366 C   0  0  0  0  0  0  0  0  0  0  0  0
   -4.7763   -1.7684   29.9997 C   0  0  0  0  0  0  0  0  0  0  0  0
   -8.1054   -0.2032   23.8441 C   0  0  2  0  0  0  0  0  0  0  0  0
   -7.0450   -0.9577   23.9053 C   0  0  0  0  0  0  0  0  0  0  0  0
   -8.7677   -0.0493   22.5940 C   0  0  0  0  0  0  0  0  0  0  0  0
  -15.9282    4.2227   28.2091 Cl  0  0  0  0  0  0  0  0  0  0  0  0
   -7.0981   -2.2211   23.9475 C   0  0  0  0  0  0  0  0  0  0  0  0
   -7.0184   -2.9888   24.7162 C   0  0  0  0  0  0  0  0  0  0  0  0
   -7.0823   -4.4671   24.6353 C   0  0  0  0  0  0  0  0  0  0  0  0
   -7.1737   -4.9533   23.3800 C   0  0  0  0  0  0  0  0  0  0  0  0
   -7.1826   -4.1111   22.3047 C   0  0  0  0  0  0  0  0  0  0  0  0
   -7.1129   -2.7512   22.4839 C   0  0  0  0  0  0  0  0  0  0  0  0
   -9.3769    0.4293   21.7796 C   0  0  0  0  0  0  0  0  0  0  0  0
  -10.2563    0.7778   20.7187 C   0  0  0  0  0  0  0  0  0  0  0  0
  -11.4659    1.0321   20.6830 N   0  0  0  0  0  0  0  0  0  0  0  0
  -12.1259    1.4021   19.6177 C   0  0  0  0  0  0  0  0  0  0  0  0
  6  7  1  0
  4 13  1  0
 13 14  1  0
 14 15  1  0
 15 16  2  0
  5 17  1  0
 16 17  1  0
  2 18  1  0
 13 19  1  1
 19 20  1  0
 21 23  1  0
 15 27  1  0
 27 28  1  6
 27 29  1  0
 10 30  1  0
 28 31  1  0
 29 37  2  3
 37 38  1  0
 38 39  1  0
 39 40  1  0
  7  8  2  0
  8  9  1  0
  9 10  2  0
 10 12  1  0
 12 11  2  0
 11  7  1  0
 20 21  2  0
 21 25  1  0
 25 26  2  0
 26 24  1  0
 24 22  2  0
 22 20  1  0
 31 32  2  0
 32 33  1  0
 33 34  2  0
 34 35  1  0
 35 36  2  0
 36 31  1  0
  1  2  2  0
  2  3  1  0
  3  6  2  0
  6  5  1  0
  5  4  2  0
  4  1  1  0
M  END
$$$$
