No_5278-complexes_sdf/6BKW-FPZ/2024-09-17-14-21-01/
     RDKit          3D

 21 22  0  0  0  0  0  0  0  0999 V2000
   -7.7129    4.2099   27.0854 C   0  0  0  0  0  0  0  0  0  0  0  0
   -8.2112    3.0637   26.9225 C   0  0  0  0  0  0  0  0  0  0  0  0
   -9.4446    2.8304   26.1868 C   0  0  0  0  0  0  0  0  0  0  0  0
   -8.4697    5.3956   26.7238 C   0  0  0  0  0  0  0  0  0  0  0  0
   -9.6172    5.2111   25.9513 C   0  0  0  0  0  0  0  0  0  0  0  0
  -10.0424    3.9782   25.6873 C   0  0  0  0  0  0  0  0  0  0  0  0
   -7.5056    1.8167   27.4088 C   0  0  0  0  0  0  0  0  0  0  0  0
   -8.0423    0.5366   27.2920 C   0  0  0  0  0  0  0  0  0  0  0  0
   -9.3616    0.5005   26.6856 C   0  0  0  0  0  0  0  0  0  0  0  0
   -9.9941    1.5661   26.0723 C   0  0  0  0  0  0  0  0  0  0  0  0
   -7.9428    6.7510   27.0021 C   0  0  0  0  0  0  0  0  0  0  0  0
   -7.1225    6.7813   27.9795 F   0  0  0  0  0  0  0  0  0  0  0  0
   -8.3126    7.8657   26.4698 N   0  0  0  0  0  0  0  0  0  0  0  0
   -7.4025   -0.5674   27.8760 C   0  0  0  0  0  0  0  0  0  0  0  0
   -6.8725   -1.3007   27.2904 N   0  0  0  0  0  0  0  0  0  0  0  0
   -5.9290   -1.5817   26.9183 C   0  0  0  0  0  0  0  0  0  0  0  0
   -4.9479   -1.1251   27.1375 C   0  0  0  0  0  0  0  0  0  0  0  0
   -3.5651   -1.3200   26.4507 C   0  0  0  0  0  0  0  0  0  0  0  0
   -2.4317   -0.5694   26.7783 C   0  0  0  0  0  0  0  0  0  0  0  0
   -2.4876    0.4888   27.6747 C   0  0  0  0  0  0  0  0  0  0  0  0
   -3.6811    0.7174   28.4332 C   0  0  0  0  0  0  0  0  0  0  0  0
  4 11  1  0
 11 12  1  0
 11 13  2  0
  8 14  1  0
 14 15  1  0
 15 16  1  0
 16 17  2  3
 17 18  1  0
 18 19  2  3
 19 20  1  0
 20 21  2  0
  1  2  2  0
  3  6  2  0
  6  5  1  0
  5  4  2  0
  4  1  1  0
  2  3  1  0
  3 10  1  0
 10  9  2  0
  9  8  1  0
  8  7  2  0
  7  2  1  0
M  END
$$$$
