No_5310-complexes_sdf/6BKW-FPZ/2024-09-17-14-21-01/
     RDKit          3D

 11 12  0  0  0  0  0  0  0  0999 V2000
   -7.2496    3.8871   27.4508 C   0  0  0  0  0  0  0  0  0  0  0  0
   -7.6161    2.7143   27.1523 C   0  0  0  0  0  0  0  0  0  0  0  0
   -7.1618    1.8631   27.5232 C   0  0  0  0  0  0  0  0  0  0  0  0
   -8.0036    5.1085   27.2100 C   0  0  2  0  0  0  0  0  0  0  0  0
   -7.6739    6.3858   27.8565 C   0  0  0  0  0  0  0  0  0  0  0  0
   -9.1299    5.0820   26.3730 C   0  0  0  0  0  0  0  0  0  0  0  0
   -9.5383    3.9035   25.7505 C   0  0  0  0  0  0  0  0  0  0  0  0
   -8.8363    2.6722   26.2434 C   0  0  0  0  0  0  0  0  0  0  0  0
   -7.5811    0.4218   27.3179 C   0  0  0  0  0  0  0  0  0  0  0  0
   -8.7856    0.2606   26.7405 C   0  0  0  0  0  0  0  0  0  0  0  0
   -9.4380    1.4403   25.9674 C   0  0  0  0  0  0  0  0  0  0  0  0
  1  2  1  0
  1  4  1  0
  4  5  1  1
  4  6  1  0
  6  7  1  0
  7  8  1  0
  2  3  2  0
  3  9  1  0
  9 10  2  0
 10 11  1  0
 11  8  2  0
  8  2  1  0
M  END
$$$$
