No_5949-complexes_sdf/6BKW-FPZ/2024-09-17-14-21-01/
     RDKit          3D

 12 12  0  0  0  0  0  0  0  0999 V2000
   -7.7129    4.2099   27.0854 C   0  0  0  0  0  0  0  0  0  0  0  0
   -7.7814    5.1722   27.8972 C   0  0  0  0  0  0  0  0  0  0  0  0
   -8.8776    3.8408   26.3416 C   0  0  0  0  0  0  0  0  0  0  0  0
   -8.9136    2.6330   25.5655 C   0  0  0  0  0  0  0  0  0  0  0  0
   -8.8380    6.0976   27.6639 C   0  0  0  0  0  0  0  0  0  0  0  0
   -9.9036    4.7449   26.2606 C   0  0  0  0  0  0  0  0  0  0  0  0
   -9.8428    5.9017   26.9322 C   0  0  0  0  0  0  0  0  0  0  0  0
   -9.6708    1.6962   26.1080 C   0  0  0  0  0  0  0  0  0  0  0  0
   -9.4034    0.4445   25.8463 C   0  0  0  0  0  0  0  0  0  0  0  0
   -8.3027    0.1405   25.0006 C   0  0  0  0  0  0  0  0  0  0  0  0
   -7.7568   -1.0825   24.9725 C   0  0  0  0  0  0  0  0  0  0  0  0
   -8.3588   -2.1333   25.5771 C   0  0  0  0  0  0  0  0  0  0  0  0
  3  4  1  0
  4  8  1  0
  8  9  2  3
  9 10  1  0
 10 11  2  3
 11 12  1  0
  1  2  2  0
  2  5  1  0
  5  7  2  0
  7  6  1  0
  6  3  2  0
  3  1  1  0
M  END
$$$$
