No_5122-complexes_sdf/6BKW-FPZ/2024-09-17-14-21-01/
     RDKit          3D

 21 23  0  0  0  0  0  0  0  0999 V2000
   -7.9040    3.9820   27.1177 C   0  0  0  0  0  0  0  0  0  0  0  0
   -8.2057    2.8231   26.8733 C   0  0  0  0  0  0  0  0  0  0  0  0
   -8.7695    5.0740   26.7916 C   0  0  0  0  0  0  0  0  0  0  0  0
   -9.9618    4.7598   26.1630 C   0  0  0  0  0  0  0  0  0  0  0  0
   -9.4200    2.4524   26.2849 C   0  0  0  0  0  0  0  0  0  0  0  0
  -10.2590    3.4815   25.9250 C   0  0  0  0  0  0  0  0  0  0  0  0
   -8.3840    6.4693   27.0829 C   0  0  0  0  0  0  0  0  0  0  0  0
   -7.9676    7.4862   26.9931 N   0  0  0  0  0  0  0  0  0  0  0  0
   -7.1685    1.9001   27.3783 N   0  0  0  0  0  0  0  0  0  0  0  0
   -7.3677    0.5640   27.5026 C   0  0  0  0  0  0  0  0  0  0  0  0
   -6.2455   -0.1847   27.9510 C   0  0  0  0  0  0  0  0  0  0  0  0
   -5.1582    0.7772   28.1534 C   0  0  0  0  0  0  0  0  0  0  0  0
   -5.8253    2.1309   27.7151 C   0  0  0  0  0  0  0  0  0  0  0  0
   -3.8762    0.6791   28.5947 C   0  0  0  0  0  0  0  0  0  0  0  0
   -3.6016   -0.3052   29.5141 C   0  0  0  0  0  0  0  0  0  0  0  0
   -3.8056    0.0448   30.8539 C   0  0  0  0  0  0  0  0  0  0  0  0
   -3.5046   -0.8425   31.9400 C   0  0  0  0  0  0  0  0  0  0  0  0
   -2.8532   -2.0302   31.6189 C   0  0  0  0  0  0  0  0  0  0  0  0
   -2.5644   -2.3505   30.3365 C   0  0  0  0  0  0  0  0  0  0  0  0
   -2.8877   -1.4808   29.2805 C   0  0  0  0  0  0  0  0  0  0  0  0
   -2.9181    1.1915   27.8602 O   0  0  0  0  0  0  0  0  0  0  0  0
  3  7  1  0
  7  8  3  0
  2  9  1  0
  9 10  1  0
 10 11  2  0
 11 12  1  0
  9 13  1  0
 12 13  2  0
 12 14  1  0
 14 15  1  0
 14 21  2  0
 15 16  2  0
 16 17  1  0
 17 18  2  0
 18 19  1  0
 19 20  2  0
 20 15  1  0
  1  2  2  0
  2  5  1  0
  5  6  2  0
  6  4  1  0
  4  3  2  0
  3  1  1  0
M  END
$$$$
