No_5236-complexes_sdf/6BKW-FPZ/2024-09-17-14-21-01/
     RDKit          3D

  9  9  0  0  0  0  0  0  0  0999 V2000
   -7.9040    3.9820   27.1177 C   0  0  0  0  0  0  0  0  0  0  0  0
   -8.2057    2.8231   26.8733 C   0  0  0  0  0  0  0  0  0  0  0  0
   -9.2962    2.4021   26.1155 C   0  0  0  0  0  0  0  0  0  0  0  0
   -8.8403    4.9695   26.9329 C   0  0  0  0  0  0  0  0  0  0  0  0
   -8.6045    6.4001   27.2264 C   0  0  0  0  0  0  0  0  0  0  0  0
  -10.2136    3.3588   25.8175 C   0  0  0  0  0  0  0  0  0  0  0  0
   -9.9623    4.6882   26.1367 C   0  0  0  0  0  0  0  0  0  0  0  0
   -6.8923    1.4032   27.3453 Br  0  0  0  0  0  0  0  0  0  0  0  0
   -7.5946    7.1974   26.5195 C   0  0  0  0  0  0  0  0  0  0  0  0
  4  5  1  0
  2  8  1  0
  5  9  1  0
  1  2  2  0
  2  3  1  0
  3  6  2  0
  6  7  1  0
  7  4  2  0
  4  1  1  0
M  END
$$$$
