No_5616-complexes_sdf/6BKW-FPZ/2024-09-17-14-21-01/
     RDKit          3D

 38 42  0  0  0  0  0  0  0  0999 V2000
   -7.2496    3.8871   27.4508 C   0  0  0  0  0  0  0  0  0  0  0  0
   -7.6161    2.7143   27.1523 C   0  0  0  0  0  0  0  0  0  0  0  0
   -8.6212    2.2239   26.4073 C   0  0  0  0  0  0  0  0  0  0  0  0
   -8.2540    4.9237   27.1711 C   0  0  0  0  0  0  0  0  0  0  0  0
   -9.3709    4.6018   26.4511 C   0  0  0  0  0  0  0  0  0  0  0  0
   -9.5922    3.3274   26.0949 C   0  0  0  0  0  0  0  0  0  0  0  0
   -7.9166    6.3279   27.5749 C   0  0  0  0  0  0  0  0  0  0  0  0
  -10.7700    2.9798   25.2771 C   0  0  0  0  0  0  0  0  0  0  0  0
  -10.7768    3.4781   24.0130 C   0  0  0  0  0  0  0  0  0  0  0  0
  -11.6461    3.2405   23.0111 C   0  0  0  0  0  0  0  0  0  0  0  0
  -11.7926    2.2525   25.7164 C   0  0  0  0  0  0  0  0  0  0  0  0
  -12.8727    1.9895   24.8013 C   0  0  0  0  0  0  0  0  0  0  0  0
  -12.8077    2.5490   23.5213 C   0  0  0  0  0  0  0  0  0  0  0  0
   -8.2255    7.3574   26.9919 N   0  0  0  0  0  0  0  0  0  0  0  0
   -6.5807    1.5404   27.5415 C   0  0  0  0  0  0  0  0  0  0  0  0
   -5.2767    1.8842   28.0400 C   0  0  0  0  0  0  0  0  0  0  0  0
   -4.3892    0.8565   28.3620 C   0  0  0  0  0  0  0  0  0  0  0  0
   -4.7917   -0.4758   28.4132 C   0  0  0  0  0  0  0  0  0  0  0  0
   -6.9499    0.2123   27.5379 C   0  0  0  0  0  0  0  0  0  0  0  0
   -6.0762   -0.7585   27.9757 C   0  0  0  0  0  0  0  0  0  0  0  0
   -3.8769   -1.5305   28.8739 C   0  0  1  0  0  0  0  0  0  0  0  0
   -3.9753   -1.8860   30.1437 C   0  0  0  0  0  0  0  0  0  0  0  0
   -4.6820   -1.4162   31.0344 C   0  0  0  0  0  0  0  0  0  0  0  0
   -4.7083   -1.7783   32.4835 C   0  0  0  0  0  0  0  0  0  0  0  0
   -5.4894   -1.1365   33.4883 C   0  0  0  0  0  0  0  0  0  0  0  0
   -6.3855   -0.1498   32.9294 C   0  0  0  0  0  0  0  0  0  0  0  0
   -6.1874    0.2589   31.6782 C   0  0  0  0  0  0  0  0  0  0  0  0
   -5.5012   -0.2566   30.8003 C   0  0  0  0  0  0  0  0  0  0  0  0
   -3.0393   -2.0573   27.8043 C   0  0  0  0  0  0  0  0  0  0  0  0
   -2.6307   -1.3404   26.8490 C   0  0  0  0  0  0  0  0  0  0  0  0
   -2.6582   -3.4329   27.9219 C   0  0  0  0  0  0  0  0  0  0  0  0
   -7.0777    6.3834   28.5418 O   0  0  0  0  0  0  0  0  0  0  0  0
   -2.1280   -4.0211   26.8526 C   0  0  0  0  0  0  0  0  0  0  0  0
   -2.9877    0.1259   26.6637 C   0  0  0  0  0  0  0  0  0  0  0  0
   -1.6160   -3.2337   25.7656 C   0  0  0  0  0  0  0  0  0  0  0  0
   -1.8623   -1.9249   25.7427 C   0  0  0  0  0  0  0  0  0  0  0  0
   -2.2974    0.9400   27.3403 C   0  0  0  0  0  0  0  0  0  0  0  0
   -3.4463    1.2388   29.2927 N   0  0  0  0  0  0  0  0  0  0  0  0
  4  7  1  0
  6  8  1  0
  7 14  1  0
  2 15  1  0
 18 21  1  0
 21 22  1  6
 21 29  1  0
  7 32  2  0
 30 34  1  0
 34 37  1  0
 17 38  1  0
 22 23  1  0
 23 24  2  0
 24 25  1  0
 25 26  2  0
 26 27  1  0
 27 28  2  0
 28 23  1  0
  1  2  2  0
  2  3  1  0
  3  6  2  0
  6  5  1  0
  5  4  2  0
  4  1  1  0
  8  9  2  0
  9 10  1  0
 10 13  2  0
 13 12  1  0
 12 11  2  0
 11  8  1  0
 29 30  2  0
 30 36  1  0
 36 35  2  0
 35 33  1  0
 33 31  2  0
 31 29  1  0
 15 16  2  0
 16 17  1  0
 17 18  2  0
 18 20  1  0
 20 19  2  0
 19 15  1  0
M  END
$$$$
