No_5514-complexes_sdf/6BKW-FPZ/2024-09-17-14-21-01/
     RDKit          3D

 29 33  0  0  0  0  0  0  0  0999 V2000
   -7.9040    3.9820   27.1177 C   0  0  0  0  0  0  0  0  0  0  0  0
   -8.2057    2.8231   26.8733 C   0  0  0  0  0  0  0  0  0  0  0  0
   -7.4766    1.7477   27.4593 C   0  0  0  0  0  0  0  0  0  0  0  0
   -8.7468    5.1251   26.6967 C   0  0  0  0  0  0  0  0  0  0  0  0
   -9.7234    4.8589   25.8202 C   0  0  0  0  0  0  0  0  0  0  0  0
   -9.9711    3.5858   25.4266 C   0  0  0  0  0  0  0  0  0  0  0  0
   -9.2266    2.4957   25.9600 C   0  0  0  0  0  0  0  0  0  0  0  0
   -7.8394    0.3721   27.3404 C   0  0  0  0  0  0  0  0  0  0  0  0
   -8.9869    0.1878   26.4476 C   0  0  0  0  0  0  0  0  0  0  0  0
   -9.6379    1.1710   25.7653 C   0  0  0  0  0  0  0  0  0  0  0  0
   -8.3917    6.5365   27.0771 C   0  0  0  0  0  0  0  0  0  0  0  0
   -8.7767    7.4581   26.4853 F   0  0  0  0  0  0  0  0  0  0  0  0
   -6.9541    6.5960   27.2087 F   0  0  0  0  0  0  0  0  0  0  0  0
   -8.8559    6.6107   28.4181 F   0  0  0  0  0  0  0  0  0  0  0  0
   -7.1466   -0.6587   27.9993 C   0  0  0  0  0  0  0  0  0  0  0  0
   -7.7720   -1.8261   28.4340 C   0  0  0  0  0  0  0  0  0  0  0  0
   -7.0944   -2.7795   29.1752 C   0  0  0  0  0  0  0  0  0  0  0  0
   -5.7532   -0.5220   28.2869 C   0  0  0  0  0  0  0  0  0  0  0  0
   -4.9552    0.6462   27.9256 C   0  0  0  0  0  0  0  0  0  0  0  0
   -5.7666   -2.6473   29.4405 C   0  0  0  0  0  0  0  0  0  0  0  0
   -5.0612   -1.5121   29.0457 C   0  0  0  0  0  0  0  0  0  0  0  0
   -3.8677    0.7732   28.2828 O   0  0  0  0  0  0  0  0  0  0  0  0
   -5.5288    1.7442   27.3191 O   0  0  0  0  0  0  0  0  0  0  0  0
  -10.7293    0.7795   24.9409 C   0  0  0  0  0  0  0  0  0  0  0  0
  -11.7943    0.5185   25.3405 C   0  0  0  0  0  0  0  0  0  0  0  0
  -12.8958    0.1533   24.5674 C   0  0  0  0  0  0  0  0  0  0  0  0
  -10.3464    0.2874   23.6343 C   0  0  0  0  0  0  0  0  0  0  0  0
  -11.3123   -0.0221   22.7218 C   0  0  0  0  0  0  0  0  0  0  0  0
  -12.5854   -0.1629   23.2170 C   0  0  0  0  0  0  0  0  0  0  0  0
  4 11  1  0
 11 12  1  0
 11 13  1  0
 11 14  1  0
  8 15  1  0
 18 19  1  0
 19 22  2  0
  3 23  1  0
 19 23  1  0
 10 24  1  0
 15 16  2  0
 16 17  1  0
 17 20  2  0
 20 21  1  0
 21 18  2  0
 18 15  1  0
  1  2  2  0
  7  6  2  0
  6  5  1  0
  5  4  2  0
  4  1  1  0
 24 25  2  0
 25 26  1  0
 26 29  2  0
 29 28  1  0
 28 27  2  0
 27 24  1  0
  2  3  1  0
  3  8  2  0
  8  9  1  0
  9 10  2  0
 10  7  1  0
  7  2  1  0
M  END
$$$$
