No_565-complexes_sdf/6BKW-FPZ/2024-09-17-14-21-01/
     RDKit          3D

 25 28  0  0  0  0  0  0  0  0999 V2000
   -7.7129    4.2099   27.0854 C   0  0  0  0  0  0  0  0  0  0  0  0
   -7.7814    5.1722   27.8972 C   0  0  0  0  0  0  0  0  0  0  0  0
   -8.8998    3.8713   26.3707 C   0  0  0  0  0  0  0  0  0  0  0  0
   -9.9938    4.6774   26.5446 C   0  0  0  0  0  0  0  0  0  0  0  0
   -8.7789    6.1536   27.9256 C   0  0  0  0  0  0  0  0  0  0  0  0
   -9.9428    5.8398   27.2296 C   0  0  0  0  0  0  0  0  0  0  0  0
   -8.9075    2.7268   25.6172 N   0  0  0  0  0  0  0  0  0  0  0  0
   -8.3680    1.5668   26.0857 C   0  0  0  0  0  0  0  0  0  0  0  0
   -8.3591    0.4595   25.2034 C   0  0  0  0  0  0  0  0  0  0  0  0
   -9.9518    2.4353   24.7588 C   0  0  0  0  0  0  0  0  0  0  0  0
   -9.8411    1.5630   24.0858 C   0  0  1  0  0  0  0  0  0  0  0  0
   -9.1174    0.4297   24.1878 C   0  0  0  0  0  0  0  0  0  0  0  0
  -10.8084    1.4630   22.7617 C   0  0  0  0  0  0  0  0  0  0  0  0
  -11.0085    2.5889   22.1407 C   0  0  0  0  0  0  0  0  0  0  0  0
  -11.8883    2.6412   20.9742 C   0  0  0  0  0  0  0  0  0  0  0  0
  -12.3065    1.4165   20.4203 C   0  0  0  0  0  0  0  0  0  0  0  0
  -11.2016    0.3072   22.1715 C   0  0  0  0  0  0  0  0  0  0  0  0
  -11.9392    0.2886   21.0281 C   0  0  0  0  0  0  0  0  0  0  0  0
  -12.3888   -0.9793   20.3992 C   0  0  0  0  0  0  0  0  0  0  0  0
  -12.3968   -2.0886   20.9210 N   0  0  0  0  0  0  0  0  0  0  0  0
  -12.3834   -2.2598   22.1151 C   0  0  0  0  0  0  0  0  0  0  0  0
  -12.2275   -3.6415   22.5691 C   0  0  0  0  0  0  0  0  0  0  0  0
  -12.2473   -4.4211   21.5507 C   0  0  0  0  0  0  0  0  0  0  0  0
  -12.2732   -3.3618   20.3126 C   0  0  0  0  0  0  0  0  0  0  0  0
  -12.6171   -0.9296   19.0802 O   0  0  0  0  0  0  0  0  0  0  0  0
  3  7  1  0
  7  8  1  0
  7 10  1  0
  9 12  1  0
 11 12  1  0
 11 13  1  1
 18 19  1  0
 19 20  1  0
 20 21  1  0
 21 22  2  0
 22 23  1  0
 20 24  1  0
 23 24  1  0
 19 25  2  0
  8  9  1  0
 11 10  1  0
 13 14  2  0
 14 15  1  0
 15 16  2  0
 16 18  1  0
 18 17  2  0
 17 13  1  0
  1  2  2  0
  2  5  1  0
  5  6  2  0
  6  4  1  0
  4  3  2  0
  3  1  1  0
M  END
$$$$
