No_5304-complexes_sdf/6BKW-FPZ/2024-09-17-14-21-01/
     RDKit          3D

 24 26  0  0  0  0  0  0  0  0999 V2000
   -7.9040    3.9820   27.1177 C   0  0  0  0  0  0  0  0  0  0  0  0
   -7.8663    4.8694   27.9238 C   0  0  0  0  0  0  0  0  0  0  0  0
   -9.0501    3.8017   26.2617 C   0  0  0  0  0  0  0  0  0  0  0  0
  -10.0189    4.7608   26.3707 C   0  0  0  0  0  0  0  0  0  0  0  0
   -8.6973    5.9722   27.8968 C   0  0  0  0  0  0  0  0  0  0  0  0
   -9.8216    5.8946   27.1241 C   0  0  0  0  0  0  0  0  0  0  0  0
   -9.1334    2.7075   25.4691 N   0  0  0  0  0  0  0  0  0  0  0  0
   -9.9319    2.7090   24.3641 C   0  0  2  0  0  0  0  0  0  0  0  0
   -9.8835    1.5431   23.5431 C   0  0  0  0  0  0  0  0  0  0  0  0
   -8.7692    1.4625   25.8457 C   0  0  0  0  0  0  0  0  0  0  0  0
   -8.6961    0.3530   25.1352 C   0  0  2  0  0  0  0  0  0  0  0  0
   -9.3514    0.3930   23.9606 C   0  0  0  0  0  0  0  0  0  0  0  0
  -10.3151    3.7833   23.9528 F   0  0  0  0  0  0  0  0  0  0  0  0
   -8.0936   -0.9011   25.6419 C   0  0  1  0  0  0  0  0  0  0  0  0
   -7.2058   -1.1526   26.1885 C   0  0  0  0  0  0  0  0  0  0  0  0
   -6.1967   -0.0068   26.5794 C   0  0  0  0  0  0  0  0  0  0  0  0
   -4.9558   -0.2406   27.2762 C   0  0  0  0  0  0  0  0  0  0  0  0
   -4.6929   -1.4532   27.6260 C   0  0  0  0  0  0  0  0  0  0  0  0
   -5.5117   -2.5391   27.3740 C   0  0  0  0  0  0  0  0  0  0  0  0
   -6.6351   -2.3309   26.6918 C   0  0  0  0  0  0  0  0  0  0  0  0
   -9.1444   -1.6914   25.8612 F   0  0  0  0  0  0  0  0  0  0  0  0
   -4.1461    0.9556   27.5798 C   0  0  0  0  0  0  0  0  0  0  0  0
   -2.9520    0.9143   27.6614 O   0  0  0  0  0  0  0  0  0  0  0  0
   -4.7432    1.9985   28.2775 O   0  0  0  0  0  0  0  0  0  0  0  0
  3  7  1  0
  7  8  1  0
  7 10  1  0
 11 10  1  1
  9 12  1  0
  8 13  1  6
 11 14  1  0
 14 21  1  1
 17 22  1  0
 22 23  2  0
 22 24  1  0
 14 15  1  0
  8  9  1  0
 12 11  1  0
 15 16  2  0
 16 17  1  0
 17 18  2  0
 18 19  1  0
 19 20  2  0
 20 15  1  0
  1  2  2  0
  2  5  1  0
  5  6  2  0
  6  4  1  0
  4  3  2  0
  3  1  1  0
M  END
$$$$
