No_5189-complexes_sdf/6BKW-FPZ/2024-09-17-14-21-01/
     RDKit          3D

 31 33  0  0  0  0  0  0  0  0999 V2000
   -7.9040    3.9820   27.1177 C   0  0  0  0  0  0  0  0  0  0  0  0
   -7.8663    4.8694   27.9238 C   0  0  0  0  0  0  0  0  0  0  0  0
   -9.0491    3.8523   26.2542 C   0  0  0  0  0  0  0  0  0  0  0  0
   -8.7661    5.9491   27.9690 C   0  0  0  0  0  0  0  0  0  0  0  0
   -9.9295    4.8502   26.2323 C   0  0  0  0  0  0  0  0  0  0  0  0
   -9.8077    5.9288   27.0933 C   0  0  0  0  0  0  0  0  0  0  0  0
   -7.0146    2.9513   27.1368 F   0  0  0  0  0  0  0  0  0  0  0  0
   -9.1130    2.5493   25.1061 Cl  0  0  0  0  0  0  0  0  0  0  0  0
  -10.8828    4.6944   25.2563 O   0  0  0  0  0  0  0  0  0  0  0  0
  -10.5820    4.5181   23.9856 C   0  0  0  0  0  0  0  0  0  0  0  0
  -11.7087    4.0863   23.1845 C   0  0  2  0  0  0  0  0  0  0  0  0
  -11.7629    2.8821   23.1046 C   0  0  0  0  0  0  0  0  0  0  0  0
  -10.9110    2.3008   22.1485 C   0  0  0  0  0  0  0  0  0  0  0  0
  -11.2060    1.8800   21.0077 C   0  0  0  0  0  0  0  0  0  0  0  0
  -10.2557    1.1378   20.1658 C   0  0  0  0  0  0  0  0  0  0  0  0
   -9.1238    0.6660   20.8298 C   0  0  0  0  0  0  0  0  0  0  0  0
   -8.8452    0.9067   22.1504 C   0  0  0  0  0  0  0  0  0  0  0  0
   -9.6913    1.6701   22.8174 C   0  0  0  0  0  0  0  0  0  0  0  0
  -12.5224    5.0128   22.4848 C   0  0  0  0  0  0  0  0  0  0  0  0
  -13.9283    4.9281   22.7968 C   0  0  0  0  0  0  0  0  0  0  0  0
  -14.3220    4.5806   24.0764 C   0  0  0  0  0  0  0  0  0  0  0  0
  -15.7075    4.5911   24.4023 C   0  0  0  0  0  0  0  0  0  0  0  0
  -16.5668    5.0329   23.3940 C   0  0  0  0  0  0  0  0  0  0  0  0
  -16.1858    5.4213   22.1702 C   0  0  0  0  0  0  0  0  0  0  0  0
  -14.8538    5.4394   21.8627 C   0  0  0  0  0  0  0  0  0  0  0  0
  -12.3828    2.3576   20.3225 C   0  0  0  0  0  0  0  0  0  0  0  0
  -12.5759    2.2873   19.0872 C   0  0  0  0  0  0  0  0  0  0  0  0
  -13.4283    2.9595   18.4907 N   0  0  0  0  0  0  0  0  0  0  0  0
  -13.9454    3.9391   18.8824 C   0  0  0  0  0  0  0  0  0  0  0  0
  -13.8573    2.5889   17.0870 C   0  0  0  0  0  0  0  0  0  0  0  0
  -11.9128    1.3712   18.3592 O   0  0  0  0  0  0  0  0  0  0  0  0
  1  7  1  0
  3  8  1  0
  5  9  1  0
  9 10  1  0
 11 10  1  6
 11 12  1  0
 12 13  1  0
 11 19  1  0
 14 26  1  0
 26 27  1  0
 27 28  1  0
 28 29  1  0
 28 30  1  0
 27 31  2  0
 19 20  1  0
 13 14  2  0
 14 15  1  0
 15 16  2  0
 16 17  1  0
 17 18  2  0
 18 13  1  0
  1  2  2  0
  2  4  1  0
  4  6  2  0
  6  5  1  0
  5  3  2  0
  3  1  1  0
 20 21  2  0
 21 22  1  0
 22 23  2  0
 23 24  1  0
 24 25  2  0
 25 20  1  0
M  END
$$$$
