No_5365-complexes_sdf/6BKW-FPZ/2024-09-17-14-21-01/
     RDKit          3D

 40 44  0  0  0  0  0  0  0  0999 V2000
   -7.9040    3.9820   27.1177 C   0  0  0  0  0  0  0  0  0  0  0  0
   -7.8663    4.8694   27.9238 C   0  0  0  0  0  0  0  0  0  0  0  0
   -9.0501    3.8017   26.2617 C   0  0  0  0  0  0  0  0  0  0  0  0
  -10.0189    4.7608   26.3707 C   0  0  0  0  0  0  0  0  0  0  0  0
   -8.6973    5.9722   27.8968 C   0  0  0  0  0  0  0  0  0  0  0  0
   -9.8216    5.8946   27.1241 C   0  0  0  0  0  0  0  0  0  0  0  0
   -9.1313    2.7565   25.4802 F   0  0  0  0  0  0  0  0  0  0  0  0
   -7.1106    2.8405   27.0133 O   0  0  0  0  0  0  0  0  0  0  0  0
   -7.5437    1.5542   27.0489 C   0  0  0  0  0  0  0  0  0  0  0  0
   -6.4384    0.6526   27.2596 C   0  0  0  0  0  0  0  0  0  0  0  0
   -5.1995    1.1951   27.7033 C   0  0  0  0  0  0  0  0  0  0  0  0
   -4.0934    0.3778   28.0075 C   0  0  0  0  0  0  0  0  0  0  0  0
   -4.1342   -0.9293   27.7120 C   0  0  0  0  0  0  0  0  0  0  0  0
   -5.3165   -1.4662   27.1920 C   0  0  0  0  0  0  0  0  0  0  0  0
   -6.4501   -0.6777   26.9889 C   0  0  0  0  0  0  0  0  0  0  0  0
   -8.5881    1.0619   26.8714 O   0  0  0  0  0  0  0  0  0  0  0  0
   -2.9268   -1.7481   27.9439 C   0  0  0  0  0  0  0  0  0  0  0  0
   -2.1630   -1.9430   26.9894 C   0  0  0  0  0  0  0  0  0  0  0  0
   -2.7132   -2.2786   29.2535 C   0  0  0  0  0  0  0  0  0  0  0  0
   -3.4363   -1.7979   30.2969 C   0  0  0  0  0  0  0  0  0  0  0  0
   -3.1447   -2.1576   31.5549 C   0  0  0  0  0  0  0  0  0  0  0  0
   -3.8730   -1.6098   32.7398 C   0  0  0  0  0  0  0  0  0  0  0  0
   -4.9524   -0.7038   32.4847 C   0  0  0  0  0  0  0  0  0  0  0  0
   -5.1125   -0.2714   31.1462 C   0  0  0  0  0  0  0  0  0  0  0  0
   -4.3872   -0.7635   30.1857 C   0  0  0  0  0  0  0  0  0  0  0  0
   -1.1848   -2.7291   26.8185 C   0  0  0  0  0  0  0  0  0  0  0  0
   -0.7719   -3.2994   28.1077 C   0  0  0  0  0  0  0  0  0  0  0  0
   -1.4485   -3.0010   29.3210 C   0  0  0  0  0  0  0  0  0  0  0  0
   -5.4263   -2.8727   26.8846 C   0  0  0  0  0  0  0  0  0  0  0  0
   -6.3411   -3.6077   26.8684 C   0  0  0  0  0  0  0  0  0  0  0  0
   -6.3785   -4.9838   26.4859 C   0  0  0  0  0  0  0  0  0  0  0  0
   -7.5393   -5.6926   26.4188 C   0  0  0  0  0  0  0  0  0  0  0  0
   -5.0803   -5.5940   26.1870 C   0  0  0  0  0  0  0  0  0  0  0  0
   -4.9933   -6.9406   25.8397 C   0  0  0  0  0  0  0  0  0  0  0  0
   -7.4379   -7.0831   26.0222 C   0  0  0  0  0  0  0  0  0  0  0  0
   -6.1782   -7.6465   25.7469 C   0  0  0  0  0  0  0  0  0  0  0  0
   -8.6227   -7.8996   25.9233 C   0  0  0  0  0  0  0  0  0  0  0  0
   -9.6097   -7.8198   26.5067 O   0  0  0  0  0  0  0  0  0  0  0  0
   -8.5537   -8.8838   24.9173 N   0  0  0  0  0  0  0  0  0  0  0  0
   -9.6240   -9.7178   24.6707 C   0  0  0  0  0  0  0  0  0  0  0  0
  3  7  1  0
  1  8  1  0
  8  9  1  0
  9 10  1  0
  9 16  2  0
 13 17  1  0
 19 20  1  0
 14 29  1  0
 29 30  2  3
 30 31  1  0
 35 37  1  0
 37 38  2  0
 37 39  1  0
 39 40  1  0
 31 32  2  0
 32 35  1  0
 35 36  2  0
 36 34  1  0
 34 33  2  0
 33 31  1  0
 10 11  2  0
 11 12  1  0
 12 13  2  0
 13 14  1  0
 14 15  2  0
 15 10  1  0
 20 21  2  0
 21 22  1  0
 22 23  2  0
 23 24  1  0
 24 25  2  0
 25 20  1  0
 17 18  2  0
 18 26  1  0
 26 27  2  0
 27 28  1  0
 28 19  2  0
 19 17  1  0
  1  2  2  0
  2  5  1  0
  5  6  2  0
  6  4  1  0
  4  3  2  0
  3  1  1  0
M  END
$$$$
