No_513-complexes_sdf/6BKW-FPZ/2024-09-17-14-21-01/
     RDKit          3D

 16 17  0  0  0  0  0  0  0  0999 V2000
   -7.2496    3.8871   27.4508 C   0  0  0  0  0  0  0  0  0  0  0  0
   -7.9379    4.9063   27.8518 C   0  0  0  0  0  0  0  0  0  0  0  0
   -9.3460    4.8223   27.8695 C   0  0  0  0  0  0  0  0  0  0  0  0
   -7.8014    2.6429   27.3269 C   0  0  0  0  0  0  0  0  0  0  0  0
   -9.2214    2.5325   27.3397 C   0  0  0  0  0  0  0  0  0  0  0  0
   -9.9608    3.6396   27.6640 C   0  0  0  0  0  0  0  0  0  0  0  0
   -7.0591    1.5816   26.9495 N   0  0  0  0  0  0  0  0  0  0  0  0
   -7.4396    0.4165   26.4425 C   0  0  0  0  0  0  0  0  0  0  0  0
   -8.2839    0.3589   25.5041 C   0  0  0  0  0  0  0  0  0  0  0  0
   -8.6642   -0.8430   24.8416 C   0  0  0  0  0  0  0  0  0  0  0  0
   -8.0469   -1.9582   25.3072 C   0  0  0  0  0  0  0  0  0  0  0  0
   -6.7695   -0.7419   26.7191 C   0  0  0  0  0  0  0  0  0  0  0  0
   -7.0685   -1.9158   26.2522 C   0  0  0  0  0  0  0  0  0  0  0  0
  -11.4486    3.5050   27.8529 C   0  0  0  0  0  0  0  0  0  0  0  0
  -12.2712    4.2481   27.8414 N   0  0  0  0  0  0  0  0  0  0  0  0
  -13.6216    4.1092   28.0734 C   0  0  0  0  0  0  0  0  0  0  0  0
  4  7  1  0
  7  8  1  0
  6 14  1  0
 14 15  2  3
 15 16  1  0
  1  2  2  0
  2  3  1  0
  3  6  2  0
  6  5  1  0
  5  4  2  0
  4  1  1  0
  8  9  2  0
  9 10  1  0
 10 11  2  0
 11 13  1  0
 13 12  2  0
 12  8  1  0
M  END
$$$$
