No_5559-complexes_sdf/6BKW-FPZ/2024-09-17-14-21-01/
     RDKit          3D

 28 30  0  0  0  0  0  0  0  0999 V2000
   -7.9040    3.9820   27.1177 C   0  0  0  0  0  0  0  0  0  0  0  0
   -9.0711    4.3164   27.0630 C   0  0  0  0  0  0  0  0  0  0  0  0
   -9.5294    5.4517   27.7215 C   0  0  0  0  0  0  0  0  0  0  0  0
   -6.9328    4.7309   27.8881 C   0  0  0  0  0  0  0  0  0  0  0  0
   -7.3666    5.8455   28.5488 C   0  0  0  0  0  0  0  0  0  0  0  0
   -8.6669    6.2428   28.4199 C   0  0  0  0  0  0  0  0  0  0  0  0
  -10.0479    3.5083   26.2510 C   0  0  0  0  0  0  0  0  0  0  0  0
   -9.7487    3.3856   24.9113 C   0  0  0  0  0  0  0  0  0  0  0  0
  -10.5142    2.6814   23.9902 C   0  0  0  0  0  0  0  0  0  0  0  0
  -11.6898    2.1313   24.4168 C   0  0  0  0  0  0  0  0  0  0  0  0
  -11.2728    3.0383   26.4045 C   0  0  0  0  0  0  0  0  0  0  0  0
  -12.0774    2.3339   25.6869 C   0  0  0  0  0  0  0  0  0  0  0  0
  -10.0085    2.5462   22.5912 C   0  0  0  0  0  0  0  0  0  0  0  0
  -10.1995    3.6034   21.7614 C   0  0  0  0  0  0  0  0  0  0  0  0
   -9.8147    3.4907   20.3888 C   0  0  0  0  0  0  0  0  0  0  0  0
   -9.4966    1.3504   22.1560 C   0  0  0  0  0  0  0  0  0  0  0  0
   -9.2057    1.1960   20.7504 C   0  0  0  0  0  0  0  0  0  0  0  0
   -9.3585    2.3184   19.9586 C   0  0  0  0  0  0  0  0  0  0  0  0
   -9.2863   -0.0078   23.1668 Cl  0  0  0  0  0  0  0  0  0  0  0  0
  -10.6803    4.9640   22.2670 C   0  0  0  0  0  0  0  0  0  0  0  0
  -13.3666    1.8037   26.1637 C   0  0  0  0  0  0  0  0  0  0  0  0
  -14.1814    2.3803   26.4481 F   0  0  0  0  0  0  0  0  0  0  0  0
  -12.9754    0.8943   27.1909 F   0  0  0  0  0  0  0  0  0  0  0  0
  -13.7651    0.7864   25.2102 F   0  0  0  0  0  0  0  0  0  0  0  0
   -5.6767    4.2525   28.0316 O   0  0  0  0  0  0  0  0  0  0  0  0
  -10.0988    5.4971   23.1548 F   0  0  0  0  0  0  0  0  0  0  0  0
  -12.1119    4.8102   22.5003 F   0  0  0  0  0  0  0  0  0  0  0  0
  -10.7024    5.8168   21.1586 F   0  0  0  0  0  0  0  0  0  0  0  0
  2  7  1  0
  9 13  1  0
 16 19  1  0
 14 20  1  0
 12 21  1  0
 21 22  1  0
 21 23  1  0
 21 24  1  0
  4 25  1  0
 20 26  1  0
 20 27  1  0
 20 28  1  0
  7  8  2  0
  8  9  1  0
  9 10  2  0
 10 12  1  0
 12 11  2  0
 11  7  1  0
 13 14  2  0
 14 15  1  0
 15 18  2  0
 18 17  1  0
 17 16  2  0
 16 13  1  0
  1  2  2  0
  2  3  1  0
  3  6  2  0
  6  5  1  0
  5  4  2  0
  4  1  1  0
M  END
$$$$
