No_5178-complexes_sdf/6BKW-FPZ/2024-09-17-14-21-01/
     RDKit          3D

 34 38  0  0  0  0  0  0  0  0999 V2000
   -7.9040    3.9820   27.1177 C   0  0  0  0  0  0  0  0  0  0  0  0
   -9.0711    4.3164   27.0630 C   0  0  0  0  0  0  0  0  0  0  0  0
   -9.9692    3.7224   26.1073 C   0  0  0  0  0  0  0  0  0  0  0  0
   -7.4776    2.6994   26.6283 C   0  0  0  0  0  0  0  0  0  0  0  0
   -8.4406    1.9440   25.9776 C   0  0  0  0  0  0  0  0  0  0  0  0
   -9.6379    2.5001   25.6881 C   0  0  0  0  0  0  0  0  0  0  0  0
   -6.7701    4.7886   28.1891 Cl  0  0  0  0  0  0  0  0  0  0  0  0
  -10.5973    1.7372   24.8197 C   0  0  1  0  0  0  0  0  0  0  0  0
  -10.8736    2.1481   23.6065 C   0  0  0  0  0  0  0  0  0  0  0  0
  -10.2728    3.4493   23.1543 C   0  0  0  0  0  0  0  0  0  0  0  0
  -10.5526    3.9502   21.8477 C   0  0  0  0  0  0  0  0  0  0  0  0
  -11.1611    3.0884   20.9396 C   0  0  0  0  0  0  0  0  0  0  0  0
  -11.6641    1.8184   21.3308 C   0  0  0  0  0  0  0  0  0  0  0  0
  -11.4553    1.4031   22.6089 C   0  0  0  0  0  0  0  0  0  0  0  0
  -11.1192    0.5425   25.3417 C   0  0  0  0  0  0  0  0  0  0  0  0
  -12.2389    0.6467   25.7074 N   0  0  0  0  0  0  0  0  0  0  0  0
  -13.0851   -0.3456   26.0313 C   0  0  0  0  0  0  0  0  0  0  0  0
  -10.4468   -0.4777   25.3004 O   0  0  0  0  0  0  0  0  0  0  0  0
  -14.3643   -0.0934   26.0615 C   0  0  0  0  0  0  0  0  0  0  0  0
  -14.8268    1.2054   25.8708 C   0  0  0  0  0  0  0  0  0  0  0  0
  -14.0048    2.2623   25.5122 C   0  0  0  0  0  0  0  0  0  0  0  0
  -12.7787    1.9800   25.4049 C   0  0  0  0  0  0  0  0  0  0  0  0
  -14.6587    3.5922   25.2589 C   0  0  1  0  0  0  0  0  0  0  0  0
  -14.6555    4.4311   26.3450 C   0  0  0  0  0  0  0  0  0  0  0  0
  -13.5504    4.6071   27.2182 C   0  0  0  0  0  0  0  0  0  0  0  0
  -13.6519    5.4039   28.4081 C   0  0  0  0  0  0  0  0  0  0  0  0
  -15.7159    5.4653   26.5136 C   0  0  0  0  0  0  0  0  0  0  0  0
  -16.7612    5.4389   25.5995 C   0  0  0  0  0  0  0  0  0  0  0  0
  -15.6693    6.3684   27.5943 C   0  0  0  0  0  0  0  0  0  0  0  0
  -14.6088    6.2976   28.5163 C   0  0  0  0  0  0  0  0  0  0  0  0
  -14.0566    4.2288   24.0533 C   0  0  0  0  0  0  0  0  0  0  0  0
  -16.1832    3.3066   24.8738 C   0  0  1  0  0  0  0  0  0  0  0  0
  -16.9472    4.5022   24.6962 C   0  0  0  0  0  0  0  0  0  0  0  0
  -16.2701    2.0975   23.9581 C   0  0  0  0  0  0  0  0  0  0  0  0
  1  7  1  0
  6  8  1  0
  8 15  1  6
 15 16  1  0
 16 17  1  0
 15 18  2  0
 19 20  1  0
 16 22  1  0
 21 22  1  0
 21 23  1  0
 23 24  1  0
 27 28  1  0
 23 31  1  6
 23 32  1  0
 28 33  1  0
 32 33  1  0
 32 34  1  6
  8  9  1  0
 17 19  1  0
 20 21  1  0
  1  2  2  0
  2  3  1  0
  3  6  2  0
  6  5  1  0
  5  4  2  0
  4  1  1  0
  9 10  2  0
 10 11  1  0
 11 12  2  0
 12 13  1  0
 13 14  2  0
 14  9  1  0
 24 25  2  0
 25 26  1  0
 26 30  2  0
 30 29  1  0
 29 27  2  0
 27 24  1  0
M  END
$$$$
