No_5673-complexes_sdf/6BKW-FPZ/2024-09-17-14-21-01/
     RDKit          3D

 25 27  0  0  0  0  0  0  0  0999 V2000
   -7.9040    3.9820   27.1177 C   0  0  0  0  0  0  0  0  0  0  0  0
   -7.8663    4.8694   27.9238 C   0  0  0  0  0  0  0  0  0  0  0  0
   -9.0501    3.8017   26.2617 C   0  0  0  0  0  0  0  0  0  0  0  0
  -10.0189    4.7608   26.3707 C   0  0  0  0  0  0  0  0  0  0  0  0
   -8.6973    5.9722   27.8968 C   0  0  0  0  0  0  0  0  0  0  0  0
   -9.8216    5.8946   27.1241 C   0  0  0  0  0  0  0  0  0  0  0  0
   -9.1437    2.6293   25.4175 C   0  0  0  0  0  0  0  0  0  0  0  0
   -8.6170    1.4258   25.8177 C   0  0  0  0  0  0  0  0  0  0  0  0
   -8.6844    0.3194   24.9788 C   0  0  0  0  0  0  0  0  0  0  0  0
   -9.3360    0.4939   23.7289 C   0  0  0  0  0  0  0  0  0  0  0  0
   -9.8521    1.7195   23.3158 C   0  0  0  0  0  0  0  0  0  0  0  0
   -9.7240    2.7821   24.1593 C   0  0  0  0  0  0  0  0  0  0  0  0
  -10.4661    1.8424   22.0042 C   0  0  0  0  0  0  0  0  0  0  0  0
  -10.4453    3.0776   21.4846 C   0  0  0  0  0  0  0  0  0  0  0  0
  -10.4006    4.2084   22.3464 C   0  0  0  0  0  0  0  0  0  0  0  0
  -10.0429    4.1182   23.6179 C   0  0  0  0  0  0  0  0  0  0  0  0
   -8.2030   -0.9672   25.4170 C   0  0  2  0  0  0  0  0  0  0  0  0
   -7.8870   -1.9284   25.1460 Cl  0  0  0  0  0  0  0  0  0  0  0  0
   -8.5355   -0.9367   27.0438 C   0  0  0  0  0  0  0  0  0  0  0  0
   -7.8039   -1.7062   27.8119 C   0  0  0  0  0  0  0  0  0  0  0  0
   -6.4284   -1.5152   27.9376 C   0  0  0  0  0  0  0  0  0  0  0  0
   -5.6924   -2.2675   28.9400 C   0  0  0  0  0  0  0  0  0  0  0  0
   -4.2683   -2.0064   29.1833 C   0  0  0  0  0  0  0  0  0  0  0  0
   -3.6218   -1.0129   28.3486 C   0  0  0  0  0  0  0  0  0  0  0  0
   -4.3822   -0.3376   27.3817 C   0  0  0  0  0  0  0  0  0  0  0  0
  3  7  1  0
  9 17  1  0
 17 18  1  6
 17 19  1  0
 19 20  2  3
 20 21  1  0
 21 22  2  3
 22 23  1  0
 23 24  2  3
 24 25  1  0
 12 16  2  0
 16 15  1  0
 15 14  2  0
 14 13  1  0
 13 11  2  0
  1  2  2  0
  2  5  1  0
  5  6  2  0
  6  4  1  0
  4  3  2  0
  3  1  1  0
  7  8  2  0
  8  9  1  0
  9 10  2  0
 10 11  1  0
 11 12  1  0
 12  7  1  0
M  END
$$$$
