No_5735-complexes_sdf/6BKW-FPZ/2024-09-17-14-21-01/
     RDKit          3D

 13 14  0  0  0  0  0  0  0  0999 V2000
   -7.9040    3.9820   27.1177 C   0  0  0  0  0  0  0  0  0  0  0  0
   -9.0711    4.3164   27.0630 C   0  0  0  0  0  0  0  0  0  0  0  0
   -9.8698    3.9665   25.9495 C   0  0  0  0  0  0  0  0  0  0  0  0
   -7.0332    4.5030   28.2025 C   0  0  0  0  0  0  0  0  0  0  0  0
  -10.9909    4.7237   25.5958 C   0  0  0  0  0  0  0  0  0  0  0  0
   -7.4989    5.5573   28.9524 C   0  0  0  0  0  0  0  0  0  0  0  0
  -11.8373    4.3183   26.1862 C   0  0  0  0  0  0  0  0  0  0  0  0
  -11.5937    4.3609   27.7363 C   0  0  0  0  0  0  0  0  0  0  0  0
  -10.1719    4.1042   28.0401 C   0  0  0  0  0  0  0  0  0  0  0  0
   -5.6637    3.9685   28.1610 C   0  0  0  0  0  0  0  0  0  0  0  0
   -5.3817    2.7214   27.6812 C   0  0  0  0  0  0  0  0  0  0  0  0
   -6.3716    1.9911   27.0811 N   0  0  0  0  0  0  0  0  0  0  0  0
   -7.5419    2.5506   26.7793 C   0  0  0  0  0  0  0  0  0  0  0  0
  1  2  1  0
  6  4  1  0
  2  3  2  0
  3  5  1  0
  5  7  2  0
  7  8  1  0
  8  9  2  0
  9  2  1  0
  1  4  2  0
  4 10  1  0
 10 11  2  0
 11 12  1  0
 12 13  2  0
 13  1  1  0
M  END
$$$$
