No_567-complexes_sdf/6BKW-FPZ/2024-09-17-14-21-01/
     RDKit          3D

 33 36  0  0  0  0  0  0  0  0999 V2000
   -7.9040    3.9820   27.1177 C   0  0  0  0  0  0  0  0  0  0  0  0
   -7.8663    4.8694   27.9238 C   0  0  0  0  0  0  0  0  0  0  0  0
   -9.0501    3.8017   26.2617 C   0  0  0  0  0  0  0  0  0  0  0  0
  -10.0189    4.7608   26.3707 C   0  0  0  0  0  0  0  0  0  0  0  0
   -8.6770    5.9780   27.9222 C   0  0  0  0  0  0  0  0  0  0  0  0
   -9.8040    5.8752   27.0958 C   0  0  0  0  0  0  0  0  0  0  0  0
   -9.1166    2.7696   25.4779 F   0  0  0  0  0  0  0  0  0  0  0  0
   -6.7893    2.6318   27.1465 Cl  0  0  0  0  0  0  0  0  0  0  0  0
  -11.0161    4.7328   25.4932 O   0  0  0  0  0  0  0  0  0  0  0  0
  -10.9126    4.0979   24.2684 C   0  0  0  0  0  0  0  0  0  0  0  0
  -12.1091    3.9842   23.5421 C   0  0  0  0  0  0  0  0  0  0  0  0
  -11.9857    3.6149   22.2325 C   0  0  0  0  0  0  0  0  0  0  0  0
  -13.0663    3.4528   21.3888 C   0  0  0  0  0  0  0  0  0  0  0  0
  -14.3578    3.8371   21.8780 C   0  0  0  0  0  0  0  0  0  0  0  0
  -14.4739    4.3345   23.1561 C   0  0  0  0  0  0  0  0  0  0  0  0
  -13.2893    4.4445   23.9645 C   0  0  0  0  0  0  0  0  0  0  0  0
  -15.7750    4.7421   23.6840 C   0  0  0  0  0  0  0  0  0  0  0  0
  -16.3380    4.0225   24.3357 C   0  0  0  0  0  0  0  0  0  0  0  0
  -17.6173    4.4327   24.9939 C   0  0  0  0  0  0  0  0  0  0  0  0
  -18.0717    5.7179   24.7754 C   0  0  0  0  0  0  0  0  0  0  0  0
  -16.1118    6.1919   23.4367 C   0  0  0  0  0  0  0  0  0  0  0  0
  -17.2819    6.6399   24.0099 C   0  0  0  0  0  0  0  0  0  0  0  0
  -18.3165    3.5815   25.7323 O   0  0  0  0  0  0  0  0  0  0  0  0
  -18.5265    3.7810   26.9827 C   0  0  0  0  0  0  0  0  0  0  0  0
  -17.7799    4.1530   27.8257 C   0  0  0  0  0  0  0  0  0  0  0  0
  -18.0476    4.3598   29.2380 C   0  0  0  0  0  0  0  0  0  0  0  0
  -19.3150    4.0063   29.6448 C   0  0  0  0  0  0  0  0  0  0  0  0
  -19.9354    3.4224   27.3770 C   0  0  0  0  0  0  0  0  0  0  0  0
  -20.2373    3.5748   28.7158 C   0  0  0  0  0  0  0  0  0  0  0  0
  -21.5937    3.2143   29.1411 C   0  0  0  0  0  0  0  0  0  0  0  0
  -22.0521    3.5001   30.2202 O   0  0  0  0  0  0  0  0  0  0  0  0
  -22.2751    2.5267   28.1659 O   0  0  0  0  0  0  0  0  0  0  0  0
  -15.9372    2.3932   24.6806 Cl  0  0  0  0  0  0  0  0  0  0  0  0
  3  7  1  0
  1  8  1  0
  4  9  1  0
  9 10  1  0
 10 11  1  0
 15 17  1  0
 19 23  1  0
 23 24  1  0
 29 30  1  0
 30 31  2  0
 30 32  1  0
 18 33  1  0
 11 12  2  0
 12 13  1  0
 13 14  2  0
 14 15  1  0
 15 16  2  0
 16 11  1  0
 17 18  2  0
 18 19  1  0
 19 20  2  0
 20 22  1  0
 22 21  2  0
 21 17  1  0
 24 25  2  0
 25 26  1  0
 26 27  2  0
 27 29  1  0
 29 28  2  0
 28 24  1  0
  1  2  2  0
  2  5  1  0
  5  6  2  0
  6  4  1  0
  4  3  2  0
  3  1  1  0
M  END
$$$$
