No_5001-complexes_sdf/6BKW-FPZ/2024-09-17-14-21-01/
     RDKit          3D

 27 31  0  0  0  0  0  0  0  0999 V2000
   -7.9040    3.9820   27.1177 C   0  0  0  0  0  0  0  0  0  0  0  0
   -8.2057    2.8231   26.8733 C   0  0  0  0  0  0  0  0  0  0  0  0
   -8.7695    5.0740   26.7916 C   0  0  0  0  0  0  0  0  0  0  0  0
   -9.9618    4.7598   26.1630 C   0  0  0  0  0  0  0  0  0  0  0  0
   -9.4200    2.4524   26.2850 C   0  0  0  0  0  0  0  0  0  0  0  0
  -10.2590    3.4815   25.9250 C   0  0  0  0  0  0  0  0  0  0  0  0
   -8.3840    6.4693   27.0829 C   0  0  0  0  0  0  0  0  0  0  0  0
   -7.9676    7.4862   26.9931 N   0  0  0  0  0  0  0  0  0  0  0  0
   -7.2799    1.6688   27.3023 C   0  0  0  0  0  0  0  0  0  0  0  0
   -7.5867    0.3203   27.2121 C   0  0  0  0  0  0  0  0  0  0  0  0
   -6.6938   -0.5301   27.7141 C   0  0  0  0  0  0  0  0  0  0  0  0
   -5.4057   -0.1233   28.1770 C   0  0  0  0  0  0  0  0  0  0  0  0
   -5.1063    1.2418   28.1523 C   0  0  0  0  0  0  0  0  0  0  0  0
   -5.9460    2.1046   27.7664 C   0  0  0  0  0  0  0  0  0  0  0  0
   -4.4458   -1.1356   28.7127 C   0  0  0  0  0  0  0  0  0  0  0  0
   -3.4436   -0.9771   29.1560 C   0  0  0  0  0  0  0  0  0  0  0  0
   -2.4578   -1.9352   29.7090 C   0  0  0  0  0  0  0  0  0  0  0  0
   -1.2797   -1.6192   30.2945 C   0  0  0  0  0  0  0  0  0  0  0  0
   -0.4961   -2.6486   30.7349 C   0  0  0  0  0  0  0  0  0  0  0  0
   -0.7987   -3.9272   30.6289 C   0  0  0  0  0  0  0  0  0  0  0  0
   -2.7067   -3.2985   29.6820 C   0  0  0  0  0  0  0  0  0  0  0  0
   -1.9393   -4.2310   30.1039 C   0  0  0  0  0  0  0  0  0  0  0  0
   -4.9388   -2.4974   28.5883 C   0  0  0  0  0  0  0  0  0  0  0  0
   -6.1268   -2.9083   28.1186 C   0  0  0  0  0  0  0  0  0  0  0  0
   -6.8497   -1.9180   27.7888 C   0  0  0  0  0  0  0  0  0  0  0  0
   -4.0368   -3.5516   29.0699 C   0  0  0  0  0  0  0  0  0  0  0  0
   -4.4165   -4.7647   29.0078 O   0  0  0  0  0  0  0  0  0  0  0  0
  3  7  1  0
  7  8  3  0
  2  9  1  0
 16 17  1  0
 21 26  1  0
 23 26  1  0
 26 27  2  0
 16 15  1  0
 12 15  2  0
 15 23  1  0
 23 24  2  0
 24 25  1  0
 25 11  2  0
 17 18  2  0
 18 19  1  0
 19 20  2  0
 20 22  1  0
 22 21  2  0
 21 17  1  0
  9 10  2  0
 10 11  1  0
 11 12  1  0
 12 13  1  0
 13 14  2  0
 14  9  1  0
  1  2  2  0
  2  5  1  0
  5  6  2  0
  6  4  1  0
  4  3  2  0
  3  1  1  0
M  END
$$$$
