No_5309-complexes_sdf/6BKW-FPZ/2024-09-17-14-21-01/
     RDKit          3D

 31 34  0  0  0  0  0  0  0  0999 V2000
   -7.7129    4.2099   27.0854 C   0  0  0  0  0  0  0  0  0  0  0  0
   -8.9133    4.4736   27.0998 C   0  0  0  0  0  0  0  0  0  0  0  0
   -9.8363    3.8127   27.2418 C   0  0  0  0  0  0  0  0  0  0  0  0
   -7.2995    2.8520   27.3808 C   0  0  0  0  0  0  0  0  0  0  0  0
   -8.3404    1.9507   27.4989 C   0  0  0  0  0  0  0  0  0  0  0  0
   -9.6166    2.3791   27.4719 C   0  0  0  0  0  0  0  0  0  0  0  0
   -9.1683    6.0342   26.9011 C   0  0  0  0  0  0  0  0  0  0  0  0
   -8.9375    6.8545   27.9520 C   0  0  0  0  0  0  0  0  0  0  0  0
   -8.2741    6.4981   25.6543 C   0  0  0  0  0  0  0  0  0  0  0  0
   -7.9541    0.2879   27.7539 Cl  0  0  0  0  0  0  0  0  0  0  0  0
  -10.7346    1.4262   27.7833 C   0  0  0  0  0  0  0  0  0  0  0  0
  -11.6413    1.2235   26.8291 C   0  0  1  0  0  0  0  0  0  0  0  0
  -11.7403    1.3781   25.7367 C   0  0  0  0  0  0  0  0  0  0  0  0
  -10.8892    1.5818   24.9480 C   0  0  0  0  0  0  0  0  0  0  0  0
  -10.9994    1.8452   23.4398 C   0  0  0  0  0  0  0  0  0  0  0  0
  -12.2280    1.7876   23.0151 C   0  0  0  0  0  0  0  0  0  0  0  0
  -13.2886    1.5276   23.7915 C   0  0  0  0  0  0  0  0  0  0  0  0
  -13.1254    1.3589   25.0953 C   0  0  0  0  0  0  0  0  0  0  0  0
  -12.8199    0.4233   27.6001 C   0  0  0  0  0  0  0  0  0  0  0  0
  -12.5715   -0.3058   28.6761 C   0  0  0  0  0  0  0  0  0  0  0  0
  -13.7155   -0.6211   29.3961 C   0  0  0  0  0  0  0  0  0  0  0  0
  -14.9304   -0.4337   28.9075 C   0  0  0  0  0  0  0  0  0  0  0  0
  -15.1469    0.2681   27.7792 C   0  0  0  0  0  0  0  0  0  0  0  0
  -14.0815    0.8021   27.1781 C   0  0  0  0  0  0  0  0  0  0  0  0
  -14.2536    1.8555   26.2736 C   0  0  0  0  0  0  0  0  0  0  0  0
  -14.6615    1.5925   23.3025 C   0  0  2  0  0  0  0  0  0  0  0  0
  -15.2563    2.7808   23.1514 C   0  0  0  0  0  0  0  0  0  0  0  0
  -15.3663    0.4026   23.0957 C   0  0  0  0  0  0  0  0  0  0  0  0
  -14.7067    3.9903   23.2887 C   0  0  0  0  0  0  0  0  0  0  0  0
  -15.3696    5.2406   23.1223 C   0  0  0  0  0  0  0  0  0  0  0  0
  -16.5143    0.2481   23.1763 O   0  0  0  0  0  0  0  0  0  0  0  0
  2  7  1  0
  7  8  1  0
  7  9  1  0
  5 10  1  0
  6 11  1  0
 12 11  1  6
 12 13  1  0
 12 19  1  0
 18 25  1  0
 24 25  1  0
 17 26  1  0
 26 27  1  0
 26 28  1  1
 27 29  2  3
 29 30  1  0
 28 31  2  0
 13 14  2  0
 14 15  1  0
 15 16  2  0
 16 17  1  0
 17 18  2  0
 18 13  1  0
  1  2  2  0
  2  3  1  0
  3  6  2  0
  6  5  1  0
  5  4  2  0
  4  1  1  0
 19 20  2  0
 20 21  1  0
 21 22  2  0
 22 23  1  0
 23 24  2  0
 24 19  1  0
M  END
$$$$
