No_5698-complexes_sdf/6BKW-FPZ/2024-09-17-14-21-01/
     RDKit          3D

 33 37  0  0  0  0  0  0  0  0999 V2000
   -7.9040    3.9820   27.1177 C   0  0  0  0  0  0  0  0  0  0  0  0
   -9.0711    4.3164   27.0630 C   0  0  0  0  0  0  0  0  0  0  0  0
   -9.5182    5.5541   27.5777 C   0  0  0  0  0  0  0  0  0  0  0  0
   -7.4468    2.6843   26.6499 C   0  0  0  0  0  0  0  0  0  0  0  0
   -8.3856    1.7878   26.2216 C   0  0  0  0  0  0  0  0  0  0  0  0
   -9.6812    2.2328   26.0889 C   0  0  0  0  0  0  0  0  0  0  0  0
  -10.0147    3.4312   26.5259 C   0  0  0  0  0  0  0  0  0  0  0  0
   -7.9143    0.4677   25.8109 C   0  0  2  0  0  0  0  0  0  0  0  0
   -6.9444   -0.4165   26.7308 Cl  0  0  0  0  0  0  0  0  0  0  0  0
   -8.2532   -0.0447   24.5437 C   0  0  0  0  0  0  0  0  0  0  0  0
   -8.5450    6.6587   27.5543 C   0  0  0  0  0  0  0  0  0  0  0  0
   -7.2609    6.2872   27.1691 C   0  0  0  0  0  0  0  0  0  0  0  0
   -6.8551    5.0011   27.1377 C   0  0  0  0  0  0  0  0  0  0  0  0
   -8.9189   -1.2055   24.5012 C   0  0  0  0  0  0  0  0  0  0  0  0
   -9.3220   -1.6546   23.3229 C   0  0  0  0  0  0  0  0  0  0  0  0
  -10.0391   -2.8616   23.1457 C   0  0  0  0  0  0  0  0  0  0  0  0
  -10.2703   -3.5844   24.2669 C   0  0  0  0  0  0  0  0  0  0  0  0
   -9.8578   -3.1816   25.4725 C   0  0  0  0  0  0  0  0  0  0  0  0
   -9.2164   -1.9816   25.6581 C   0  0  0  0  0  0  0  0  0  0  0  0
  -11.4740    3.7978   26.3505 C   0  0  0  0  0  0  0  0  0  0  0  0
  -12.2260    2.9774   26.9233 C   0  0  0  0  0  0  0  0  0  0  0  0
  -13.5350    3.3170   27.1613 C   0  0  0  0  0  0  0  0  0  0  0  0
  -14.1421    3.1404   28.3397 C   0  0  0  0  0  0  0  0  0  0  0  0
  -13.6159    2.0548   29.1737 C   0  0  0  0  0  0  0  0  0  0  0  0
  -12.2975    1.6578   28.9678 C   0  0  0  0  0  0  0  0  0  0  0  0
  -11.5553    2.1652   27.9203 C   0  0  0  0  0  0  0  0  0  0  0  0
  -14.2637    4.1497   26.1830 C   0  0  0  0  0  0  0  0  0  0  0  0
  -15.1259    3.5811   25.3275 C   0  0  0  0  0  0  0  0  0  0  0  0
  -15.3045    2.5418   25.0992 C   0  0  0  0  0  0  0  0  0  0  0  0
  -16.2833    2.0395   24.1145 C   0  0  0  0  0  0  0  0  0  0  0  0
  -17.0138    2.9707   23.4693 C   0  0  0  0  0  0  0  0  0  0  0  0
  -16.8105    4.2981   23.6906 C   0  0  0  0  0  0  0  0  0  0  0  0
  -15.8548    4.7803   24.6328 C   0  0  0  0  0  0  0  0  0  0  0  0
  5  8  1  0
  8  9  1  6
  8 10  1  0
 10 14  1  0
  7 20  1  0
 20 21  1  0
 22 27  1  0
 27 28  1  0
  2  3  2  0
  3 11  1  0
 11 12  2  0
 12 13  1  0
 13  1  2  0
  1  2  1  0
  2  7  1  0
  7  6  2  0
  6  5  1  0
  5  4  2  0
  4  1  1  0
 14 15  2  0
 15 16  1  0
 16 17  2  0
 17 18  1  0
 18 19  2  0
 19 14  1  0
 28 29  2  0
 29 30  1  0
 30 31  2  0
 31 32  1  0
 32 33  2  0
 33 28  1  0
 21 22  1  0
 22 23  2  0
 23 24  1  0
 24 25  2  0
 25 26  1  0
 26 21  2  0
M  END
$$$$
