No_5372-complexes_sdf/6BKW-FPZ/2024-09-17-14-21-01/
     RDKit          3D

 20 22  0  0  0  0  0  0  0  0999 V2000
   -7.7129    4.2099   27.0854 C   0  0  0  0  0  0  0  0  0  0  0  0
   -7.7814    5.1722   27.8972 C   0  0  0  0  0  0  0  0  0  0  0  0
   -8.8998    3.8713   26.3707 C   0  0  0  0  0  0  0  0  0  0  0  0
   -9.9938    4.6774   26.5446 C   0  0  0  0  0  0  0  0  0  0  0  0
   -8.7789    6.1536   27.9256 C   0  0  0  0  0  0  0  0  0  0  0  0
   -9.9428    5.8398   27.2296 C   0  0  0  0  0  0  0  0  0  0  0  0
   -8.7380    2.6148   25.5921 C   0  0  0  0  0  0  0  0  0  0  0  0
   -9.4462    1.6657   25.9650 N   0  0  0  0  0  0  0  0  0  0  0  0
   -9.2395    0.4726   25.6579 C   0  0  0  0  0  0  0  0  0  0  0  0
   -8.3938    0.1094   24.8459 C   0  0  0  0  0  0  0  0  0  0  0  0
  -10.0426   -0.6678   26.2469 C   0  0  0  0  0  0  0  0  0  0  0  0
  -10.9879   -0.4007   27.0761 C   0  0  0  0  0  0  0  0  0  0  0  0
  -11.1968    1.0100   27.5227 C   0  0  0  0  0  0  0  0  0  0  0  0
  -10.6514    2.0310   26.8406 C   0  0  0  0  0  0  0  0  0  0  0  0
   -7.0964   -0.4485   25.1042 C   0  0  0  0  0  0  0  0  0  0  0  0
   -8.5916    0.3342   23.3961 C   0  0  0  0  0  0  0  0  0  0  0  0
   -6.1839   -0.9192   24.1732 C   0  0  0  0  0  0  0  0  0  0  0  0
   -7.6746   -0.1205   22.4311 C   0  0  0  0  0  0  0  0  0  0  0  0
   -6.4625   -0.7021   22.8198 C   0  0  0  0  0  0  0  0  0  0  0  0
  -11.5350    4.1035   26.0214 Cl  0  0  0  0  0  0  0  0  0  0  0  0
  3  7  1  0
  7  8  1  0
  8  9  1  0
  9 10  1  0
  9 11  1  0
 12 13  1  0
  8 14  1  0
  4 20  1  0
 11 12  1  0
 13 14  1  0
 10 15  2  0
 15 17  1  0
 17 19  2  0
 19 18  1  0
 18 16  2  0
 16 10  1  0
  1  2  2  0
  2  5  1  0
  5  6  2  0
  6  4  1  0
  4  3  2  0
  3  1  1  0
M  END
$$$$
