No_5444-complexes_sdf/6BKW-FPZ/2024-09-17-14-21-01/
     RDKit          3D

 26 29  0  0  0  0  0  0  0  0999 V2000
   -7.9040    3.9820   27.1177 C   0  0  0  0  0  0  0  0  0  0  0  0
   -7.8663    4.8694   27.9238 C   0  0  0  0  0  0  0  0  0  0  0  0
   -9.0491    3.8523   26.2542 C   0  0  0  0  0  0  0  0  0  0  0  0
   -8.7661    5.9491   27.9690 C   0  0  0  0  0  0  0  0  0  0  0  0
   -9.1798    2.6731   25.4786 C   0  0  2  0  0  0  0  0  0  0  0  0
   -9.8964    5.8854   27.1460 C   0  0  0  0  0  0  0  0  0  0  0  0
   -9.9958    4.8034   26.3470 C   0  0  0  0  0  0  0  0  0  0  0  0
  -10.0962    1.8492   25.8120 C   0  0  0  0  0  0  0  0  0  0  0  0
  -10.9821    1.8026   26.4191 C   0  0  0  0  0  0  0  0  0  0  0  0
  -11.8574    0.5903   26.7568 C   0  0  0  0  0  0  0  0  0  0  0  0
  -11.4664   -0.5264   26.1219 C   0  0  0  0  0  0  0  0  0  0  0  0
   -9.7984    0.4111   25.1581 C   0  0  0  0  0  0  0  0  0  0  0  0
  -10.5370   -0.6386   25.3554 C   0  0  0  0  0  0  0  0  0  0  0  0
   -8.6519    0.5959   24.1341 C   0  0  2  0  0  0  0  0  0  0  0  0
   -7.9366    1.9291   24.8830 C   0  0  0  0  0  0  0  0  0  0  0  0
   -9.0340    0.9391   22.8139 C   0  0  0  0  0  0  0  0  0  0  0  0
   -7.6288   -0.5177   24.2653 C   0  0  0  0  0  0  0  0  0  0  0  0
   -7.1991   -1.1129   23.2230 C   0  0  0  0  0  0  0  0  0  0  0  0
   -6.2199   -2.0822   23.4167 C   0  0  0  0  0  0  0  0  0  0  0  0
   -5.9475   -2.4118   24.4637 C   0  0  0  0  0  0  0  0  0  0  0  0
   -7.0243   -1.0752   25.4942 C   0  0  0  0  0  0  0  0  0  0  0  0
   -6.2030   -1.9025   25.6930 C   0  0  0  0  0  0  0  0  0  0  0  0
  -10.1520   -1.8751   24.6826 C   0  0  0  0  0  0  0  0  0  0  0  0
  -10.7340   -2.2670   23.7287 C   0  0  0  0  0  0  0  0  0  0  0  0
  -10.3376   -3.4298   22.9976 C   0  0  0  0  0  0  0  0  0  0  0  0
  -10.9645   -3.7444   21.7820 C   0  0  0  0  0  0  0  0  0  0  0  0
  5  3  1  1
  5  8  1  0
 12 14  1  0
  5 15  1  0
 14 15  1  0
 14 16  1  6
 14 17  1  0
 13 23  1  0
 23 24  1  0
 24 25  2  3
 25 26  1  0
  1  2  2  0
  2  4  1  0
  4  6  2  0
  6  7  1  0
  7  3  2  0
  3  1  1  0
 17 18  2  0
 18 19  1  0
 19 20  2  0
 20 22  1  0
 22 21  2  0
 21 17  1  0
  8  9  2  0
  9 10  1  0
 10 11  2  0
 11 13  1  0
 13 12  2  0
 12  8  1  0
M  END
$$$$
