No_5583-complexes_sdf/6BKW-FPZ/2024-09-17-14-21-01/
     RDKit          3D

 10 10  0  0  0  0  0  0  0  0999 V2000
   -7.7129    4.2099   27.0854 C   0  0  0  0  0  0  0  0  0  0  0  0
   -7.7814    5.1722   27.8972 C   0  0  0  0  0  0  0  0  0  0  0  0
   -8.8998    3.8713   26.3707 C   0  0  0  0  0  0  0  0  0  0  0  0
   -9.1401    2.5906   25.9433 C   0  0  0  0  0  0  0  0  0  0  0  0
   -8.6957    6.2523   27.8111 C   0  0  0  0  0  0  0  0  0  0  0  0
   -9.8872    5.9756   27.0647 C   0  0  0  0  0  0  0  0  0  0  0  0
   -9.9467    4.7871   26.4059 C   0  0  0  0  0  0  0  0  0  0  0  0
   -8.4868    1.4852   26.6207 C   0  0  0  0  0  0  0  0  0  0  0  0
   -8.4554    0.3913   26.3785 C   0  0  0  0  0  0  0  0  0  0  0  0
   -9.1821   -0.0514   25.2076 C   0  0  0  0  0  0  0  0  0  0  0  0
  4  8  1  0
  8  9  2  3
  9 10  1  0
  4  3  1  0
  1  2  2  0
  2  5  1  0
  5  6  2  0
  6  7  1  0
  7  3  2  0
  3  1  1  0
M  END
$$$$
