No_587-complexes_sdf/6BKW-FPZ/2024-09-17-14-21-01/
     RDKit          3D

 30 33  0  0  0  0  0  0  0  0999 V2000
   -7.2496    3.8871   27.4508 C   0  0  0  0  0  0  0  0  0  0  0  0
   -8.5096    4.0291   27.2770 C   0  0  0  0  0  0  0  0  0  0  0  0
   -9.3451    2.8786   26.9046 C   0  0  0  0  0  0  0  0  0  0  0  0
   -6.6065    2.5680   27.5073 C   0  0  0  0  0  0  0  0  0  0  0  0
   -7.4233    1.4858   27.2402 C   0  0  0  0  0  0  0  0  0  0  0  0
   -8.7362    1.6525   26.9989 C   0  0  0  0  0  0  0  0  0  0  0  0
   -9.0996    5.3741   27.2135 C   0  0  0  0  0  0  0  0  0  0  0  0
   -8.3165    6.4884   26.9031 C   0  0  0  0  0  0  0  0  0  0  0  0
   -8.6125    7.8161   27.1161 C   0  0  0  0  0  0  0  0  0  0  0  0
   -6.7842    0.1770   27.2958 C   0  0  0  0  0  0  0  0  0  0  0  0
   -5.5357    0.0515   27.8043 C   0  0  0  0  0  0  0  0  0  0  0  0
   -4.9961   -1.1896   28.1072 C   0  0  0  0  0  0  0  0  0  0  0  0
   -3.7565   -1.2800   28.8292 C   0  0  0  0  0  0  0  0  0  0  0  0
   -3.0328   -0.1041   29.1319 C   0  0  0  0  0  0  0  0  0  0  0  0
   -3.6318    1.1471   28.8520 C   0  0  0  0  0  0  0  0  0  0  0  0
   -4.8118    1.2186   28.2788 C   0  0  0  0  0  0  0  0  0  0  0  0
   -5.4845    2.5159   28.0450 C   0  0  0  0  0  0  0  0  0  0  0  0
  -10.4671    5.5413   27.4608 C   0  0  0  0  0  0  0  0  0  0  0  0
   -9.6289    0.5045   26.6632 C   0  0  0  0  0  0  0  0  0  0  0  0
  -10.6946    0.3380   27.5043 C   0  0  0  0  0  0  0  0  0  0  0  0
  -11.2828   -0.8532   27.7462 C   0  0  0  0  0  0  0  0  0  0  0  0
  -10.8442   -1.9133   26.9703 C   0  0  0  0  0  0  0  0  0  0  0  0
   -9.7802   -1.7932   26.1230 C   0  0  0  0  0  0  0  0  0  0  0  0
   -9.0657   -0.5884   26.0786 C   0  0  0  0  0  0  0  0  0  0  0  0
   -7.6343   -0.6502   25.6651 C   0  0  2  0  0  0  0  0  0  0  0  0
   -7.4939   -0.7608   28.2351 O   0  0  0  0  0  0  0  0  0  0  0  0
   -7.4325    0.2065   24.5945 C   0  0  0  0  0  0  0  0  0  0  0  0
   -6.9864   -1.9318   25.6205 C   0  0  0  0  0  0  0  0  0  0  0  0
   -7.1010   -2.7396   24.5529 C   0  0  0  0  0  0  0  0  0  0  0  0
   -6.0453   -2.7785   23.8013 C   0  0  0  0  0  0  0  0  0  0  0  0
  2  7  1  0
  7  8  1  0
  8  9  2  0
  7 18  1  0
  6 19  1  0
 24 25  1  0
 10 26  1  0
 25 27  1  6
 25 28  1  0
 28 29  1  0
 29 30  1  0
 11 12  1  0
 12 13  2  0
 13 14  1  0
 14 15  2  0
 15 16  1  0
  1  2  2  0
  2  3  1  0
  3  6  2  0
  6  5  1  0
  4  1  1  0
  4  5  2  0
  5 10  1  0
 10 11  2  0
 11 16  1  0
 16 17  2  0
 17  4  1  0
 19 20  2  0
 20 21  1  0
 21 22  2  0
 22 23  1  0
 23 24  2  0
 24 19  1  0
M  END
$$$$
