No_5493-complexes_sdf/6BKW-FPZ/2024-09-17-14-21-01/
     RDKit          3D

 10 10  0  0  0  0  0  0  0  0999 V2000
   -7.9040    3.9820   27.1177 C   0  0  2  0  0  0  0  0  0  0  0  0
   -9.0711    4.3164   27.0630 C   0  0  0  0  0  0  0  0  0  0  0  0
   -9.8698    3.9665   25.9495 C   0  0  0  0  0  0  0  0  0  0  0  0
   -7.4981    2.6202   26.7684 C   0  0  0  0  0  0  0  0  0  0  0  0
   -9.7010    2.6670   25.4919 C   0  0  1  0  0  0  0  0  0  0  0  0
   -8.5972    1.8220   26.4938 C   0  0  0  0  0  0  0  0  0  0  0  0
   -7.1833    4.3755   28.2741 F   0  0  0  0  0  0  0  0  0  0  0  0
  -10.3145    1.9706   24.4936 C   0  0  0  0  0  0  0  0  0  0  0  0
  -10.5807    2.6617   23.3633 C   0  0  0  0  0  0  0  0  0  0  0  0
  -11.1411    2.0813   22.1682 C   0  0  0  0  0  0  0  0  0  0  0  0
  1  2  1  0
  2  3  1  0
  1  4  1  0
  5  3  1  1
  4  6  1  0
  5  6  1  0
  1  7  1  1
  5  8  1  0
  8  9  2  3
  9 10  1  0
M  END
$$$$
