No_5642-complexes_sdf/6BKW-FPZ/2024-09-17-14-21-01/
     RDKit          3D

 31 34  0  0  0  0  0  0  0  0999 V2000
   -7.2496    3.8871   27.4508 C   0  0  0  0  0  0  0  0  0  0  0  0
   -7.6161    2.7143   27.1523 C   0  0  0  0  0  0  0  0  0  0  0  0
   -8.6212    2.2239   26.4074 C   0  0  0  0  0  0  0  0  0  0  0  0
   -8.2540    4.9237   27.1711 C   0  0  0  0  0  0  0  0  0  0  0  0
   -9.3729    4.5806   26.4433 C   0  0  0  0  0  0  0  0  0  0  0  0
   -9.5830    3.2969   26.1026 C   0  0  0  0  0  0  0  0  0  0  0  0
   -7.9420    6.1850   27.5089 F   0  0  0  0  0  0  0  0  0  0  0  0
   -8.8887    0.8876   26.0723 C   0  0  0  0  0  0  0  0  0  0  0  0
   -9.4156    0.0858   26.9871 C   0  0  0  0  0  0  0  0  0  0  0  0
   -9.7270   -0.8898   27.2175 C   0  0  0  0  0  0  0  0  0  0  0  0
  -10.3485   -1.4953   28.4759 C   0  0  0  0  0  0  0  0  0  0  0  0
   -9.6217   -2.0399   26.2090 C   0  0  0  0  0  0  0  0  0  0  0  0
  -10.1747   -3.1257   26.3714 C   0  0  0  0  0  0  0  0  0  0  0  0
  -10.8460   -2.6933   28.7057 C   0  0  0  0  0  0  0  0  0  0  0  0
  -10.7440   -3.5693   27.6341 C   0  0  0  0  0  0  0  0  0  0  0  0
   -8.5722    0.4047   24.8266 C   0  0  0  0  0  0  0  0  0  0  0  0
   -9.3790    0.3887   23.8469 C   0  0  0  0  0  0  0  0  0  0  0  0
   -9.0027   -0.0835   22.5239 C   0  0  0  0  0  0  0  0  0  0  0  0
   -7.7434   -0.7053   22.4154 C   0  0  0  0  0  0  0  0  0  0  0  0
   -6.8440   -0.7394   23.4728 C   0  0  0  0  0  0  0  0  0  0  0  0
   -7.2180   -0.2243   24.6979 C   0  0  0  0  0  0  0  0  0  0  0  0
  -11.2921   -4.9372   27.7753 C   0  0  0  0  0  0  0  0  0  0  0  0
  -11.1281   -5.5617   28.8460 C   0  0  0  0  0  0  0  0  0  0  0  0
  -11.9770   -5.5150   26.7046 C   0  0  0  0  0  0  0  0  0  0  0  0
  -10.4838   -5.1583   29.9835 C   0  0  0  0  0  0  0  0  0  0  0  0
  -10.7374   -3.8683   30.6775 C   0  0  0  0  0  0  0  0  0  0  0  0
  -10.1905   -2.7335   29.9820 C   0  0  0  0  0  0  0  0  0  0  0  0
  -10.8380   -0.2139   29.2661 C   0  0  0  0  0  0  0  0  0  0  0  0
  -12.1354   -5.1368   25.5924 C   0  0  0  0  0  0  0  0  0  0  0  0
  -11.3305   -4.1484   25.0230 C   0  0  0  0  0  0  0  0  0  0  0  0
   -9.4517   -4.0871   26.3624 F   0  0  0  0  0  0  0  0  0  0  0  0
  4  7  1  0
  3  8  1  0
  8  9  2  3
  9 10  1  0
  8 16  1  0
 15 22  1  0
 22 23  1  0
 22 24  1  0
 23 25  1  0
 25 26  2  0
 14 27  1  0
 26 27  1  0
 11 28  1  0
 24 29  2  3
 29 30  1  0
 13 31  1  0
  1  2  2  0
  2  3  1  0
  3  6  2  0
  6  5  1  0
  5  4  2  0
  4  1  1  0
 10 11  2  0
 11 14  1  0
 14 15  2  0
 15 13  1  0
 13 12  2  0
 12 10  1  0
 16 17  2  0
 17 18  1  0
 18 19  2  0
 19 20  1  0
 20 21  2  0
 21 16  1  0
M  END
$$$$
