No_5693-complexes_sdf/6BKW-FPZ/2024-09-17-14-21-01/
     RDKit          3D

 11 11  0  0  0  0  0  0  0  0999 V2000
   -7.7129    4.2099   27.0854 C   0  0  0  0  0  0  0  0  0  0  0  0
   -7.7814    5.1722   27.8972 C   0  0  0  0  0  0  0  0  0  0  0  0
   -8.7889    3.2468   27.2220 C   0  0  0  0  0  0  0  0  0  0  0  0
   -8.5940    1.9755   26.6525 C   0  0  0  0  0  0  0  0  0  0  0  0
   -7.5537    1.2112   27.0910 C   0  0  0  0  0  0  0  0  0  0  0  0
   -8.9922    5.8883   28.1677 C   0  0  0  0  0  0  0  0  0  0  0  0
   -9.9584    3.8554   27.6719 C   0  0  0  0  0  0  0  0  0  0  0  0
  -10.1044    5.0600   28.2145 C   0  0  0  0  0  0  0  0  0  0  0  0
   -6.6875    1.5870   28.1504 C   0  0  0  0  0  0  0  0  0  0  0  0
   -5.5403    0.7217   28.4013 C   0  0  0  0  0  0  0  0  0  0  0  0
   -5.3965   -0.4576   27.7501 C   0  0  0  0  0  0  0  0  0  0  0  0
  3  4  1  0
  4  5  2  3
  5  9  1  0
  9 10  2  3
 10 11  1  0
  1  2  2  0
  2  6  1  0
  6  8  2  0
  8  7  1  0
  7  3  2  0
  3  1  1  0
M  END
$$$$
