No_5910-complexes_sdf/6BKW-FPZ/2024-09-17-14-21-01/
     RDKit          3D

 15 15  0  0  0  0  0  0  0  0999 V2000
   -7.2496    3.8871   27.4508 C   0  0  0  0  0  0  0  0  0  0  0  0
   -8.5096    4.0291   27.2770 C   0  0  0  0  0  0  0  0  0  0  0  0
   -9.3451    2.8786   26.9046 C   0  0  0  0  0  0  0  0  0  0  0  0
   -6.7783    2.5578   27.6995 C   0  0  0  0  0  0  0  0  0  0  0  0
   -7.4604    1.4534   27.3217 C   0  0  0  0  0  0  0  0  0  0  0  0
   -8.7932    1.6600   27.0104 C   0  0  0  0  0  0  0  0  0  0  0  0
   -9.0962    5.3948   27.1493 C   0  0  0  0  0  0  0  0  0  0  0  0
   -8.5237    6.2240   26.5881 F   0  0  0  0  0  0  0  0  0  0  0  0
   -9.3560    5.8668   28.5325 F   0  0  0  0  0  0  0  0  0  0  0  0
  -10.4152    5.2879   26.6430 F   0  0  0  0  0  0  0  0  0  0  0  0
   -6.8721    0.1587   27.3626 C   0  0  0  0  0  0  0  0  0  0  0  0
   -7.4839   -0.9390   27.4481 C   0  0  0  0  0  0  0  0  0  0  0  0
   -7.1888   -2.0279   27.6226 C   0  0  0  0  0  0  0  0  0  0  0  0
   -5.7341   -2.2957   27.6021 C   0  0  0  0  0  0  0  0  0  0  0  0
   -4.8735   -1.2371   27.4164 C   0  0  0  0  0  0  0  0  0  0  0  0
  2  7  1  0
  7  8  1  0
  7  9  1  0
  7 10  1  0
  5 11  1  0
 11 12  2  3
 12 13  1  0
 13 14  2  3
 14 15  1  0
  1  2  2  0
  2  3  1  0
  3  6  2  0
  6  5  1  0
  5  4  2  0
  4  1  1  0
M  END
$$$$
