No_5232-complexes_sdf/6BKW-FPZ/2024-09-17-14-21-01/
     RDKit          3D

 14 14  0  0  0  0  0  0  0  0999 V2000
   -7.9040    3.9820   27.1177 C   0  0  0  0  0  0  0  0  0  0  0  0
   -7.8663    4.8694   27.9238 C   0  0  0  0  0  0  0  0  0  0  0  0
   -9.0491    3.8523   26.2542 C   0  0  0  0  0  0  0  0  0  0  0  0
   -8.7661    5.9491   27.9690 C   0  0  0  0  0  0  0  0  0  0  0  0
   -9.9295    4.8502   26.2323 C   0  0  0  0  0  0  0  0  0  0  0  0
   -9.8077    5.9288   27.0933 C   0  0  0  0  0  0  0  0  0  0  0  0
   -8.9047    2.6822   25.3193 C   0  0  0  0  0  0  0  0  0  0  0  0
   -8.7201    1.4366   25.8842 C   0  0  2  0  0  0  0  0  0  0  0  0
   -7.9066    1.4436   26.7414 F   0  0  0  0  0  0  0  0  0  0  0  0
   -9.2757    0.3104   25.3019 C   0  0  0  0  0  0  0  0  0  0  0  0
   -9.4776   -0.7264   25.9905 C   0  0  0  0  0  0  0  0  0  0  0  0
  -10.0962   -1.9420   25.4798 C   0  0  0  0  0  0  0  0  0  0  0  0
  -10.3995   -1.9229   24.1542 C   0  0  0  0  0  0  0  0  0  0  0  0
  -10.1206   -0.8292   23.3331 C   0  0  0  0  0  0  0  0  0  0  0  0
  3  7  1  0
  7  8  1  0
  8  9  1  6
  8 10  1  0
 10 11  2  3
 11 12  1  0
 12 13  2  3
 13 14  1  0
  1  2  2  0
  2  4  1  0
  4  6  2  0
  6  5  1  0
  5  3  2  0
  3  1  1  0
M  END
$$$$
