No_5136-complexes_sdf/6BKW-FPZ/2024-09-17-14-21-01/
     RDKit          3D

 39 44  0  0  0  0  0  0  0  0999 V2000
   -7.9040    3.9820   27.1177 C   0  0  0  0  0  0  0  0  0  0  0  0
   -7.8663    4.8694   27.9238 C   0  0  0  0  0  0  0  0  0  0  0  0
   -7.4698    2.6989   27.4277 C   0  0  0  0  0  0  0  0  0  0  0  0
   -7.9683    1.5964   26.8266 C   0  0  1  0  0  0  0  0  0  0  0  0
   -8.9447    1.7923   25.8533 C   0  0  0  0  0  0  0  0  0  0  0  0
   -9.4405    2.9988   25.5757 C   0  0  1  0  0  0  0  0  0  0  0  0
   -8.9424    4.1117   26.2388 C   0  0  0  0  0  0  0  0  0  0  0  0
   -8.2732    6.2141   27.6484 N   0  0  0  0  0  0  0  0  0  0  0  0
   -9.1540    6.5068   26.6734 C   0  0  0  0  0  0  0  0  0  0  0  0
   -9.5312    5.3927   25.9147 C   0  0  0  0  0  0  0  0  0  0  0  0
   -7.3887    0.2740   27.0971 C   0  0  0  0  0  0  0  0  0  0  0  0
   -6.0711    0.1202   27.4872 C   0  0  0  0  0  0  0  0  0  0  0  0
   -5.5394   -1.0762   27.8371 C   0  0  0  0  0  0  0  0  0  0  0  0
   -6.3810   -2.1675   27.7631 C   0  0  0  0  0  0  0  0  0  0  0  0
   -8.0488   -0.9559   27.1319 C   0  0  0  0  0  0  0  0  0  0  0  0
   -7.6314   -2.0972   27.4468 C   0  0  0  0  0  0  0  0  0  0  0  0
   -4.1044   -1.1303   28.2682 C   0  0  0  0  0  0  0  0  0  0  0  0
   -3.2269   -0.1678   27.8566 C   0  0  0  0  0  0  0  0  0  0  0  0
   -3.1040    0.0967   26.5587 C   0  0  0  0  0  0  0  0  0  0  0  0
   -2.4448    1.2104   26.0971 O   0  0  0  0  0  0  0  0  0  0  0  0
   -3.6484   -0.6425   25.7003 O   0  0  0  0  0  0  0  0  0  0  0  0
  -10.3903    3.1036   24.4580 C   0  0  0  0  0  0  0  0  0  0  0  0
  -11.4873    3.8114   24.6083 C   0  0  0  0  0  0  0  0  0  0  0  0
  -10.0960    2.4697   23.2716 C   0  0  0  0  0  0  0  0  0  0  0  0
  -12.4498    3.8477   23.6010 C   0  0  0  0  0  0  0  0  0  0  0  0
  -10.9684    2.5312   22.2165 C   0  0  0  0  0  0  0  0  0  0  0  0
  -12.1399    3.2516   22.3573 C   0  0  0  0  0  0  0  0  0  0  0  0
   -4.0663   -1.0813   29.8894 C   0  0  0  0  0  0  0  0  0  0  0  0
   -3.3462   -1.5993   30.5907 C   0  0  0  0  0  0  0  0  0  0  0  0
   -3.2695   -1.4454   32.0511 C   0  0  0  0  0  0  0  0  0  0  0  0
   -4.3398   -0.7515   32.6592 C   0  0  0  0  0  0  0  0  0  0  0  0
   -5.3567   -0.2554   31.7822 C   0  0  0  0  0  0  0  0  0  0  0  0
   -5.2324   -0.3607   30.4774 C   0  0  0  0  0  0  0  0  0  0  0  0
   -3.5163   -2.5526   27.9587 C   0  0  0  0  0  0  0  0  0  0  0  0
   -3.1821   -2.8102   26.8881 C   0  0  0  0  0  0  0  0  0  0  0  0
   -2.8718   -3.4690   26.1669 C   0  0  0  0  0  0  0  0  0  0  0  0
   -2.4888   -4.7672   26.6677 C   0  0  0  0  0  0  0  0  0  0  0  0
   -2.6751   -4.8251   28.0756 C   0  0  0  0  0  0  0  0  0  0  0  0
   -3.2388   -3.6956   28.8152 C   0  0  0  0  0  0  0  0  0  0  0  0
  1  3  1  0
  3  4  1  0
  4  5  1  0
  5  6  1  0
  6  7  1  0
  4 11  1  6
 13 17  1  0
 17 18  1  0
 18 19  1  0
 19 20  1  0
 19 21  2  0
  6 22  1  6
 17 28  1  0
 17 34  1  0
  1  2  2  0
  2  8  1  0
  8  9  2  0
  9 10  1  0
 10  7  2  0
  7  1  1  0
 11 12  2  0
 12 13  1  0
 13 14  2  0
 14 16  1  0
 16 15  2  0
 15 11  1  0
 34 35  2  0
 35 36  1  0
 36 37  2  0
 37 38  1  0
 38 39  2  0
 39 34  1  0
 28 29  2  0
 29 30  1  0
 30 31  2  0
 31 32  1  0
 32 33  2  0
 33 28  1  0
 22 23  2  0
 23 25  1  0
 25 27  2  0
 27 26  1  0
 26 24  2  0
 24 22  1  0
M  END
$$$$
