No_535-complexes_sdf/6BKW-FPZ/2024-09-17-14-21-01/
     RDKit          3D

 20 22  0  0  0  0  0  0  0  0999 V2000
   -7.7129    4.2099   27.0854 C   0  0  0  0  0  0  0  0  0  0  0  0
   -8.9133    4.4736   27.0998 C   0  0  0  0  0  0  0  0  0  0  0  0
   -9.7135    3.9633   26.0300 C   0  0  0  0  0  0  0  0  0  0  0  0
   -7.1708    2.9509   26.6517 C   0  0  0  0  0  0  0  0  0  0  0  0
   -8.1422    2.1350   26.0104 C   0  0  0  0  0  0  0  0  0  0  0  0
   -9.3363    2.7131   25.6563 C   0  0  0  0  0  0  0  0  0  0  0  0
  -10.2574    1.9443   24.7747 C   0  0  0  0  0  0  0  0  0  0  0  0
   -9.7847    1.1006   23.9423 C   0  0  2  0  0  0  0  0  0  0  0  0
   -8.3312    0.8654   23.9501 C   0  0  0  0  0  0  0  0  0  0  0  0
   -7.7622    0.8413   25.5798 N   0  0  0  0  0  0  0  0  0  0  0  0
   -6.7650    4.9309   28.1367 C   0  0  0  0  0  0  0  0  0  0  0  0
   -7.2657   -0.1293   26.2050 C   0  0  0  0  0  0  0  0  0  0  0  0
   -6.0572   -0.5921   25.7608 C   0  0  0  0  0  0  0  0  0  0  0  0
   -8.2165   -1.1323   26.7090 C   0  0  0  0  0  0  0  0  0  0  0  0
   -7.8960   -2.2299   26.8197 C   0  0  0  0  0  0  0  0  0  0  0  0
   -5.5403   -1.9206   26.0577 C   0  0  0  0  0  0  0  0  0  0  0  0
   -6.4991   -2.7640   26.7288 C   0  0  0  0  0  0  0  0  0  0  0  0
  -10.4090    0.4631   22.8844 C   0  0  0  0  0  0  0  0  0  0  0  0
  -11.5869    0.4982   22.7529 C   0  0  0  0  0  0  0  0  0  0  0  0
  -12.1722   -0.2463   21.8263 C   0  0  0  0  0  0  0  0  0  0  0  0
  6  7  1  0
  8  9  1  6
  5 10  1  0
  9 10  1  0
  1 11  1  0
 10 12  1  0
  8 18  1  0
 18 19  2  3
 19 20  1  0
  7  8  1  0
  1  2  2  0
  2  3  1  0
  3  6  2  0
  6  5  1  0
  5  4  2  0
  4  1  1  0
 12 13  2  0
 13 16  1  0
 16 17  2  0
 17 15  1  0
 15 14  2  0
 14 12  1  0
M  END
$$$$
