No_585-complexes_sdf/6BKW-FPZ/2024-09-17-14-21-01/
     RDKit          3D

 27 30  0  0  0  0  0  0  0  0999 V2000
   -7.7129    4.2099   27.0854 C   0  0  0  0  0  0  0  0  0  0  0  0
   -8.2112    3.0637   26.9225 C   0  0  0  0  0  0  0  0  0  0  0  0
   -7.5138    1.9223   27.4249 C   0  0  0  0  0  0  0  0  0  0  0  0
   -8.5309    5.4147   26.8151 C   0  0  0  0  0  0  0  0  0  0  0  0
   -8.1184    6.7672   27.1362 C   0  0  0  0  0  0  0  0  0  0  0  0
   -6.1372    2.1405   27.7998 C   0  0  0  0  0  0  0  0  0  0  0  0
   -5.7091    3.4418   28.0019 C   0  0  0  0  0  0  0  0  0  0  0  0
   -6.4145    4.4584   27.7237 C   0  0  0  0  0  0  0  0  0  0  0  0
   -8.9085    7.8548   26.7633 C   0  0  0  0  0  0  0  0  0  0  0  0
   -5.3487    0.9616   28.2075 C   0  0  0  0  0  0  0  0  0  0  0  0
   -4.1621    1.1144   28.7186 N   0  0  0  0  0  0  0  0  0  0  0  0
   -5.8330   -0.2301   28.1359 O   0  0  0  0  0  0  0  0  0  0  0  0
   -9.6810    5.2687   26.0494 C   0  0  0  0  0  0  0  0  0  0  0  0
  -10.2724    4.0743   26.0114 C   0  0  0  0  0  0  0  0  0  0  0  0
   -9.5504    2.8764   26.3841 C   0  0  0  0  0  0  0  0  0  0  0  0
  -10.0491    1.5281   26.1285 C   0  0  0  0  0  0  0  0  0  0  0  0
  -11.0608    1.0962   26.9519 C   0  0  0  0  0  0  0  0  0  0  0  0
  -11.5052   -0.2641   26.9453 C   0  0  0  0  0  0  0  0  0  0  0  0
  -10.9238   -1.0770   25.9893 C   0  0  0  0  0  0  0  0  0  0  0  0
   -9.4440    0.6238   25.2764 C   0  0  0  0  0  0  0  0  0  0  0  0
   -9.8532   -0.6482   25.1883 C   0  0  0  0  0  0  0  0  0  0  0  0
   -3.2579    0.0283   29.1823 C   0  0  0  0  0  0  0  0  0  0  0  0
   -3.1366   -0.2009   30.2742 C   0  0  0  0  0  0  0  0  0  0  0  0
   -2.2732   -1.2837   30.7561 C   0  0  0  0  0  0  0  0  0  0  0  0
   -2.5237   -0.5378   28.1201 C   0  0  0  0  0  0  0  0  0  0  0  0
   -1.6115   -1.5435   28.4649 C   0  0  0  0  0  0  0  0  0  0  0  0
   -1.4869   -1.8988   29.8027 C   0  0  0  0  0  0  0  0  0  0  0  0
  5  9  1  0
  6 10  1  0
 10 11  1  0
 10 12  2  0
 15 16  1  0
 11 22  1  0
  5  4  1  0
  2 15  1  0
 15 14  2  0
 14 13  1  0
 13  4  2  0
  4  1  1  0
 22 23  2  0
 23 24  1  0
 24 27  2  0
 27 26  1  0
 26 25  2  0
 25 22  1  0
  1  2  1  0
  2  3  2  0
  3  6  1  0
  6  7  2  0
  7  8  1  0
  8  1  2  0
 16 17  2  0
 17 18  1  0
 18 19  2  0
 19 21  1  0
 21 20  2  0
 20 16  1  0
M  END
$$$$
