No_5501-complexes_sdf/6BKW-FPZ/2024-09-17-14-21-01/
     RDKit          3D

 32 35  0  0  0  0  0  0  0  0999 V2000
   -7.2496    3.8871   27.4508 C   0  0  0  0  0  0  0  0  0  0  0  0
   -7.6161    2.7143   27.1523 C   0  0  0  0  0  0  0  0  0  0  0  0
   -8.6212    2.2239   26.4073 C   0  0  0  0  0  0  0  0  0  0  0  0
   -8.2540    4.9237   27.1711 C   0  0  0  0  0  0  0  0  0  0  0  0
   -9.3709    4.6018   26.4511 C   0  0  0  0  0  0  0  0  0  0  0  0
   -9.5922    3.3274   26.0949 C   0  0  0  0  0  0  0  0  0  0  0  0
   -7.9166    6.3279   27.5748 C   0  0  0  0  0  0  0  0  0  0  0  0
  -10.7700    2.9797   25.2771 C   0  0  0  0  0  0  0  0  0  0  0  0
  -10.7768    3.4781   24.0130 C   0  0  0  0  0  0  0  0  0  0  0  0
  -11.6461    3.2405   23.0111 C   0  0  0  0  0  0  0  0  0  0  0  0
  -11.7925    2.2524   25.7163 C   0  0  0  0  0  0  0  0  0  0  0  0
  -11.8411    1.7546   27.0232 C   0  0  0  0  0  0  0  0  0  0  0  0
  -11.1888    2.2108   28.0334 C   0  0  0  0  0  0  0  0  0  0  0  0
  -12.5733    0.4527   27.1758 C   0  0  0  0  0  0  0  0  0  0  0  0
  -12.7297    1.8860   24.7092 C   0  0  0  0  0  0  0  0  0  0  0  0
  -12.7575    2.5026   23.4818 C   0  0  0  0  0  0  0  0  0  0  0  0
  -12.5469   -0.1390   28.3567 C   0  0  0  0  0  0  0  0  0  0  0  0
  -11.3646    1.6611   29.4680 C   0  0  0  0  0  0  0  0  0  0  0  0
  -12.0325    0.5125   29.5314 C   0  0  0  0  0  0  0  0  0  0  0  0
   -6.3504    1.4329   27.5916 Cl  0  0  0  0  0  0  0  0  0  0  0  0
   -8.0883    7.2052   26.8690 O   0  0  0  0  0  0  0  0  0  0  0  0
   -6.8290    6.3782   28.3996 O   0  0  0  0  0  0  0  0  0  0  0  0
  -11.6010    3.8913   21.7621 C   0  0  0  0  0  0  0  0  0  0  0  0
  -10.7539    3.2092   20.8474 C   0  0  0  0  0  0  0  0  0  0  0  0
  -10.4772    3.7566   19.6716 C   0  0  0  0  0  0  0  0  0  0  0  0
  -10.1458    1.9901   21.1317 C   0  0  0  0  0  0  0  0  0  0  0  0
  -10.7332    0.8760   21.4384 C   0  0  0  0  0  0  0  0  0  0  0  0
   -9.9353   -0.3132   21.6807 C   0  0  0  0  0  0  0  0  0  0  0  0
  -10.4927   -1.5913   21.6680 C   0  0  0  0  0  0  0  0  0  0  0  0
  -11.9082   -1.6104   21.5342 C   0  0  0  0  0  0  0  0  0  0  0  0
  -12.6722   -0.5469   21.2376 C   0  0  0  0  0  0  0  0  0  0  0  0
  -12.0544    0.7088   21.1730 C   0  0  0  0  0  0  0  0  0  0  0  0
  4  7  1  0
  6  8  1  0
 11 12  1  0
  2 20  1  0
  7 21  2  0
  7 22  1  0
 10 23  1  0
 23 24  1  0
 24 25  2  0
 24 26  1  0
 26 27  1  0
 12 13  2  0
 13 18  1  0
 18 19  2  0
 19 17  1  0
 17 14  2  0
 14 12  1  0
  8  9  2  0
  9 10  1  0
 10 16  2  0
 16 15  1  0
 15 11  2  0
 11  8  1  0
  1  2  2  0
  2  3  1  0
  3  6  2  0
  6  5  1  0
  5  4  2  0
  4  1  1  0
 27 28  2  0
 28 29  1  0
 29 30  2  0
 30 31  1  0
 31 32  2  0
 32 27  1  0
M  END
$$$$
