No_5544-complexes_sdf/6BKW-FPZ/2024-09-17-14-21-01/
     RDKit          3D

 13 14  0  0  0  0  0  0  0  0999 V2000
   -7.9040    3.9820   27.1177 C   0  0  0  0  0  0  0  0  0  0  0  0
   -9.0711    4.3164   27.0630 C   0  0  0  0  0  0  0  0  0  0  0  0
   -9.5294    5.4517   27.7215 C   0  0  0  0  0  0  0  0  0  0  0  0
   -9.9845    3.5634   26.2189 C   0  0  0  0  0  0  0  0  0  0  0  0
  -10.5758    2.5046   26.7628 C   0  0  0  0  0  0  0  0  0  0  0  0
  -10.4293    2.0903   27.9866 C   0  0  0  0  0  0  0  0  0  0  0  0
   -6.9363    4.6699   28.0290 C   0  0  0  0  0  0  0  0  0  0  0  0
   -7.4216    5.8088   28.6678 C   0  0  0  0  0  0  0  0  0  0  0  0
   -8.6786    6.2626   28.4411 C   0  0  0  0  0  0  0  0  0  0  0  0
  -11.4640    1.6495   25.9033 C   0  0  0  0  0  0  0  0  0  0  0  0
  -11.5698    1.9848   24.6627 C   0  0  0  0  0  0  0  0  0  0  0  0
  -10.9184    3.1996   24.1095 C   0  0  0  0  0  0  0  0  0  0  0  0
  -10.1119    3.9957   24.9015 C   0  0  0  0  0  0  0  0  0  0  0  0
  2  4  1  0
  6  5  1  0
  4  5  2  0
  5 10  1  0
 10 11  2  0
 11 12  1  0
 12 13  2  0
 13  4  1  0
  1  2  2  0
  2  3  1  0
  3  9  2  0
  9  8  1  0
  8  7  2  0
  7  1  1  0
M  END
$$$$
