No_5350-complexes_sdf/6BKW-FPZ/2024-09-17-14-21-01/
     RDKit          3D

 27 30  0  0  0  0  0  0  0  0999 V2000
   -7.9040    3.9820   27.1177 C   0  0  0  0  0  0  0  0  0  0  0  0
   -7.8663    4.8694   27.9238 C   0  0  0  0  0  0  0  0  0  0  0  0
   -9.0501    3.8017   26.2617 C   0  0  0  0  0  0  0  0  0  0  0  0
  -10.0189    4.7608   26.3707 C   0  0  0  0  0  0  0  0  0  0  0  0
   -8.6973    5.9722   27.8968 C   0  0  0  0  0  0  0  0  0  0  0  0
   -9.8216    5.8946   27.1241 C   0  0  0  0  0  0  0  0  0  0  0  0
   -9.1437    2.6293   25.4175 C   0  0  0  0  0  0  0  0  0  0  0  0
   -8.6170    1.4258   25.8177 C   0  0  0  0  0  0  0  0  0  0  0  0
   -8.6844    0.3194   24.9788 C   0  0  0  0  0  0  0  0  0  0  0  0
   -9.3359    0.4939   23.7289 C   0  0  0  0  0  0  0  0  0  0  0  0
   -9.8521    1.7195   23.3158 C   0  0  0  0  0  0  0  0  0  0  0  0
   -9.7240    2.7821   24.1593 C   0  0  0  0  0  0  0  0  0  0  0  0
   -9.4432   -0.5686   22.8726 F   0  0  0  0  0  0  0  0  0  0  0  0
  -10.4659    1.8348   21.9886 C   0  0  0  0  0  0  0  0  0  0  0  0
  -10.3146    2.9608   21.4283 N   0  0  0  0  0  0  0  0  0  0  0  0
  -11.2776    3.9352   21.4884 C   0  0  2  0  0  0  0  0  0  0  0  0
  -11.4155    4.6170   22.7655 C   0  0  0  0  0  0  0  0  0  0  0  0
   -9.2949    3.2354   20.4252 C   0  0  0  0  0  0  0  0  0  0  0  0
  -12.5787    3.4099   20.9584 C   0  0  0  0  0  0  0  0  0  0  0  0
  -10.6799    4.8727   20.3527 C   0  0  1  0  0  0  0  0  0  0  0  0
  -11.3185    5.9811   20.3029 F   0  0  0  0  0  0  0  0  0  0  0  0
   -9.7012    4.3666   19.8023 N   0  0  0  0  0  0  0  0  0  0  0  0
  -13.6174    3.6578   21.0923 C   0  0  0  0  0  0  0  0  0  0  0  0
  -14.8141    3.1304   20.5798 C   0  0  0  0  0  0  0  0  0  0  0  0
  -14.6193    2.0273   19.7654 C   0  0  0  0  0  0  0  0  0  0  0  0
  -13.3271    1.5411   19.5141 C   0  0  0  0  0  0  0  0  0  0  0  0
  -12.3008    2.2461   20.0799 C   0  0  0  0  0  0  0  0  0  0  0  0
  3  7  1  0
 10 13  1  0
 11 14  1  0
 14 15  1  0
 15 16  1  0
 16 17  1  1
 15 18  1  0
 16 19  1  0
 16 20  1  0
 20 21  1  1
 18 22  1  0
 20 22  1  0
 19 23  2  0
 23 24  1  0
 24 25  2  0
 25 26  1  0
 26 27  2  0
 27 19  1  0
  1  2  2  0
  2  5  1  0
  5  6  2  0
  6  4  1  0
  4  3  2  0
  3  1  1  0
  7  8  2  0
  8  9  1  0
  9 10  2  0
 10 11  1  0
 11 12  2  0
 12  7  1  0
M  END
$$$$
