No_5825-complexes_sdf/6BKW-FPZ/2024-09-17-14-21-01/
     RDKit          3D

 14 15  0  0  0  0  0  0  0  0999 V2000
   -7.7129    4.2099   27.0854 C   0  0  0  0  0  0  0  0  0  0  0  0
   -7.7814    5.1722   27.8972 C   0  0  0  0  0  0  0  0  0  0  0  0
   -8.8776    3.8408   26.3416 C   0  0  0  0  0  0  0  0  0  0  0  0
   -9.9844    4.6492   26.4743 C   0  0  0  0  0  0  0  0  0  0  0  0
   -8.8033    6.1375   27.8728 C   0  0  0  0  0  0  0  0  0  0  0  0
   -9.9554    5.8280   27.1737 C   0  0  0  0  0  0  0  0  0  0  0  0
   -8.8651    2.7495   25.6146 F   0  0  0  0  0  0  0  0  0  0  0  0
  -11.0695    4.3570   25.6982 O   0  0  0  0  0  0  0  0  0  0  0  0
  -11.0078    4.3222   24.3409 C   0  0  0  0  0  0  0  0  0  0  0  0
  -12.2012    3.9799   23.6580 C   0  0  0  0  0  0  0  0  0  0  0  0
  -12.1466    4.0693   22.2911 C   0  0  0  0  0  0  0  0  0  0  0  0
  -10.9611    3.8997   21.7657 C   0  0  0  0  0  0  0  0  0  0  0  0
   -9.7153    3.9700   22.3760 C   0  0  0  0  0  0  0  0  0  0  0  0
   -9.7489    4.2130   23.7572 C   0  0  0  0  0  0  0  0  0  0  0  0
  3  7  1  0
  4  8  1  0
  8  9  1  0
  9 10  2  0
 10 11  1  0
 11 12  2  0
 12 13  1  0
 13 14  2  0
 14  9  1  0
  1  2  2  0
  2  5  1  0
  5  6  2  0
  6  4  1  0
  4  3  2  0
  3  1  1  0
M  END
$$$$
