No_5590-complexes_sdf/6BKW-FPZ/2024-09-17-14-21-01/
     RDKit          3D

 18 20  0  0  0  0  0  0  0  0999 V2000
   -7.2496    3.8871   27.4508 C   0  0  0  0  0  0  0  0  0  0  0  0
   -7.6161    2.7143   27.1523 C   0  0  0  0  0  0  0  0  0  0  0  0
   -6.9719    1.5838   27.5324 C   0  0  0  0  0  0  0  0  0  0  0  0
   -7.4590    0.2827   27.2615 C   0  0  0  0  0  0  0  0  0  0  0  0
   -8.6787    2.5578   26.1663 C   0  0  0  0  0  0  0  0  0  0  0  0
   -9.4717    3.6665   25.8354 C   0  0  0  0  0  0  0  0  0  0  0  0
   -8.0188    5.1137   27.1696 C   0  0  0  0  0  0  0  0  0  0  0  0
   -7.6555    6.4410   27.7373 C   0  0  0  0  0  0  0  0  0  0  0  0
   -9.1179    5.0473   26.3098 C   0  0  0  0  0  0  0  0  0  0  0  0
   -8.5826    0.1480   26.5289 C   0  0  0  0  0  0  0  0  0  0  0  0
   -9.2493    1.3096   25.8769 C   0  0  0  0  0  0  0  0  0  0  0  0
   -8.3593    7.5010   27.3054 N   0  0  0  0  0  0  0  0  0  0  0  0
   -6.8048   -0.8779   27.8680 C   0  0  0  0  0  0  0  0  0  0  0  0
   -6.2178   -1.7071   27.2304 C   0  0  0  0  0  0  0  0  0  0  0  0
   -5.5402   -2.7714   27.8205 C   0  0  0  0  0  0  0  0  0  0  0  0
   -5.4869   -2.8697   29.2256 C   0  0  0  0  0  0  0  0  0  0  0  0
   -6.1672   -1.9079   30.0033 C   0  0  0  0  0  0  0  0  0  0  0  0
   -6.7866   -0.8582   29.3516 C   0  0  0  0  0  0  0  0  0  0  0  0
  7  8  1  0
  8 12  2  0
  4 13  1  0
 13 14  2  0
 14 15  1  0
 15 16  2  0
 16 17  1  0
 17 18  2  0
 18 13  1  0
  1  2  2  0
  5  6  2  0
  6  9  1  0
  9  7  2  0
  7  1  1  0
  2  3  1  0
  3  4  2  0
  4 10  1  0
 10 11  2  0
 11  5  1  0
  5  2  1  0
M  END
$$$$
