No_5930-complexes_sdf/6BKW-FPZ/2024-09-17-14-21-01/
     RDKit          3D

 27 29  0  0  0  0  0  0  0  0999 V2000
   -7.7129    4.2099   27.0854 C   0  0  0  0  0  0  0  0  0  0  0  0
   -7.7814    5.1722   27.8972 C   0  0  0  0  0  0  0  0  0  0  0  0
   -8.8776    3.8408   26.3416 C   0  0  0  0  0  0  0  0  0  0  0  0
   -9.9844    4.6492   26.4743 C   0  0  0  0  0  0  0  0  0  0  0  0
   -8.8033    6.1375   27.8728 C   0  0  0  0  0  0  0  0  0  0  0  0
   -9.9554    5.8280   27.1737 C   0  0  0  0  0  0  0  0  0  0  0  0
   -8.8740    2.6184   25.5584 C   0  0  0  0  0  0  0  0  0  0  0  0
   -9.7481    2.4811   24.4970 C   0  0  0  0  0  0  0  0  0  0  0  0
   -9.7537    1.3389   23.7601 C   0  0  0  0  0  0  0  0  0  0  0  0
   -8.7872    0.3087   24.0451 C   0  0  0  0  0  0  0  0  0  0  0  0
   -7.9652    0.4384   25.1261 C   0  0  0  0  0  0  0  0  0  0  0  0
   -7.9663    1.5885   25.9116 C   0  0  0  0  0  0  0  0  0  0  0  0
   -8.7801   -0.9091   23.2103 C   0  0  0  0  0  0  0  0  0  0  0  0
   -9.4990   -1.9666   23.6916 C   0  0  0  0  0  0  0  0  0  0  0  0
   -9.4516   -3.0956   23.0159 C   0  0  0  0  0  0  0  0  0  0  0  0
   -8.8745   -3.2233   22.0673 C   0  0  0  0  0  0  0  0  0  0  0  0
   -8.0624   -2.2417   21.3586 C   0  0  0  0  0  0  0  0  0  0  0  0
   -7.9948   -0.9776   22.0175 C   0  0  0  0  0  0  0  0  0  0  0  0
   -7.0423   -0.6537   25.4917 C   0  0  0  0  0  0  0  0  0  0  0  0
   -6.3152   -0.5489   26.3151 O   0  0  0  0  0  0  0  0  0  0  0  0
   -6.7528   -1.5886   24.5653 O   0  0  0  0  0  0  0  0  0  0  0  0
   -5.6893   -2.4671   25.0427 C   0  0  0  0  0  0  0  0  0  0  0  0
   -5.3705   -3.3723   24.3371 C   0  0  0  0  0  0  0  0  0  0  0  0
   -5.7161   -4.3383   24.3317 O   0  0  0  0  0  0  0  0  0  0  0  0
   -4.9136   -2.8778   23.0544 O   0  0  0  0  0  0  0  0  0  0  0  0
  -10.5344    1.1914   22.7489 F   0  0  0  0  0  0  0  0  0  0  0  0
   -6.6661    5.6094   28.6113 O   0  0  0  0  0  0  0  0  0  0  0  0
  3  7  1  0
 10 13  1  0
 11 19  1  0
 19 20  2  0
 19 21  1  0
 21 22  1  0
 22 23  1  0
 23 24  1  0
 23 25  2  0
  9 26  1  0
  2 27  1  0
 13 14  2  0
 14 15  1  0
 15 16  2  0
 16 17  1  0
 17 18  2  0
 18 13  1  0
  1  2  2  0
  2  5  1  0
  5  6  2  0
  6  4  1  0
  4  3  2  0
  3  1  1  0
  7  8  2  0
  8  9  1  0
  9 10  2  0
 10 11  1  0
 11 12  2  0
 12  7  1  0
M  END
$$$$
