No_5626-complexes_sdf/6BKW-FPZ/2024-09-17-14-21-01/
     RDKit          3D

 40 46  0  0  0  0  0  0  0  0999 V2000
   -7.2496    3.8871   27.4508 C   0  0  0  0  0  0  0  0  0  0  0  0
   -7.6161    2.7143   27.1523 C   0  0  0  0  0  0  0  0  0  0  0  0
   -8.6212    2.2239   26.4073 C   0  0  0  0  0  0  0  0  0  0  0  0
   -8.2540    4.9237   27.1711 C   0  0  0  0  0  0  0  0  0  0  0  0
   -8.0299    6.2902   27.5026 C   0  0  0  0  0  0  0  0  0  0  0  0
   -9.3752    4.6359   26.4536 C   0  0  0  0  0  0  0  0  0  0  0  0
   -9.6012    3.2991   26.1124 C   0  0  0  0  0  0  0  0  0  0  0  0
   -8.8739    7.3551   27.0512 C   0  0  0  0  0  0  0  0  0  0  0  0
   -6.4377    1.6809   27.6045 C   0  0  0  0  0  0  0  0  0  0  0  0
   -5.2363    2.0916   28.1273 C   0  0  0  0  0  0  0  0  0  0  0  0
   -4.2806    1.1404   28.5138 C   0  0  0  0  0  0  0  0  0  0  0  0
   -4.6137   -0.1991   28.5350 C   0  0  0  0  0  0  0  0  0  0  0  0
   -6.5771    0.2713   27.8324 C   0  0  0  0  0  0  0  0  0  0  0  0
   -3.6661   -1.1720   29.0919 C   0  0  0  0  0  0  0  0  0  0  0  0
   -5.8493   -0.5897   28.2258 C   0  0  0  0  0  0  0  0  0  0  0  0
   -3.7498   -2.1560   29.2762 C   0  0  0  0  0  0  0  0  0  0  0  0
   -2.7076   -3.1196   29.8022 C   0  0  0  0  0  0  0  0  0  0  0  0
   -1.4382   -2.6104   30.0345 C   0  0  0  0  0  0  0  0  0  0  0  0
   -1.2030   -1.2596   29.7272 C   0  0  0  0  0  0  0  0  0  0  0  0
   -2.1998   -0.4845   29.2997 C   0  0  0  0  0  0  0  0  0  0  0  0
  -10.7447    2.8963   25.2893 C   0  0  0  0  0  0  0  0  0  0  0  0
  -11.9096    2.5946   25.9357 C   0  0  0  0  0  0  0  0  0  0  0  0
  -10.9248    3.7675   24.1007 C   0  0  0  0  0  0  0  0  0  0  0  0
  -12.0247    3.7097   23.3125 C   0  0  0  0  0  0  0  0  0  0  0  0
  -13.1174    2.4053   25.1278 C   0  0  0  0  0  0  0  0  0  0  0  0
  -13.2530    3.2711   23.9615 C   0  0  0  0  0  0  0  0  0  0  0  0
  -11.9162    1.9371   27.2162 C   0  0  0  0  0  0  0  0  0  0  0  0
  -11.1700    1.4520   27.8567 C   0  0  0  0  0  0  0  0  0  0  0  0
  -11.2821    0.8070   29.2256 C   0  0  0  0  0  0  0  0  0  0  0  0
  -11.0353   -0.3525   29.2985 C   0  0  0  0  0  0  0  0  0  0  0  0
  -10.1791   -1.1116   28.3165 C   0  0  0  0  0  0  0  0  0  0  0  0
   -9.6500   -2.3029   28.6612 C   0  0  0  0  0  0  0  0  0  0  0  0
   -8.7422   -2.9261   27.7714 C   0  0  0  0  0  0  0  0  0  0  0  0
   -8.7235   -2.4816   26.4669 C   0  0  0  0  0  0  0  0  0  0  0  0
   -9.4536   -1.3885   26.0513 C   0  0  0  0  0  0  0  0  0  0  0  0
  -10.2133   -0.6853   27.0278 C   0  0  0  0  0  0  0  0  0  0  0  0
  -10.0803    0.5590   27.1526 C   0  0  0  0  0  0  0  0  0  0  0  0
   -9.2441    1.3895   26.4153 N   0  0  0  0  0  0  0  0  0  0  0  0
   -7.9158   -3.2451   25.4904 C   0  0  0  0  0  0  0  0  0  0  0  0
   -6.9464   -3.8228   25.8207 N   0  0  0  0  0  0  0  0  0  0  0  0
  4  5  1  0
  5  8  2  0
  2  9  1  0
 12 14  1  0
  7 21  1  0
 22 27  1  0
  3 38  1  0
 37 38  1  0
 34 39  1  0
 39 40  1  0
 27 28  1  0
 28 29  2  0
 29 30  1  0
 30 31  2  0
 36 37  2  0
 37 28  1  0
 31 32  1  0
 32 33  2  0
 33 34  1  0
 34 35  2  0
 35 36  1  0
 36 31  1  0
 14 16  2  0
 16 17  1  0
 17 18  2  0
 18 19  1  0
 19 20  2  0
 20 14  1  0
 21 22  2  0
 22 25  1  0
 25 26  2  0
 26 24  1  0
 24 23  2  0
 23 21  1  0
  1  2  2  0
  2  3  1  0
  3  7  2  0
  7  6  1  0
  6  4  2  0
  4  1  1  0
  9 10  2  0
 10 11  1  0
 11 12  2  0
 12 15  1  0
 15 13  2  0
 13  9  1  0
M  END
$$$$
