No_559-complexes_sdf/6BKW-FPZ/2024-09-17-14-21-01/
     RDKit          3D

 27 29  0  0  0  0  0  0  0  0999 V2000
   -7.9040    3.9820   27.1177 C   0  0  0  0  0  0  0  0  0  0  0  0
   -8.2057    2.8231   26.8733 C   0  0  0  0  0  0  0  0  0  0  0  0
   -8.7695    5.0740   26.7916 C   0  0  0  0  0  0  0  0  0  0  0  0
   -9.9618    4.7598   26.1630 C   0  0  0  0  0  0  0  0  0  0  0  0
   -9.4200    2.4524   26.2849 C   0  0  0  0  0  0  0  0  0  0  0  0
  -10.2590    3.4815   25.9250 C   0  0  0  0  0  0  0  0  0  0  0  0
   -8.3840    6.4693   27.0829 C   0  0  0  0  0  0  0  0  0  0  0  0
   -7.7453    6.8270   28.1334 N   0  0  0  0  0  0  0  0  0  0  0  0
   -8.7460    7.4416   26.2544 N   0  0  0  0  0  0  0  0  0  0  0  0
   -7.2775    1.6721   27.2767 C   0  0  0  0  0  0  0  0  0  0  0  0
   -6.0300    1.9882   27.8522 C   0  0  0  0  0  0  0  0  0  0  0  0
   -5.1200    0.9181   28.1951 C   0  0  0  0  0  0  0  0  0  0  0  0
   -5.4924   -0.3752   28.0440 C   0  0  0  0  0  0  0  0  0  0  0  0
   -7.3865    0.2847   27.1818 C   0  0  0  0  0  0  0  0  0  0  0  0
   -8.7665   -0.0050   26.6030 C   0  0  0  0  0  0  0  0  0  0  0  0
   -6.6456   -0.6543   27.5938 C   0  0  0  0  0  0  0  0  0  0  0  0
   -9.6547    1.0266   26.1214 C   0  0  0  0  0  0  0  0  0  0  0  0
   -3.9036    1.3807   28.7513 O   0  0  0  0  0  0  0  0  0  0  0  0
   -9.2236   -1.3769   26.4294 C   0  0  1  0  0  0  0  0  0  0  0  0
   -8.9944   -2.0554   25.5695 N   0  0  0  0  0  0  0  0  0  0  0  0
   -9.0020   -3.2763   25.4169 C   0  0  0  0  0  0  0  0  0  0  0  0
   -9.7857   -1.7980   27.5263 F   0  0  0  0  0  0  0  0  0  0  0  0
   -9.4288   -4.0737   26.0536 C   0  0  0  0  0  0  0  0  0  0  0  0
   -9.4066   -5.5525   25.8525 C   0  0  0  0  0  0  0  0  0  0  0  0
   -8.8026   -5.9117   24.6753 C   0  0  0  0  0  0  0  0  0  0  0  0
   -8.2686   -5.0214   23.8106 C   0  0  0  0  0  0  0  0  0  0  0  0
   -8.2826   -3.6683   24.0962 C   0  0  0  0  0  0  0  0  0  0  0  0
  3  7  1  0
  7  8  2  0
  7  9  1  0
 12 18  1  0
 15 19  1  0
 19 20  1  0
 20 21  1  0
 19 22  1  1
 21 23  2  3
 23 24  1  0
 24 25  2  3
 25 26  1  0
 26 27  2  0
  5 17  1  0
 17 15  2  0
 15 14  1  0
 10  2  1  0
 10 11  2  0
 11 12  1  0
 12 13  2  0
 13 16  1  0
 16 14  2  0
 14 10  1  0
  1  2  2  0
  2  5  1  0
  5  6  2  0
  6  4  1  0
  4  3  2  0
  3  1  1  0
M  END
$$$$
