No_5419-complexes_sdf/6BKW-FPZ/2024-09-17-14-21-01/
     RDKit          3D

 11 12  0  0  0  0  0  0  0  0999 V2000
   -7.9040    3.9820   27.1177 C   0  0  0  0  0  0  0  0  0  0  0  0
   -8.2057    2.8231   26.8733 C   0  0  0  0  0  0  0  0  0  0  0  0
   -7.0130    4.3706   28.1140 C   0  0  0  0  0  0  0  0  0  0  0  0
   -9.4741    2.4344   26.3718 C   0  0  0  0  0  0  0  0  0  0  0  0
  -10.2665    3.4433   25.8839 C   0  0  0  0  0  0  0  0  0  0  0  0
   -9.8885    4.7893   26.0401 C   0  0  0  0  0  0  0  0  0  0  0  0
   -8.7136    5.0617   26.7279 C   0  0  0  0  0  0  0  0  0  0  0  0
   -8.2062    6.3696   27.1163 C   0  0  0  0  0  0  0  0  0  0  0  0
   -8.7991    7.4859   26.6961 N   0  0  0  0  0  0  0  0  0  0  0  0
   -7.1314    6.3530   27.9194 N   0  0  0  0  0  0  0  0  0  0  0  0
   -6.5827    5.5436   28.4160 N   0  0  0  0  0  0  0  0  0  0  0  0
  8  9  1  0
  1  3  1  0
  3 11  2  0
 11 10  1  0
 10  8  2  0
  8  7  1  0
  1  2  2  0
  2  4  1  0
  4  5  2  0
  5  6  1  0
  6  7  2  0
  7  1  1  0
M  END
$$$$
