No_5161-complexes_sdf/6BKW-FPZ/2024-09-17-14-21-01/
     RDKit          3D

 13 14  0  0  0  0  0  0  0  0999 V2000
   -7.2496    3.8871   27.4508 C   0  0  0  0  0  0  0  0  0  0  0  0
   -8.5096    4.0291   27.2770 C   0  0  0  0  0  0  0  0  0  0  0  0
   -9.3502    2.8685   26.8763 C   0  0  0  0  0  0  0  0  0  0  0  0
   -6.4573    5.0085   27.9854 C   0  0  0  0  0  0  0  0  0  0  0  0
   -9.0329    5.3340   27.4341 C   0  0  0  0  0  0  0  0  0  0  0  0
  -10.4892    5.5118   27.1591 C   0  0  0  0  0  0  0  0  0  0  0  0
   -8.8739    1.7611   26.6527 C   0  0  0  0  0  0  0  0  0  0  0  0
   -8.3334    6.4508   27.7808 C   0  0  0  0  0  0  0  0  0  0  0  0
   -7.0009    6.2462   28.0517 C   0  0  0  0  0  0  0  0  0  0  0  0
   -9.5842    0.6503   26.1852 C   0  0  0  0  0  0  0  0  0  0  0  0
  -10.8975    0.8812   25.9220 C   0  0  0  0  0  0  0  0  0  0  0  0
  -11.4828    2.1067   26.1390 C   0  0  0  0  0  0  0  0  0  0  0  0
  -10.7158    3.1707   26.5841 C   0  0  0  0  0  0  0  0  0  0  0  0
  2  3  1  0
  5  6  1  0
  3  7  2  0
  7 10  1  0
 10 11  2  0
 11 12  1  0
 12 13  2  0
 13  3  1  0
  1  2  2  0
  2  5  1  0
  5  8  2  0
  8  9  1  0
  9  4  2  0
  4  1  1  0
M  END
$$$$
