No_501-complexes_sdf/6BKW-FPZ/2024-09-17-14-21-01/
     RDKit          3D

 33 37  0  0  0  0  0  0  0  0999 V2000
   -7.9040    3.9820   27.1177 C   0  0  0  0  0  0  0  0  0  0  0  0
   -7.8663    4.8694   27.9238 C   0  0  0  0  0  0  0  0  0  0  0  0
   -9.0806    3.1428   27.1220 C   0  0  2  0  0  0  0  0  0  0  0  0
  -10.1072    3.3606   27.8219 C   0  0  2  0  0  0  0  0  0  0  0  0
   -8.9996    5.7432   28.2415 C   0  0  0  0  0  0  0  0  0  0  0  0
  -11.3571    2.6165   27.9398 C   0  0  0  0  0  0  0  0  0  0  0  0
  -10.1794    4.7444   28.4804 C   0  0  0  0  0  0  0  0  0  0  0  0
  -11.1574    1.2716   28.1091 C   0  0  0  0  0  0  0  0  0  0  0  0
  -12.5862    3.1984   28.0578 C   0  0  0  0  0  0  0  0  0  0  0  0
  -13.7102    2.5271   28.1668 C   0  0  0  0  0  0  0  0  0  0  0  0
  -12.3505    0.4723   28.2889 C   0  0  0  0  0  0  0  0  0  0  0  0
  -13.5762    1.0933   28.3488 C   0  0  0  0  0  0  0  0  0  0  0  0
   -8.8993    1.8678   26.6765 F   0  0  0  0  0  0  0  0  0  0  0  0
  -12.2033   -1.0042   28.3942 C   0  0  1  0  0  0  0  0  0  0  0  0
  -12.7816   -1.5473   29.2262 C   0  0  0  0  0  0  0  0  0  0  0  0
  -12.2691   -1.6209   27.0329 C   0  0  0  0  0  0  0  0  0  0  0  0
  -11.4119   -1.3293   26.0625 C   0  0  0  0  0  0  0  0  0  0  0  0
  -11.5403   -1.8463   24.7997 C   0  0  0  0  0  0  0  0  0  0  0  0
  -10.6593   -1.4040   23.8092 C   0  0  0  0  0  0  0  0  0  0  0  0
  -10.7724   -1.6682   22.5153 C   0  0  0  0  0  0  0  0  0  0  0  0
   -9.5314   -0.4883   24.2370 C   0  0  0  0  0  0  0  0  0  0  0  0
   -9.2054   -0.2391   25.5062 C   0  0  0  0  0  0  0  0  0  0  0  0
  -10.1154   -0.5847   26.3694 C   0  0  0  0  0  0  0  0  0  0  0  0
  -13.3500   -2.4415   26.8772 C   0  0  0  0  0  0  0  0  0  0  0  0
  -13.6534   -2.9807   25.6210 C   0  0  0  0  0  0  0  0  0  0  0  0
  -12.6637   -2.5704   24.5097 C   0  0  0  0  0  0  0  0  0  0  0  0
  -12.3080   -1.3914   30.6845 C   0  0  0  0  0  0  0  0  0  0  0  0
  -12.8696   -1.9840   31.7829 C   0  0  0  0  0  0  0  0  0  0  0  0
  -12.3274   -1.7721   33.0220 C   0  0  0  0  0  0  0  0  0  0  0  0
  -12.3109   -2.6419   34.0222 C   0  0  0  0  0  0  0  0  0  0  0  0
  -13.8676   -2.5054   29.1570 C   0  0  0  0  0  0  0  0  0  0  0  0
  -14.5508   -3.0997   30.2329 C   0  0  0  0  0  0  0  0  0  0  0  0
  -13.9223   -2.8526   31.5566 C   0  0  0  0  0  0  0  0  0  0  0  0
  1  2  1  0
  1  3  1  0
  3  4  1  0
  2  5  1  0
  4  6  1  6
  4  7  1  0
  5  7  1  0
  3 13  1  1
 14 11  1  6
 14 15  1  0
 14 16  1  0
 28 29  1  0
 29 30  2  0
 20 19  1  0
 16 17  1  0
 18 26  1  0
 26 25  2  0
 25 24  1  0
 24 16  2  0
 15 27  2  0
 27 28  1  0
 28 33  2  0
 33 32  1  0
 32 31  2  0
 31 15  1  0
  6  8  2  0
  8 11  1  0
 11 12  2  0
 12 10  1  0
 10  9  2  0
  9  6  1  0
 17 18  1  0
 18 19  2  0
 19 21  1  0
 21 22  2  0
 22 23  1  0
 23 17  2  0
M  END
$$$$
