No_5623-complexes_sdf/6BKW-FPZ/2024-09-17-14-21-01/
     RDKit          3D

 35 39  0  0  0  0  0  0  0  0999 V2000
   -7.9040    3.9820   27.1177 C   0  0  0  0  0  0  0  0  0  0  0  0
   -7.8663    4.8694   27.9238 C   0  0  0  0  0  0  0  0  0  0  0  0
   -7.4698    2.6989   27.4277 C   0  0  0  0  0  0  0  0  0  0  0  0
   -7.9683    1.5964   26.8266 C   0  0  0  0  0  0  0  0  0  0  0  0
   -8.9447    1.7923   25.8533 C   0  0  0  0  0  0  0  0  0  0  0  0
   -9.4405    2.9988   25.5757 C   0  0  0  0  0  0  0  0  0  0  0  0
   -8.9424    4.1117   26.2388 C   0  0  0  0  0  0  0  0  0  0  0  0
   -8.0991    6.0941   27.8047 N   0  0  0  0  0  0  0  0  0  0  0  0
   -7.4449    0.2821   27.0799 C   0  0  0  0  0  0  0  0  0  0  0  0
   -6.2202    0.1384   27.6901 C   0  0  0  0  0  0  0  0  0  0  0  0
   -5.6203   -1.0687   27.9256 C   0  0  0  0  0  0  0  0  0  0  0  0
   -6.3747   -2.1805   27.6413 C   0  0  0  0  0  0  0  0  0  0  0  0
   -7.9329   -0.9938   26.8951 C   0  0  0  0  0  0  0  0  0  0  0  0
   -7.5362   -2.1265   27.1537 C   0  0  0  0  0  0  0  0  0  0  0  0
   -9.4558    5.3983   25.9705 C   0  0  0  0  0  0  0  0  0  0  0  0
   -8.9466    6.4563   26.8073 C   0  0  0  0  0  0  0  0  0  0  0  0
   -4.2535   -1.0733   28.5967 C   0  0  0  0  0  0  0  0  0  0  0  0
   -4.1189   -0.7705   29.9139 C   0  0  0  0  0  0  0  0  0  0  0  0
   -2.9226   -0.5050   30.5186 C   0  0  0  0  0  0  0  0  0  0  0  0
   -1.7670   -0.7053   29.7424 C   0  0  0  0  0  0  0  0  0  0  0  0
   -3.0865   -1.0690   27.8078 C   0  0  0  0  0  0  0  0  0  0  0  0
   -1.8464   -0.9224   28.3594 C   0  0  0  0  0  0  0  0  0  0  0  0
   -3.1680   -1.2986   26.3614 C   0  0  0  0  0  0  0  0  0  0  0  0
   -2.8093   -0.1998   32.2288 Cl  0  0  0  0  0  0  0  0  0  0  0  0
   -3.3488   -0.2249   25.6673 F   0  0  0  0  0  0  0  0  0  0  0  0
   -1.9176   -1.7901   25.8986 F   0  0  0  0  0  0  0  0  0  0  0  0
   -4.0129   -2.2631   25.9514 F   0  0  0  0  0  0  0  0  0  0  0  0
  -10.3911    3.1514   24.4674 C   0  0  0  0  0  0  0  0  0  0  0  0
  -10.4829    2.3662   23.4852 C   0  0  0  0  0  0  0  0  0  0  0  0
  -11.3587    2.5280   22.3921 C   0  0  0  0  0  0  0  0  0  0  0  0
  -12.0838    3.7293   22.3279 C   0  0  0  0  0  0  0  0  0  0  0  0
  -11.9333    4.6575   23.3286 C   0  0  0  0  0  0  0  0  0  0  0  0
  -11.1121    4.4651   24.3780 C   0  0  0  0  0  0  0  0  0  0  0  0
  -10.5997    5.5389   25.2593 C   0  0  0  0  0  0  0  0  0  0  0  0
  -11.5037    2.7088   25.0928 O   0  0  0  0  0  0  0  0  0  0  0  0
  4  9  1  0
 11 17  1  0
 21 23  1  0
 19 24  1  0
 23 25  1  0
 23 26  1  0
 23 27  1  0
  6 28  1  0
 28 29  2  3
 29 30  1  0
 30 31  2  3
 31 32  1  0
 32 33  2  3
 15 34  1  0
 33 34  1  0
 28 35  1  0
  1  2  2  0
  2  8  1  0
  8 16  2  0
 16 15  1  0
 15  7  2  0
 17 18  2  0
 18 19  1  0
 19 20  2  0
 20 22  1  0
 22 21  2  0
 21 17  1  0
  9 10  2  0
 10 11  1  0
 11 12  2  0
 12 14  1  0
 14 13  2  0
 13  9  1  0
  1  3  1  0
  3  4  2  0
  4  5  1  0
  5  6  2  0
  6  7  1  0
  7  1  1  0
M  END
$$$$
