No_5669-complexes_sdf/6BKW-FPZ/2024-09-17-14-21-01/
     RDKit          3D

 18 20  0  0  0  0  0  0  0  0999 V2000
   -7.9040    3.9820   27.1177 C   0  0  0  0  0  0  0  0  0  0  0  0
   -7.8663    4.8694   27.9238 C   0  0  0  0  0  0  0  0  0  0  0  0
   -9.0501    3.8017   26.2617 C   0  0  0  0  0  0  0  0  0  0  0  0
  -10.0189    4.7608   26.3707 C   0  0  0  0  0  0  0  0  0  0  0  0
   -8.6973    5.9722   27.8968 C   0  0  0  0  0  0  0  0  0  0  0  0
   -9.8216    5.8946   27.1241 C   0  0  0  0  0  0  0  0  0  0  0  0
   -9.1437    2.6293   25.4175 C   0  0  0  0  0  0  0  0  0  0  0  0
   -8.6100    1.5009   25.7781 N   0  0  0  0  0  0  0  0  0  0  0  0
   -8.0411    1.3642   26.9343 C   0  0  0  0  0  0  0  0  0  0  0  0
   -7.2900    2.5408   27.4640 C   0  0  0  0  0  0  0  0  0  0  0  0
   -8.8299    0.2845   25.0818 C   0  0  0  0  0  0  0  0  0  0  0  0
  -10.1760   -0.1252   24.9400 C   0  0  0  0  0  0  0  0  0  0  0  0
  -11.1610    0.3820   25.4980 C   0  0  0  0  0  0  0  0  0  0  0  0
  -12.4933   -0.0895   25.3386 C   0  0  0  0  0  0  0  0  0  0  0  0
  -10.4487   -1.1287   23.9277 C   0  0  0  0  0  0  0  0  0  0  0  0
  -11.7125   -1.6097   23.7249 C   0  0  0  0  0  0  0  0  0  0  0  0
  -12.7467   -1.0700   24.4708 C   0  0  0  0  0  0  0  0  0  0  0  0
   -7.7966   -0.2245   24.6119 O   0  0  0  0  0  0  0  0  0  0  0  0
  3  7  1  0
  7  8  1  0
  8  9  1  0
  1 10  1  0
  9 10  1  0
  8 11  1  0
 11 12  1  0
 11 18  2  0
 12 13  2  0
 13 14  1  0
 14 17  2  0
 17 16  1  0
 16 15  2  0
 15 12  1  0
  1  2  2  0
  2  5  1  0
  5  6  2  0
  6  4  1  0
  4  3  2  0
  3  1  1  0
M  END
$$$$
