No_5654-complexes_sdf/6BKW-FPZ/2024-09-17-14-21-01/
     RDKit          3D

 10 10  0  0  0  0  0  0  0  0999 V2000
   -7.7129    4.2099   27.0854 C   0  0  0  0  0  0  0  0  0  0  0  0
   -8.9133    4.4736   27.0998 C   0  0  0  0  0  0  0  0  0  0  0  0
   -9.7135    3.9633   26.0300 C   0  0  0  0  0  0  0  0  0  0  0  0
   -6.8655    4.8824   28.1822 C   0  0  0  0  0  0  0  0  0  0  0  0
  -10.8856    4.5824   25.6430 C   0  0  0  0  0  0  0  0  0  0  0  0
   -7.6664    5.7849   28.7962 N   0  0  0  0  0  0  0  0  0  0  0  0
   -8.9032    5.5787   27.9630 C   0  0  0  0  0  0  0  0  0  0  0  0
  -11.7615    4.0540   24.6278 C   0  0  0  0  0  0  0  0  0  0  0  0
  -11.3119    2.8854   23.9808 C   0  0  0  0  0  0  0  0  0  0  0  0
  -10.1613    2.2705   24.3646 C   0  0  0  0  0  0  0  0  0  0  0  0
  1  2  1  0
  2  3  2  3
  1  4  1  0
  3  5  1  0
  4  6  1  0
  2  7  1  0
  6  7  2  0
  5  8  2  3
  8  9  1  0
  9 10  2  0
M  END
$$$$
