No_5020-complexes_sdf/6BKW-FPZ/2024-09-17-14-21-01/
     RDKit          3D

 20 22  0  0  0  0  0  0  0  0999 V2000
   -7.9040    3.9820   27.1177 C   0  0  0  0  0  0  0  0  0  0  0  0
   -7.8663    4.8694   27.9238 C   0  0  0  0  0  0  0  0  0  0  0  0
   -9.0806    3.1428   27.1220 C   0  0  2  0  0  0  0  0  0  0  0  0
  -10.1072    3.3606   27.8219 C   0  0  0  0  0  0  0  0  0  0  0  0
   -8.9996    5.7432   28.2415 C   0  0  0  0  0  0  0  0  0  0  0  0
  -10.3333    4.8435   28.2328 C   0  0  0  0  0  0  0  0  0  0  0  0
   -8.9916    1.7911   26.4716 C   0  0  0  0  0  0  0  0  0  0  0  0
   -8.4492    0.6979   27.0620 C   0  0  0  0  0  0  0  0  0  0  0  0
   -8.3722   -0.5080   26.5066 C   0  0  0  0  0  0  0  0  0  0  0  0
   -9.4021    1.7440   25.1472 C   0  0  0  0  0  0  0  0  0  0  0  0
   -9.9522    2.8766   24.5156 C   0  0  0  0  0  0  0  0  0  0  0  0
   -9.3614    0.5956   24.3804 C   0  0  0  0  0  0  0  0  0  0  0  0
   -8.7603   -0.5883   25.0986 C   0  0  0  0  0  0  0  0  0  0  0  0
  -11.1774    3.1819   24.1971 C   0  0  0  0  0  0  0  0  0  0  0  0
  -12.1959    2.3419   24.6434 C   0  0  0  0  0  0  0  0  0  0  0  0
  -13.5397    2.7050   24.3680 C   0  0  0  0  0  0  0  0  0  0  0  0
  -11.5657    4.2169   23.3306 C   0  0  0  0  0  0  0  0  0  0  0  0
  -12.8735    4.6047   23.0133 C   0  0  0  0  0  0  0  0  0  0  0  0
  -13.8536    3.8007   23.5795 C   0  0  0  0  0  0  0  0  0  0  0  0
  -10.9874    2.5751   28.3448 O   0  0  0  0  0  0  0  0  0  0  0  0
  1  2  1  0
  1  3  1  0
  3  4  1  0
  2  5  1  0
  4  6  1  0
  5  6  1  0
  3  7  1  1
 10 11  1  0
  4 20  2  0
 11 14  1  0
  7  8  2  0
  8  9  1  0
  9 13  2  0
 13 12  1  0
 12 10  2  0
 10  7  1  0
 14 15  2  0
 15 16  1  0
 16 19  2  0
 19 18  1  0
 18 17  2  0
 17 14  1  0
M  END
$$$$
