No_543-complexes_sdf/6BKW-FPZ/2024-09-17-14-21-01/
     RDKit          3D

 16 18  0  0  0  0  0  0  0  0999 V2000
   -7.7129    4.2099   27.0854 C   0  0  0  0  0  0  0  0  0  0  0  0
   -8.9133    4.4736   27.0998 C   0  0  0  0  0  0  0  0  0  0  0  0
   -9.7135    3.9633   26.0300 C   0  0  0  0  0  0  0  0  0  0  0  0
   -6.8420    4.9760   28.0851 C   0  0  0  0  0  0  0  0  0  0  0  0
   -9.3982    2.7602   25.4709 C   0  0  0  0  0  0  0  0  0  0  0  0
   -8.1557    2.1690   25.8948 C   0  0  0  0  0  0  0  0  0  0  0  0
   -7.3832    2.8236   26.8786 C   0  0  0  0  0  0  0  0  0  0  0  0
  -10.1931    2.0783   24.5392 C   0  0  0  0  0  0  0  0  0  0  0  0
   -9.6100    1.3431   23.6026 C   0  0  0  0  0  0  0  0  0  0  0  0
  -10.0644    0.7706   22.6491 C   0  0  0  0  0  0  0  0  0  0  0  0
   -9.3052   -0.0910   21.6840 C   0  0  0  0  0  0  0  0  0  0  0  0
   -8.0222   -0.3941   22.0866 C   0  0  0  0  0  0  0  0  0  0  0  0
   -7.4564    0.0949   23.2313 C   0  0  0  0  0  0  0  0  0  0  0  0
   -8.1611    0.8760   24.0564 C   0  0  0  0  0  0  0  0  0  0  0  0
   -7.6260    1.3792   25.1962 N   0  0  0  0  0  0  0  0  0  0  0  0
  -11.3153    1.3403   25.2344 C   0  0  0  0  0  0  0  0  0  0  0  0
  1  2  1  0
  2  3  1  0
  1  4  2  0
  3  5  1  0
  1  7  1  0
  6  7  1  0
  8 16  1  0
  9 10  1  0
 10 11  2  0
 11 12  1  0
 12 13  2  0
 13 14  1  0
  5  6  2  0
  6 15  1  0
 15 14  2  0
 14  9  1  0
  9  8  2  0
  8  5  1  0
M  END
$$$$
