No_5133-complexes_sdf/6BKW-FPZ/2024-09-17-14-21-01/
     RDKit          3D

 18 20  0  0  0  0  0  0  0  0999 V2000
   -7.9040    3.9820   27.1177 C   0  0  0  0  0  0  0  0  0  0  0  0
   -7.8663    4.8694   27.9238 C   0  0  0  0  0  0  0  0  0  0  0  0
   -7.4698    2.6989   27.4277 C   0  0  0  0  0  0  0  0  0  0  0  0
   -7.9683    1.5964   26.8266 C   0  0  0  0  0  0  0  0  0  0  0  0
   -8.9447    1.7923   25.8533 C   0  0  0  0  0  0  0  0  0  0  0  0
   -9.4405    2.9988   25.5757 C   0  0  0  0  0  0  0  0  0  0  0  0
   -8.9424    4.1117   26.2388 C   0  0  0  0  0  0  0  0  0  0  0  0
   -7.0281    4.9362   28.9632 F   0  0  0  0  0  0  0  0  0  0  0  0
   -8.4481    6.2343   27.7216 C   0  0  0  0  0  0  0  0  0  0  0  0
   -9.4704    6.4669   26.8000 C   0  0  0  0  0  0  0  0  0  0  0  0
   -9.6858    5.3088   26.0054 C   0  0  0  0  0  0  0  0  0  0  0  0
   -7.3465    0.2734   27.0331 C   0  0  0  0  0  0  0  0  0  0  0  0
   -6.0239    0.1567   27.4046 C   0  0  0  0  0  0  0  0  0  0  0  0
   -5.4500   -1.0619   27.7247 C   0  0  0  0  0  0  0  0  0  0  0  0
   -4.0837   -1.0928   28.1690 C   0  0  0  0  0  0  0  0  0  0  0  0
   -3.3169    0.1093   28.2841 C   0  0  0  0  0  0  0  0  0  0  0  0
   -3.9631    1.3348   28.0274 C   0  0  0  0  0  0  0  0  0  0  0  0
   -5.2540    1.3657   27.6593 C   0  0  0  0  0  0  0  0  0  0  0  0
  2  8  1  0
  4 12  1  0
 12 13  1  0
  1  2  2  0
  2  9  1  0
  9 10  2  0
 10 11  1  0
 11  7  2  0
 13 14  2  0
 14 15  1  0
 15 16  2  0
 16 17  1  0
 17 18  2  0
 18 13  1  0
  1  3  1  0
  3  4  2  0
  4  5  1  0
  5  6  2  0
  6  7  1  0
  7  1  1  0
M  END
$$$$
