No_5881-complexes_sdf/6BKW-FPZ/2024-09-17-14-21-01/
     RDKit          3D

 14 15  0  0  0  0  0  0  0  0999 V2000
   -7.2496    3.8871   27.4508 C   0  0  0  0  0  0  0  0  0  0  0  0
   -7.9379    4.9063   27.8518 C   0  0  0  0  0  0  0  0  0  0  0  0
   -9.3460    4.8223   27.8695 C   0  0  0  0  0  0  0  0  0  0  0  0
   -7.8628    2.6163   27.1065 C   0  0  0  0  0  0  0  0  0  0  0  0
   -9.2787    2.5744   27.1970 C   0  0  0  0  0  0  0  0  0  0  0  0
  -10.0108    3.6770   27.6340 C   0  0  0  0  0  0  0  0  0  0  0  0
  -11.5178    3.7574   27.7698 C   0  0  0  0  0  0  0  0  0  0  0  0
  -11.9381    3.1535   28.8903 C   0  0  0  0  0  0  0  0  0  0  0  0
  -13.3121    3.2428   29.3223 C   0  0  0  0  0  0  0  0  0  0  0  0
  -13.8092    2.7366   30.5156 C   0  0  0  0  0  0  0  0  0  0  0  0
  -14.7039    3.1915   31.2480 C   0  0  0  0  0  0  0  0  0  0  0  0
  -15.5530    4.2248   30.6491 C   0  0  0  0  0  0  0  0  0  0  0  0
  -15.2421    4.7009   29.6298 C   0  0  0  0  0  0  0  0  0  0  0  0
  -14.0224    4.3987   28.9025 C   0  0  0  0  0  0  0  0  0  0  0  0
  6  7  1  0
  7  8  1  0
  8  9  1  0
  1  2  2  0
  2  3  1  0
  3  6  2  0
  6  5  1  0
  5  4  2  0
  4  1  1  0
  9 10  2  0
 10 11  1  0
 11 12  2  0
 12 13  1  0
 13 14  2  0
 14  9  1  0
M  END
$$$$
