No_5489-complexes_sdf/6BKW-FPZ/2024-09-17-14-21-01/
     RDKit          3D

 19 20  0  0  0  0  0  0  0  0999 V2000
   -7.7129    4.2099   27.0854 C   0  0  0  0  0  0  0  0  0  0  0  0
   -8.9133    4.4736   27.0998 C   0  0  0  0  0  0  0  0  0  0  0  0
   -9.7937    3.7368   26.2091 C   0  0  0  0  0  0  0  0  0  0  0  0
   -6.8266    5.0441   28.0594 C   0  0  0  0  0  0  0  0  0  0  0  0
  -11.0884    4.1572   25.9278 C   0  0  0  0  0  0  0  0  0  0  0  0
  -11.7538    3.6731   24.8818 C   0  0  0  0  0  0  0  0  0  0  0  0
  -13.0304    4.1664   24.5109 C   0  0  0  0  0  0  0  0  0  0  0  0
   -7.5733    6.0959   28.6072 C   0  0  0  0  0  0  0  0  0  0  0  0
   -9.1846    5.6617   27.8760 C   0  0  0  0  0  0  0  0  0  0  0  0
   -9.3734    2.6405   25.5343 C   0  0  0  0  0  0  0  0  0  0  0  0
  -10.0525    2.0415   24.5233 C   0  0  0  0  0  0  0  0  0  0  0  0
  -11.2625    2.5740   24.1587 C   0  0  0  0  0  0  0  0  0  0  0  0
  -14.1436    3.4847   24.8174 C   0  0  0  0  0  0  0  0  0  0  0  0
  -14.3055    2.6504   25.5179 C   0  0  0  0  0  0  0  0  0  0  0  0
  -13.3013    2.2548   26.4985 C   0  0  0  0  0  0  0  0  0  0  0  0
  -13.2321    1.5051   27.2496 C   0  0  0  0  0  0  0  0  0  0  0  0
  -12.1113    1.2431   28.2719 C   0  0  0  0  0  0  0  0  0  0  0  0
  -11.1259    2.2589   28.1412 C   0  0  0  0  0  0  0  0  0  0  0  0
  -10.0325    2.0379   29.1246 C   0  0  0  0  0  0  0  0  0  0  0  0
  1  2  2  0
  2  3  1  0
  1  4  1  0
  6  7  1  0
  4  8  2  0
  2  9  1  0
  8  9  1  0
  7 13  1  0
 13 14  2  3
 14 15  1  0
 15 16  2  3
 16 17  1  0
 17 18  2  3
 18 19  1  0
  3  5  2  0
  5  6  1  0
  6 12  2  0
 12 11  1  0
 11 10  2  0
 10  3  1  0
M  END
$$$$
