No_5687-complexes_sdf/6BKW-FPZ/2024-09-17-14-21-01/
     RDKit          3D

 12 12  0  0  0  0  0  0  0  0999 V2000
   -7.2496    3.8871   27.4508 C   0  0  0  0  0  0  0  0  0  0  0  0
   -7.9379    4.9063   27.8518 C   0  0  0  0  0  0  0  0  0  0  0  0
   -8.9501    5.3664   27.1340 C   0  0  0  0  0  0  0  0  0  0  0  0
   -7.8820    2.8617   26.9644 C   0  0  0  0  0  0  0  0  0  0  0  0
   -9.1643    3.0889   26.3622 C   0  0  0  0  0  0  0  0  0  0  0  0
   -9.6921    4.3341   26.4886 C   0  0  0  0  0  0  0  0  0  0  0  0
   -7.2819    1.5114   26.8260 C   0  0  0  0  0  0  0  0  0  0  0  0
   -6.2258    1.2258   27.5643 N   0  0  0  0  0  0  0  0  0  0  0  0
   -5.7351   -0.0340   27.5388 C   0  0  0  0  0  0  0  0  0  0  0  0
   -4.5003   -0.3006   28.3404 C   0  0  0  0  0  0  0  0  0  0  0  0
   -4.0179    0.7900   29.0313 C   0  0  0  0  0  0  0  0  0  0  0  0
   -4.5547    2.0566   28.8241 C   0  0  0  0  0  0  0  0  0  0  0  0
  4  7  1  0
  7  8  2  3
  8  9  1  0
  9 10  1  0
 10 11  2  3
 11 12  1  0
  1  2  2  0
  2  3  1  0
  3  6  2  0
  6  5  1  0
  5  4  2  0
  4  1  1  0
M  END
$$$$
