No_5288-complexes_sdf/6BKW-FPZ/2024-09-17-14-21-01/
     RDKit          3D

 31 34  0  0  0  0  0  0  0  0999 V2000
   -7.7129    4.2099   27.0854 C   0  0  0  0  0  0  0  0  0  0  0  0
   -8.2112    3.0637   26.9225 C   0  0  0  0  0  0  0  0  0  0  0  0
   -7.5138    1.9223   27.4249 C   0  0  0  0  0  0  0  0  0  0  0  0
   -8.5309    5.4147   26.8151 C   0  0  0  0  0  0  0  0  0  0  0  0
   -9.6817    5.2393   26.1100 C   0  0  0  0  0  0  0  0  0  0  0  0
  -10.1032    3.9957   25.8534 C   0  0  0  0  0  0  0  0  0  0  0  0
   -9.4034    2.8430   26.2573 C   0  0  0  0  0  0  0  0  0  0  0  0
   -6.1405    1.9750   27.8101 C   0  0  0  0  0  0  0  0  0  0  0  0
   -5.4233    0.8239   28.2180 C   0  0  0  0  0  0  0  0  0  0  0  0
   -6.0457   -0.4084   28.1509 C   0  0  0  0  0  0  0  0  0  0  0  0
   -7.8306    0.5269   27.2719 C   0  0  0  0  0  0  0  0  0  0  0  0
   -7.2818   -0.5033   27.7287 C   0  0  0  0  0  0  0  0  0  0  0  0
   -7.9774    6.7583   27.1031 C   0  0  0  0  0  0  0  0  0  0  0  0
   -8.6327    7.8212   26.7786 O   0  0  0  0  0  0  0  0  0  0  0  0
   -7.0694    6.8572   28.1034 O   0  0  0  0  0  0  0  0  0  0  0  0
   -4.0142    1.0420   28.7238 C   0  0  0  0  0  0  0  0  0  0  0  0
   -3.3241    0.3157   28.5734 F   0  0  0  0  0  0  0  0  0  0  0  0
   -4.1739    1.2253   30.1573 F   0  0  0  0  0  0  0  0  0  0  0  0
  -11.3661    3.8251   25.0701 C   0  0  0  0  0  0  0  0  0  0  0  0
  -11.2708    3.1218   23.9161 C   0  0  0  0  0  0  0  0  0  0  0  0
  -10.1899    2.4290   23.5561 C   0  0  0  0  0  0  0  0  0  0  0  0
  -10.1098    1.5914   22.3717 C   0  0  0  0  0  0  0  0  0  0  0  0
  -11.1177    1.7476   21.4506 C   0  0  0  0  0  0  0  0  0  0  0  0
  -12.1962    2.5862   21.7108 C   0  0  0  0  0  0  0  0  0  0  0  0
  -12.2606    3.2514   22.8776 C   0  0  0  0  0  0  0  0  0  0  0  0
   -7.9115   -1.8398   27.6984 C   0  0  0  0  0  0  0  0  0  0  0  0
   -9.0873   -1.9637   27.3517 C   0  0  0  0  0  0  0  0  0  0  0  0
   -9.8061   -3.1547   27.3405 C   0  0  0  0  0  0  0  0  0  0  0  0
   -9.1469   -4.2729   27.7367 C   0  0  0  0  0  0  0  0  0  0  0  0
   -7.8575   -4.2212   28.1228 C   0  0  0  0  0  0  0  0  0  0  0  0
   -7.1724   -3.0034   28.1572 C   0  0  0  0  0  0  0  0  0  0  0  0
  2  3  1  0
  4 13  1  0
 13 14  2  0
 13 15  1  0
  9 16  1  0
 16 17  1  0
 16 18  1  0
  6 19  1  0
 12 26  1  0
 19 20  1  0
 26 27  2  0
 27 28  1  0
 28 29  2  0
 29 30  1  0
 30 31  2  0
 31 26  1  0
  3  8  2  0
  8  9  1  0
  9 10  2  0
 10 12  1  0
 12 11  2  0
 11  3  1  0
  1  2  2  0
  2  7  1  0
  7  6  2  0
  6  5  1  0
  5  4  2  0
  4  1  1  0
 20 21  2  0
 21 22  1  0
 22 23  2  0
 23 24  1  0
 24 25  2  0
 25 20  1  0
M  END
$$$$
