No_5697-complexes_sdf/6BKW-FPZ/2024-09-17-14-21-01/
     RDKit          3D

 21 23  0  0  0  0  0  0  0  0999 V2000
   -7.7129    4.2099   27.0854 C   0  0  0  0  0  0  0  0  0  0  0  0
   -7.7814    5.1722   27.8972 C   0  0  0  0  0  0  0  0  0  0  0  0
   -8.8255    3.2789   27.1191 C   0  0  0  0  0  0  0  0  0  0  0  0
   -9.9209    3.4734   27.9101 C   0  0  0  0  0  0  0  0  0  0  0  0
   -9.9736    4.7085   28.6831 C   0  0  0  0  0  0  0  0  0  0  0  0
   -8.8840    5.5441   28.6612 C   0  0  0  0  0  0  0  0  0  0  0  0
   -8.7059    2.0159   26.3410 C   0  0  0  0  0  0  0  0  0  0  0  0
   -9.2435    1.9982   25.0695 C   0  0  0  0  0  0  0  0  0  0  0  0
   -9.8430    3.1468   24.5548 C   0  0  0  0  0  0  0  0  0  0  0  0
  -10.6528    3.1828   23.5980 C   0  0  0  0  0  0  0  0  0  0  0  0
  -10.7000    2.1158   22.6775 C   0  0  0  0  0  0  0  0  0  0  0  0
   -9.3817    0.8583   24.3158 C   0  0  0  0  0  0  0  0  0  0  0  0
  -10.0762    0.9082   23.1152 C   0  0  0  0  0  0  0  0  0  0  0  0
   -7.9246    0.9335   26.8675 C   0  0  0  0  0  0  0  0  0  0  0  0
   -6.5461    0.9256   26.6880 C   0  0  0  0  0  0  0  0  0  0  0  0
   -5.7605   -0.0918   27.3652 C   0  0  0  0  0  0  0  0  0  0  0  0
   -4.3695    0.1080   27.6298 C   0  0  0  0  0  0  0  0  0  0  0  0
   -3.5803   -0.8211   28.3011 C   0  0  0  0  0  0  0  0  0  0  0  0
   -4.2414   -1.8608   28.9790 C   0  0  0  0  0  0  0  0  0  0  0  0
   -5.6112   -1.9572   28.8713 C   0  0  0  0  0  0  0  0  0  0  0  0
   -6.3711   -1.0787   28.1373 C   0  0  0  0  0  0  0  0  0  0  0  0
  3  7  1  0
  7  8  1  0
  7 14  1  0
 14 15  2  3
 15 16  1  0
  1  2  2  0
  2  6  1  0
  6  5  2  0
  5  4  1  0
  4  3  2  0
  3  1  1  0
 16 17  2  0
 17 18  1  0
 18 19  2  0
 19 20  1  0
 20 21  2  0
 21 16  1  0
  8  9  2  0
  9 10  1  0
 10 11  2  0
 11 13  1  0
 13 12  2  0
 12  8  1  0
M  END
$$$$
