No_5755-complexes_sdf/6BKW-FPZ/2024-09-17-14-21-01/
     RDKit          3D

 28 33  0  0  0  0  0  0  0  0999 V2000
   -7.7129    4.2099   27.0854 C   0  0  0  0  0  0  0  0  0  0  0  0
   -7.7814    5.1722   27.8972 C   0  0  0  0  0  0  0  0  0  0  0  0
   -8.8998    3.8713   26.3707 C   0  0  0  0  0  0  0  0  0  0  0  0
   -9.9938    4.6774   26.5446 C   0  0  0  0  0  0  0  0  0  0  0  0
   -8.7789    6.1536   27.9256 C   0  0  0  0  0  0  0  0  0  0  0  0
   -9.9428    5.8398   27.2296 C   0  0  0  0  0  0  0  0  0  0  0  0
   -8.9119    2.6447   25.5685 C   0  0  0  0  0  0  0  0  0  0  0  0
   -9.7335    1.6985   26.0442 C   0  0  0  0  0  0  0  0  0  0  0  0
  -10.6205    1.6022   26.6867 C   0  0  0  0  0  0  0  0  0  0  0  0
  -11.2241    2.7776   27.3831 C   0  0  0  0  0  0  0  0  0  0  0  0
  -10.9720    4.0656   27.1711 C   0  0  2  0  0  0  0  0  0  0  0  0
  -12.3400    2.3386   28.4783 C   0  0  0  0  0  0  0  0  0  0  0  0
  -12.6542    1.1429   28.6959 C   0  0  0  0  0  0  0  0  0  0  0  0
  -11.9635    0.0682   28.0559 C   0  0  0  0  0  0  0  0  0  0  0  0
  -10.9888    0.2776   27.1852 C   0  0  0  0  0  0  0  0  0  0  0  0
   -9.1685    0.3961   25.3073 C   0  0  0  0  0  0  0  0  0  0  0  0
   -9.6303   -0.6821   25.6501 C   0  0  0  0  0  0  0  0  0  0  0  0
  -10.5117   -0.9063   26.6417 C   0  0  0  0  0  0  0  0  0  0  0  0
  -12.9834    3.5240   29.1393 C   0  0  2  0  0  0  0  0  0  0  0  0
  -12.2305    4.9043   27.4982 C   0  0  0  0  0  0  0  0  0  0  0  0
  -13.8033    3.2642   30.2201 N   0  0  0  0  0  0  0  0  0  0  0  0
  -12.9232    4.7619   28.6087 C   0  0  0  0  0  0  0  0  0  0  0  0
  -13.4187    2.9069   31.2769 C   0  0  0  0  0  0  0  0  0  0  0  0
  -14.3763    2.6728   32.4047 C   0  0  0  0  0  0  0  0  0  0  0  0
  -15.1835    3.3268   29.9647 C   0  0  0  0  0  0  0  0  0  0  0  0
  -16.0746    3.0232   30.9625 C   0  0  0  0  0  0  0  0  0  0  0  0
  -15.6636    2.7806   32.2333 C   0  0  0  0  0  0  0  0  0  0  0  0
   -6.6065    5.6052   28.5628 O   0  0  0  0  0  0  0  0  0  0  0  0
  3  7  1  0
  7  8  1  0
  4 11  1  0
 10 11  1  0
 12 19  1  0
 11 20  1  6
 19 21  1  6
 19 22  1  0
 20 22  1  0
 21 23  1  0
 21 25  1  0
 24 27  1  0
 26 27  1  0
  2 28  1  0
 23 24  1  0
 26 25  1  0
  8  9  1  0
 15 18  1  0
 18 17  2  0
 17 16  1  0
 16  8  2  0
  9 10  2  0
 10 12  1  0
 12 13  2  0
 13 14  1  0
 14 15  2  0
 15  9  1  0
  1  2  2  0
  2  5  1  0
  5  6  2  0
  6  4  1  0
  4  3  2  0
  3  1  1  0
M  END
$$$$
