No_5199-complexes_sdf/6BKW-FPZ/2024-09-17-14-21-01/
     RDKit          3D

 21 23  0  0  0  0  0  0  0  0999 V2000
   -7.9040    3.9820   27.1177 C   0  0  0  0  0  0  0  0  0  0  0  0
   -7.8663    4.8694   27.9238 C   0  0  0  0  0  0  0  0  0  0  0  0
   -9.0501    3.8017   26.2617 C   0  0  0  0  0  0  0  0  0  0  0  0
  -10.0189    4.7608   26.3707 C   0  0  0  0  0  0  0  0  0  0  0  0
   -8.6973    5.9722   27.8968 C   0  0  0  0  0  0  0  0  0  0  0  0
   -9.8216    5.8946   27.1241 C   0  0  0  0  0  0  0  0  0  0  0  0
   -9.1437    2.6293   25.4175 C   0  0  0  0  0  0  0  0  0  0  0  0
   -8.6170    1.4258   25.8177 C   0  0  0  0  0  0  0  0  0  0  0  0
   -8.6844    0.3194   24.9788 C   0  0  0  0  0  0  0  0  0  0  0  0
   -9.3359    0.4939   23.7289 C   0  0  0  0  0  0  0  0  0  0  0  0
   -9.8521    1.7195   23.3158 C   0  0  0  0  0  0  0  0  0  0  0  0
   -9.7240    2.7821   24.1593 C   0  0  0  0  0  0  0  0  0  0  0  0
  -10.4661    1.8424   22.0042 C   0  0  0  0  0  0  0  0  0  0  0  0
  -10.4453    3.0776   21.4846 C   0  0  0  0  0  0  0  0  0  0  0  0
  -11.0183    3.2930   20.1916 C   0  0  0  0  0  0  0  0  0  0  0  0
  -11.5003    2.2211   19.4543 C   0  0  0  0  0  0  0  0  0  0  0  0
  -11.4217    0.9436   20.0115 C   0  0  0  0  0  0  0  0  0  0  0  0
  -10.8898    0.7873   21.2619 C   0  0  0  0  0  0  0  0  0  0  0  0
   -8.0895   -0.9188   25.3716 C   0  0  0  0  0  0  0  0  0  0  0  0
   -7.2813   -1.1336   25.9426 C   0  0  0  0  0  0  0  0  0  0  0  0
   -6.7324   -2.4120   26.4195 C   0  0  0  0  0  0  0  0  0  0  0  0
  3  7  1  0
 11 13  1  0
  9 19  1  0
 19 20  2  3
 20 21  1  0
 13 14  2  0
 14 15  1  0
 15 16  2  0
 16 17  1  0
 17 18  2  0
 18 13  1  0
  1  2  2  0
  2  5  1  0
  5  6  2  0
  6  4  1  0
  4  3  2  0
  3  1  1  0
  7  8  2  0
  8  9  1  0
  9 10  2  0
 10 11  1  0
 11 12  2  0
 12  7  1  0
M  END
$$$$
