No_5742-complexes_sdf/6BKW-FPZ/2024-09-17-14-21-01/
     RDKit          3D

 40 45  0  0  0  0  0  0  0  0999 V2000
   -7.9040    3.9820   27.1177 C   0  0  0  0  0  0  0  0  0  0  0  0
   -7.8663    4.8694   27.9238 C   0  0  0  0  0  0  0  0  0  0  0  0
   -9.0491    3.8523   26.2542 C   0  0  0  0  0  0  0  0  0  0  0  0
   -8.7661    5.9491   27.9690 C   0  0  0  0  0  0  0  0  0  0  0  0
   -9.1715    2.7136   25.4037 C   0  0  0  0  0  0  0  0  0  0  0  0
   -9.8832    5.8611   27.1405 C   0  0  0  0  0  0  0  0  0  0  0  0
  -10.0016    4.7998   26.3324 C   0  0  0  0  0  0  0  0  0  0  0  0
   -8.6397    1.4769   25.7660 C   0  0  0  0  0  0  0  0  0  0  0  0
   -9.8835    2.8035   24.1721 C   0  0  0  0  0  0  0  0  0  0  0  0
   -8.0716    1.3261   26.8893 N   0  0  0  0  0  0  0  0  0  0  0  0
   -8.7272    0.3780   24.8796 C   0  0  0  0  0  0  0  0  0  0  0  0
   -7.4949    0.0560   27.3573 C   0  0  0  0  0  0  0  0  0  0  0  0
   -7.7308   -0.7119   27.9539 C   0  0  0  0  0  0  0  0  0  0  0  0
   -6.9806   -1.8166   28.4041 C   0  0  0  0  0  0  0  0  0  0  0  0
   -6.0549    0.0679   26.8624 C   0  0  0  0  0  0  0  0  0  0  0  0
   -5.1409   -0.8117   27.1933 C   0  0  0  0  0  0  0  0  0  0  0  0
   -5.6417   -1.8506   28.0354 C   0  0  0  0  0  0  0  0  0  0  0  0
   -9.3316    0.5133   23.6843 C   0  0  0  0  0  0  0  0  0  0  0  0
   -9.9110    1.7543   23.3540 C   0  0  0  0  0  0  0  0  0  0  0  0
   -3.7419   -0.7793   26.7469 C   0  0  0  0  0  0  0  0  0  0  0  0
   -3.3902    0.2131   26.3381 O   0  0  0  0  0  0  0  0  0  0  0  0
   -3.0165   -1.5711   27.3531 F   0  0  0  0  0  0  0  0  0  0  0  0
   -7.5332   -2.8726   29.2987 C   0  0  0  0  0  0  0  0  0  0  0  0
   -6.9346   -3.0673   30.3536 N   0  0  0  0  0  0  0  0  0  0  0  0
   -7.4086   -3.4046   31.4826 C   0  0  0  0  0  0  0  0  0  0  0  0
   -7.5350   -2.8474   32.5137 C   0  0  0  0  0  0  0  0  0  0  0  0
   -6.6038   -1.7097   32.8402 C   0  0  0  0  0  0  0  0  0  0  0  0
   -5.6303   -1.4541   31.8241 C   0  0  1  0  0  0  0  0  0  0  0  0
   -5.9172   -1.9685   30.5496 C   0  0  1  0  0  0  0  0  0  0  0  0
   -4.6887   -0.3623   32.0545 C   0  0  0  0  0  0  0  0  0  0  0  0
   -3.8244    0.0240   30.9441 C   0  0  1  0  0  0  0  0  0  0  0  0
   -4.8198   -1.5825   29.7265 C   0  0  2  0  0  0  0  0  0  0  0  0
   -4.2655   -0.2868   29.7324 C   0  0  2  0  0  0  0  0  0  0  0  0
   -3.7734   -2.8112   29.6938 C   0  0  0  0  0  0  0  0  0  0  0  0
   -8.4431   -3.5370   28.8626 O   0  0  0  0  0  0  0  0  0  0  0  0
   -6.0201   -1.0002   30.1979 Cl  0  0  0  0  0  0  0  0  0  0  0  0
   -3.1128    0.0159   29.2862 Cl  0  0  0  0  0  0  0  0  0  0  0  0
   -2.8610    1.0899   31.2765 O   0  0  0  0  0  0  0  0  0  0  0  0
   -4.1158   -4.0734   29.2918 C   0  0  0  0  0  0  0  0  0  0  0  0
   -3.3212   -4.8996   29.3987 C   0  0  0  0  0  0  0  0  0  0  0  0
  3  5  1  0
  8 10  1  0
 10 12  1  0
 16 20  1  0
 20 21  2  0
 20 22  1  0
 14 23  1  0
 23 24  1  0
 24 25  1  0
 26 27  1  0
 24 29  1  0
 28 29  1  0
 28 30  1  6
 17 32  1  0
 29 32  1  0
 31 33  1  0
 32 33  1  0
 32 34  1  6
 23 35  2  0
 29 36  1  6
 33 37  1  6
 31 38  1  6
 34 39  2  3
 39 40  1  0
 25 26  1  0
 27 28  1  0
 30 31  1  0
  5  8  2  0
  8 11  1  0
 11 18  2  0
 18 19  1  0
 19  9  2  0
  9  5  1  0
 12 13  2  0
 13 14  1  0
 14 17  2  0
 17 16  1  0
 16 15  2  0
 15 12  1  0
  1  2  2  0
  2  4  1  0
  4  6  2  0
  6  7  1  0
  7  3  2  0
  3  1  1  0
M  END
$$$$
