No_5803-complexes_sdf/6BKW-FPZ/2024-09-17-14-21-01/
     RDKit          3D

 19 20  0  0  0  0  0  0  0  0999 V2000
   -7.9040    3.9820   27.1177 C   0  0  0  0  0  0  0  0  0  0  0  0
   -7.8663    4.8694   27.9238 C   0  0  0  0  0  0  0  0  0  0  0  0
   -9.0501    3.8017   26.2617 C   0  0  0  0  0  0  0  0  0  0  0  0
  -10.0189    4.7608   26.3707 C   0  0  0  0  0  0  0  0  0  0  0  0
   -8.6770    5.9780   27.9222 C   0  0  0  0  0  0  0  0  0  0  0  0
   -9.8040    5.8752   27.0958 C   0  0  0  0  0  0  0  0  0  0  0  0
   -9.1484    2.6214   25.4213 C   0  0  0  0  0  0  0  0  0  0  0  0
   -8.6431    1.4978   25.8150 N   0  0  0  0  0  0  0  0  0  0  0  0
   -9.1151    0.5380   26.1045 C   0  0  0  0  0  0  0  0  0  0  0  0
  -10.4735    0.3853   26.1411 C   0  0  0  0  0  0  0  0  0  0  0  0
   -8.4377   -0.5825   26.5248 O   0  0  0  0  0  0  0  0  0  0  0  0
  -10.9164   -0.6840   26.6540 C   0  0  0  0  0  0  0  0  0  0  0  0
  -11.5610   -1.0141   27.5009 C   0  0  0  0  0  0  0  0  0  0  0  0
  -12.0164   -2.3314   28.0457 C   0  0  0  0  0  0  0  0  0  0  0  0
  -11.5211   -3.3596   27.3272 C   0  0  0  0  0  0  0  0  0  0  0  0
  -10.7178   -3.1821   26.2930 C   0  0  0  0  0  0  0  0  0  0  0  0
  -10.3663   -1.9268   25.9364 C   0  0  0  0  0  0  0  0  0  0  0  0
   -9.4680    2.8467   24.1991 O   0  0  0  0  0  0  0  0  0  0  0  0
  -10.2631   -4.2350   25.6210 F   0  0  0  0  0  0  0  0  0  0  0  0
  3  7  1  0
  7  8  1  0
  8  9  1  0
  9 10  1  0
  9 11  2  0
 10 12  1  0
  7 18  2  0
 16 19  1  0
 12 13  2  0
 13 14  1  0
 14 15  2  0
 15 16  1  0
 16 17  2  0
 17 12  1  0
  1  2  2  0
  2  5  1  0
  5  6  2  0
  6  4  1  0
  4  3  2  0
  3  1  1  0
M  END
$$$$
