No_5539-complexes_sdf/6BKW-FPZ/2024-09-17-14-21-01/
     RDKit          3D

 18 20  0  0  0  0  0  0  0  0999 V2000
   -7.2496    3.8871   27.4508 C   0  0  0  0  0  0  0  0  0  0  0  0
   -7.6161    2.7143   27.1523 C   0  0  0  0  0  0  0  0  0  0  0  0
   -7.1619    1.8631   27.5232 C   0  0  0  0  0  0  0  0  0  0  0  0
   -6.0841    4.1113   28.0941 C   0  0  0  0  0  0  0  0  0  0  0  0
   -5.8039    1.7595   28.0571 C   0  0  0  0  0  0  0  0  0  0  0  0
   -5.3501    3.0307   28.3267 N   0  0  0  0  0  0  0  0  0  0  0  0
   -9.1030    2.8044   26.5334 C   0  0  0  0  0  0  0  0  0  0  0  0
   -9.7622    1.7796   26.2935 C   0  0  0  0  0  0  0  0  0  0  0  0
  -11.0065    1.7595   25.6500 C   0  0  0  0  0  0  0  0  0  0  0  0
  -11.5478    3.0183   25.3250 C   0  0  0  0  0  0  0  0  0  0  0  0
   -9.7927    4.0408   26.0834 C   0  0  0  0  0  0  0  0  0  0  0  0
  -10.8984    4.1566   25.5213 C   0  0  0  0  0  0  0  0  0  0  0  0
   -5.0531    0.7090   28.2977 N   0  0  0  0  0  0  0  0  0  0  0  0
   -3.7745    0.7290   28.7397 C   0  0  0  0  0  0  0  0  0  0  0  0
   -5.6632   -0.5973   28.2785 C   0  0  0  0  0  0  0  0  0  0  0  0
   -5.4174   -1.4962   28.6909 C   0  0  0  0  0  0  0  0  0  0  0  0
   -3.2013   -0.4652   29.3187 C   0  0  0  0  0  0  0  0  0  0  0  0
   -3.9749   -1.6149   29.2813 C   0  0  0  0  0  0  0  0  0  0  0  0
  2  7  1  0
  5 13  1  0
 13 14  1  0
 13 15  1  0
 16 18  1  0
 17 18  1  0
 14 17  1  0
 16 15  1  0
  7  8  2  0
  8  9  1  0
  9 10  2  0
 10 12  1  0
 12 11  2  0
 11  7  1  0
  1  2  2  0
  2  3  1  0
  3  5  2  0
  5  6  1  0
  6  4  2  0
  4  1  1  0
M  END
$$$$
