No_5222-complexes_sdf/6BKW-FPZ/2024-09-17-14-21-01/
     RDKit          3D

 17 17  0  0  0  0  0  0  0  0999 V2000
   -7.9040    3.9820   27.1177 C   0  0  0  0  0  0  0  0  0  0  0  0
   -8.2057    2.8231   26.8733 C   0  0  0  0  0  0  0  0  0  0  0  0
   -7.0130    4.3706   28.1140 C   0  0  0  0  0  0  0  0  0  0  0  0
   -7.4093    1.7370   27.3857 C   0  0  0  0  0  0  0  0  0  0  0  0
   -6.1943    2.1490   28.0403 C   0  0  0  0  0  0  0  0  0  0  0  0
   -5.9708    3.4680   28.3199 C   0  0  0  0  0  0  0  0  0  0  0  0
   -8.8163    5.2629   26.7932 C   0  0  0  0  0  0  0  0  0  0  0  0
   -8.7559    6.2930   27.3858 O   0  0  0  0  0  0  0  0  0  0  0  0
   -9.5404    5.0814   25.6247 N   0  0  0  0  0  0  0  0  0  0  0  0
   -5.2484    1.0629   28.4068 C   0  0  0  0  0  0  0  0  0  0  0  0
   -5.5446   -0.1003   28.6240 O   0  0  0  0  0  0  0  0  0  0  0  0
   -3.8883    1.4142   28.6626 N   0  0  0  0  0  0  0  0  0  0  0  0
   -9.9030    3.9339   24.9714 C   0  0  0  0  0  0  0  0  0  0  0  0
  -10.5706    4.2225   23.7284 C   0  0  0  0  0  0  0  0  0  0  0  0
  -11.1521    3.5579   23.1118 C   0  0  0  0  0  0  0  0  0  0  0  0
  -11.2044    2.1253   23.3945 C   0  0  0  0  0  0  0  0  0  0  0  0
  -10.5450    1.7459   24.5883 C   0  0  0  0  0  0  0  0  0  0  0  0
  1  7  1  0
  7  8  2  0
  7  9  1  0
  5 10  1  0
 10 11  2  0
 10 12  1  0
  9 13  2  3
 13 14  1  0
 14 15  2  3
 15 16  1  0
 16 17  2  0
  1  2  2  0
  2  4  1  0
  4  5  2  0
  5  6  1  0
  6  3  2  0
  3  1  1  0
M  END
$$$$
