No_5475-complexes_sdf/6BKW-FPZ/2024-09-17-14-21-01/
     RDKit          3D

 27 30  0  0  0  0  0  0  0  0999 V2000
   -7.9040    3.9820   27.1177 C   0  0  0  0  0  0  0  0  0  0  0  0
   -9.0711    4.3164   27.0630 C   0  0  0  0  0  0  0  0  0  0  0  0
   -9.9692    3.7224   26.1073 C   0  0  0  0  0  0  0  0  0  0  0  0
   -6.9787    4.6761   28.1003 C   0  0  0  0  0  0  0  0  0  0  0  0
   -9.4538    2.6801   25.3673 C   0  0  0  0  0  0  0  0  0  0  0  0
   -8.1927    2.1957   25.6621 C   0  0  0  0  0  0  0  0  0  0  0  0
   -7.4333    2.8255   26.6299 C   0  0  0  0  0  0  0  0  0  0  0  0
  -10.3066    1.9975   24.3777 C   0  0  0  0  0  0  0  0  0  0  0  0
  -10.6559    2.6408   23.2832 C   0  0  0  0  0  0  0  0  0  0  0  0
  -11.1635    2.0505   22.1367 C   0  0  0  0  0  0  0  0  0  0  0  0
  -11.3204    0.6234   22.1943 C   0  0  0  0  0  0  0  0  0  0  0  0
  -10.3060    0.6025   24.2444 C   0  0  0  0  0  0  0  0  0  0  0  0
  -10.7517    0.1080   23.3428 C   0  0  0  0  0  0  0  0  0  0  0  0
   -7.4730    5.8208   28.6551 N   0  0  0  0  0  0  0  0  0  0  0  0
   -5.8222    4.3004   28.2799 O   0  0  0  0  0  0  0  0  0  0  0  0
  -10.5579    4.0265   23.1964 F   0  0  0  0  0  0  0  0  0  0  0  0
  -10.9671   -1.5308   23.2251 C   0  0  0  0  0  0  0  0  0  0  0  0
  -10.6308   -2.2673   24.2493 C   0  0  0  0  0  0  0  0  0  0  0  0
  -10.4460   -1.5731   25.3890 C   0  0  0  0  0  0  0  0  0  0  0  0
  -10.1104   -0.1999   25.5807 C   0  0  0  0  0  0  0  0  0  0  0  0
  -10.0814   -2.3945   26.6852 C   0  0  0  0  0  0  0  0  0  0  0  0
  -11.1007   -2.4733   27.5173 C   0  0  0  0  0  0  0  0  0  0  0  0
  -12.1437   -1.7658   27.6014 C   0  0  0  0  0  0  0  0  0  0  0  0
  -13.1352   -1.8611   28.6593 C   0  0  0  0  0  0  0  0  0  0  0  0
  -12.8377   -2.7526   29.6948 C   0  0  0  0  0  0  0  0  0  0  0  0
  -11.7372   -3.4995   29.7642 C   0  0  0  0  0  0  0  0  0  0  0  0
  -10.7884   -3.3608   28.7649 C   0  0  0  0  0  0  0  0  0  0  0  0
  1  4  1  0
  5  8  1  0
  4 14  1  0
  4 15  2  0
  9 16  1  0
 19 21  1  0
 21 22  1  0
 22 23  2  0
 23 24  1  0
 24 25  2  0
 25 26  1  0
 26 27  2  0
 27 22  1  0
  8  9  2  0
  9 10  1  0
 10 11  2  0
 11 13  1  0
 12  8  1  0
 12 13  2  0
 13 17  1  0
 17 18  2  0
 18 19  1  0
 19 20  2  0
 20 12  1  0
  1  2  2  0
  2  3  1  0
  3  5  2  0
  5  6  1  0
  6  7  2  0
  7  1  1  0
M  END
$$$$
