No_5334-complexes_sdf/6BKW-FPZ/2024-09-17-14-21-01/
     RDKit          3D

 14 15  0  0  0  0  0  0  0  0999 V2000
   -7.7129    4.2099   27.0854 C   0  0  0  0  0  0  0  0  0  0  0  0
   -8.2112    3.0637   26.9225 C   0  0  0  0  0  0  0  0  0  0  0  0
   -8.5108    5.3904   26.9436 C   0  0  0  0  0  0  0  0  0  0  0  0
   -9.7256    5.1955   26.3518 C   0  0  0  0  0  0  0  0  0  0  0  0
   -9.4995    2.8258   26.4878 C   0  0  0  0  0  0  0  0  0  0  0  0
  -10.2542    3.9691   26.2055 C   0  0  0  0  0  0  0  0  0  0  0  0
   -7.9456    6.5695   27.1656 F   0  0  0  0  0  0  0  0  0  0  0  0
   -7.1745    1.9297   27.3092 C   0  0  0  0  0  0  0  0  0  0  0  0
   -6.0191    2.2374   27.7442 N   0  0  0  0  0  0  0  0  0  0  0  0
   -5.2043    1.1041   28.0754 C   0  0  0  0  0  0  0  0  0  0  0  0
   -5.6842   -0.1214   28.0270 C   0  0  0  0  0  0  0  0  0  0  0  0
   -7.6755    0.5464   27.2381 C   0  0  0  0  0  0  0  0  0  0  0  0
   -6.9242   -0.4031   27.6812 C   0  0  0  0  0  0  0  0  0  0  0  0
   -3.9159    1.4876   28.5107 N   0  0  0  0  0  0  0  0  0  0  0  0
  3  7  1  0
  2  8  1  0
 10 14  1  0
  1  2  2  0
  2  5  1  0
  5  6  2  0
  6  4  1  0
  4  3  2  0
  3  1  1  0
  8  9  2  0
  9 10  1  0
 10 11  2  0
 11 13  1  0
 13 12  2  0
 12  8  1  0
M  END
$$$$
