No_5739-complexes_sdf/6BKW-FPZ/2024-09-17-14-21-01/
     RDKit          3D

 26 29  0  0  0  0  0  0  0  0999 V2000
   -7.9040    3.9820   27.1177 C   0  0  0  0  0  0  0  0  0  0  0  0
   -7.8663    4.8694   27.9238 C   0  0  0  0  0  0  0  0  0  0  0  0
   -7.4547    2.7080   27.4594 C   0  0  0  0  0  0  0  0  0  0  0  0
   -8.7044    6.0412   27.8492 C   0  0  0  0  0  0  0  0  0  0  0  0
   -6.0327    2.6839   27.7677 C   0  0  0  0  0  0  0  0  0  0  0  0
   -5.4461    1.4338   28.1200 C   0  0  0  0  0  0  0  0  0  0  0  0
   -6.1237    0.2685   27.9529 C   0  0  0  0  0  0  0  0  0  0  0  0
   -8.0296    1.4823   27.2081 C   0  0  0  0  0  0  0  0  0  0  0  0
   -7.4425    0.2979   27.4502 C   0  0  0  0  0  0  0  0  0  0  0  0
   -8.7476    4.1745   25.9759 C   0  0  0  0  0  0  0  0  0  0  0  0
   -9.4763    5.3145   25.7303 C   0  0  0  0  0  0  0  0  0  0  0  0
   -9.3146    6.3571   26.6441 C   0  0  0  0  0  0  0  0  0  0  0  0
   -5.4607   -1.0003   28.2095 C   0  0  0  0  0  0  0  0  0  0  0  0
   -4.1446   -1.0089   28.5404 C   0  0  0  0  0  0  0  0  0  0  0  0
   -3.4743    0.2950   28.6888 C   0  0  0  0  0  0  0  0  0  0  0  0
   -4.0417    1.4784   28.4583 C   0  0  0  0  0  0  0  0  0  0  0  0
   -8.8963    3.1586   25.0872 F   0  0  0  0  0  0  0  0  0  0  0  0
   -3.5677   -2.1813   29.0542 C   0  0  2  0  0  0  0  0  0  0  0  0
   -3.6421   -2.5328   30.3461 C   0  0  0  0  0  0  0  0  0  0  0  0
   -4.2580   -1.8712   31.2461 C   0  0  0  0  0  0  0  0  0  0  0  0
   -4.3483   -2.2241   32.6506 C   0  0  0  0  0  0  0  0  0  0  0  0
   -4.9563   -1.3332   33.5661 C   0  0  0  0  0  0  0  0  0  0  0  0
   -5.6785   -0.2372   33.0592 C   0  0  0  0  0  0  0  0  0  0  0  0
   -5.5156    0.1405   31.7790 C   0  0  0  0  0  0  0  0  0  0  0  0
   -4.8646   -0.6088   30.9666 C   0  0  0  0  0  0  0  0  0  0  0  0
   -2.8473   -2.8553   27.9830 C   0  0  0  0  0  0  0  0  0  0  0  0
  1  3  1  0
 10 17  1  0
 14 18  1  0
 18 19  1  0
 19 20  1  0
 18 26  1  1
  1  2  2  0
  2  4  1  0
  4 12  2  0
 12 11  1  0
 11 10  2  0
 10  1  1  0
  3  5  2  0
  5  6  1  0
  7  9  1  0
  9  8  2  0
  8  3  1  0
 20 21  2  0
 21 22  1  0
 22 23  2  0
 23 24  1  0
 24 25  2  0
 25 20  1  0
  6  7  2  0
  7 13  1  0
 13 14  2  0
 14 15  1  0
 15 16  2  0
 16  6  1  0
M  END
$$$$
