No_5530-complexes_sdf/6BKW-FPZ/2024-09-17-14-21-01/
     RDKit          3D

 27 28  0  0  0  0  0  0  0  0999 V2000
   -7.2496    3.8871   27.4508 C   0  0  0  0  0  0  0  0  0  0  0  0
   -7.9379    4.9063   27.8518 C   0  0  1  0  0  0  0  0  0  0  0  0
   -7.5112    6.1898   27.6280 C   0  0  0  0  0  0  0  0  0  0  0  0
   -9.3085    4.6933   28.2930 C   0  0  0  0  0  0  0  0  0  0  0  0
   -6.9423    2.7756   27.7939 C   0  0  0  0  0  0  0  0  0  0  0  0
   -6.0491    1.8084   27.3010 C   0  0  0  0  0  0  0  0  0  0  0  0
   -5.1949    1.1980   28.1034 C   0  0  0  0  0  0  0  0  0  0  0  0
   -4.5744   -0.0442   27.7485 C   0  0  2  0  0  0  0  0  0  0  0  0
   -5.2009   -1.1737   28.2868 C   0  0  0  0  0  0  0  0  0  0  0  0
   -5.9824   -1.1274   29.2903 C   0  0  0  0  0  0  0  0  0  0  0  0
   -6.6257   -2.2379   29.8358 C   0  0  0  0  0  0  0  0  0  0  0  0
   -6.7780   -3.3404   29.0823 C   0  0  0  0  0  0  0  0  0  0  0  0
   -6.0256   -3.4353   27.9051 C   0  0  0  0  0  0  0  0  0  0  0  0
   -5.2596   -2.3522   27.4758 C   0  0  0  0  0  0  0  0  0  0  0  0
   -3.0515    0.0691   28.1358 C   0  0  0  0  0  0  0  0  0  0  0  0
   -4.6311   -0.0493   26.1613 C   0  0  0  0  0  0  0  0  0  0  0  0
   -2.0923    0.1395   27.2245 C   0  0  0  0  0  0  0  0  0  0  0  0
   -2.7541   -0.0938   29.5689 C   0  0  0  0  0  0  0  0  0  0  0  0
   -8.4532    7.1291   27.1715 O   0  0  0  0  0  0  0  0  0  0  0  0
  -10.4121    5.0227   27.4396 C   0  0  0  0  0  0  0  0  0  0  0  0
  -11.5923    4.2699   27.7419 C   0  0  0  0  0  0  0  0  0  0  0  0
  -11.8137    3.7124   28.7678 C   0  0  0  0  0  0  0  0  0  0  0  0
  -13.0079    2.9277   29.0169 C   0  0  0  0  0  0  0  0  0  0  0  0
  -13.9118    2.8797   28.0475 C   0  0  0  0  0  0  0  0  0  0  0  0
  -13.7653    3.6047   26.8866 C   0  0  0  0  0  0  0  0  0  0  0  0
  -12.6345    4.3471   26.6815 C   0  0  0  0  0  0  0  0  0  0  0  0
   -7.9287    8.2792   26.5416 C   0  0  0  0  0  0  0  0  0  0  0  0
  1  2  1  0
  2  3  1  6
  2  4  1  0
  1  5  2  3
  5  6  1  0
  6  7  1  0
  7  8  1  0
  8  9  1  0
  8 15  1  0
  8 16  1  6
 15 17  2  0
 15 18  1  0
  3 19  1  0
  4 20  1  0
 20 21  1  0
 19 27  1  0
  9 10  2  0
 10 11  1  0
 11 12  2  0
 12 13  1  0
 13 14  2  0
 14  9  1  0
 21 22  2  0
 22 23  1  0
 23 24  2  0
 24 25  1  0
 25 26  2  0
 26 21  1  0
M  END
$$$$
