No_5525-complexes_sdf/6BKW-FPZ/2024-09-17-14-21-01/
     RDKit          3D

 30 32  0  0  0  0  0  0  0  0999 V2000
   -7.9040    3.9820   27.1177 C   0  0  0  0  0  0  0  0  0  0  0  0
   -8.2057    2.8231   26.8733 C   0  0  0  0  0  0  0  0  0  0  0  0
   -8.7695    5.0740   26.7916 C   0  0  0  0  0  0  0  0  0  0  0  0
   -9.9618    4.7598   26.1630 C   0  0  0  0  0  0  0  0  0  0  0  0
   -7.3763    1.7038   27.3414 C   0  0  0  0  0  0  0  0  0  0  0  0
   -9.4134    2.4504   26.3004 C   0  0  0  0  0  0  0  0  0  0  0  0
  -10.2558    3.4522   25.9218 C   0  0  0  0  0  0  0  0  0  0  0  0
   -7.8506    0.5990   27.5496 F   0  0  0  0  0  0  0  0  0  0  0  0
   -6.0965    1.8924   27.5920 F   0  0  0  0  0  0  0  0  0  0  0  0
   -8.4263    6.3415   27.0539 F   0  0  0  0  0  0  0  0  0  0  0  0
  -11.4962    3.1836   25.1624 C   0  0  0  0  0  0  0  0  0  0  0  0
  -12.6174    2.9544   25.7404 C   0  0  0  0  0  0  0  0  0  0  0  0
  -12.6210    3.0133   27.2493 C   0  0  0  0  0  0  0  0  0  0  0  0
  -13.8452    2.8393   27.9856 C   0  0  0  0  0  0  0  0  0  0  0  0
  -13.7432    2.9257   29.4112 C   0  0  0  0  0  0  0  0  0  0  0  0
  -12.4702    3.1621   30.0141 C   0  0  0  0  0  0  0  0  0  0  0  0
  -11.3813    3.3924   29.1809 C   0  0  0  0  0  0  0  0  0  0  0  0
  -11.4607    3.3444   27.8571 C   0  0  0  0  0  0  0  0  0  0  0  0
  -11.3798    3.1266   23.7334 C   0  0  0  0  0  0  0  0  0  0  0  0
  -10.4651    3.4807   23.0283 C   0  0  0  0  0  0  0  0  0  0  0  0
  -10.3446    3.4790   21.6041 C   0  0  0  0  0  0  0  0  0  0  0  0
  -11.3637    2.8651   20.9244 C   0  0  0  0  0  0  0  0  0  0  0  0
  -12.4375    2.3971   21.6674 C   0  0  0  0  0  0  0  0  0  0  0  0
  -12.4889    2.5104   23.0078 C   0  0  0  0  0  0  0  0  0  0  0  0
  -11.7427    4.5906   28.2879 C   0  0  1  0  0  0  0  0  0  0  0  0
  -11.3353    5.3496   27.6819 C   0  0  0  0  0  0  0  0  0  0  0  0
  -12.8121    4.9846   28.9975 C   0  0  0  0  0  0  0  0  0  0  0  0
  -10.9784    5.3523   26.9746 O   0  0  0  0  0  0  0  0  0  0  0  0
  -10.2626    6.7825   26.7934 C   0  0  0  0  0  0  0  0  0  0  0  0
   -9.7153    5.4569   24.7597 C   0  0  0  0  0  0  0  0  0  0  0  0
  2  5  1  0
  5  8  1  0
  5  9  1  0
  3 10  1  0
  7 11  1  0
 11 12  2  3
 12 13  1  0
 11 19  1  0
 18 25  1  0
 25 26  1  0
 25 27  1  6
 26 28  1  0
 28 29  1  0
  4 30  1  0
 13 14  2  0
 14 15  1  0
 15 16  2  0
 16 17  1  0
 17 18  2  0
 18 13  1  0
  1  2  2  0
  2  6  1  0
  6  7  2  0
  7  4  1  0
  4  3  2  0
  3  1  1  0
 19 20  2  0
 20 21  1  0
 21 22  2  0
 22 23  1  0
 23 24  2  0
 24 19  1  0
M  END
$$$$
