No_5535-complexes_sdf/6BKW-FPZ/2024-09-17-14-21-01/
     RDKit          3D

 16 17  0  0  0  0  0  0  0  0999 V2000
   -7.7129    4.2099   27.0854 C   0  0  0  0  0  0  0  0  0  0  0  0
   -7.7814    5.1722   27.8972 C   0  0  0  0  0  0  0  0  0  0  0  0
   -8.8776    3.8408   26.3416 C   0  0  0  0  0  0  0  0  0  0  0  0
   -9.9844    4.6492   26.4743 C   0  0  0  0  0  0  0  0  0  0  0  0
   -8.8033    6.1375   27.8728 C   0  0  0  0  0  0  0  0  0  0  0  0
   -9.9554    5.8280   27.1736 C   0  0  0  0  0  0  0  0  0  0  0  0
   -8.8740    2.6184   25.5584 C   0  0  0  0  0  0  0  0  0  0  0  0
   -9.7040    1.6620   26.0098 C   0  0  0  0  0  0  0  0  0  0  0  0
   -9.5239    0.4451   25.5235 C   0  0  0  0  0  0  0  0  0  0  0  0
   -8.6993    0.1169   24.7248 C   0  0  0  0  0  0  0  0  0  0  0  0
   -8.5165   -1.2016   24.1713 C   0  0  0  0  0  0  0  0  0  0  0  0
   -9.2740   -2.2000   24.6859 C   0  0  0  0  0  0  0  0  0  0  0  0
  -10.1680   -1.9441   25.6538 C   0  0  0  0  0  0  0  0  0  0  0  0
  -10.3195   -0.6594   26.1377 C   0  0  0  0  0  0  0  0  0  0  0  0
  -10.7785    1.9209   26.9602 C   0  0  0  0  0  0  0  0  0  0  0  0
  -11.5396    2.9758   26.9293 C   0  0  0  0  0  0  0  0  0  0  0  0
  3  7  1  0
  7  8  1  0
  8  9  1  0
  8 15  1  0
 15 16  2  0
  9 10  2  0
 10 11  1  0
 11 12  2  0
 12 13  1  0
 13 14  2  0
 14  9  1  0
  1  2  2  0
  2  5  1  0
  5  6  2  0
  6  4  1  0
  4  3  2  0
  3  1  1  0
M  END
$$$$
