No_5238-complexes_sdf/6BKW-FPZ/2024-09-17-14-21-01/
     RDKit          3D

 16 17  0  0  0  0  0  0  0  0999 V2000
   -7.9040    3.9820   27.1177 C   0  0  0  0  0  0  0  0  0  0  0  0
   -8.2057    2.8231   26.8733 C   0  0  0  0  0  0  0  0  0  0  0  0
   -9.2962    2.4021   26.1155 C   0  0  0  0  0  0  0  0  0  0  0  0
   -8.7358    5.0662   26.5917 C   0  0  0  0  0  0  0  0  0  0  0  0
   -9.7618    4.7023   25.7546 C   0  0  0  0  0  0  0  0  0  0  0  0
  -10.0066    3.4105   25.4922 C   0  0  0  0  0  0  0  0  0  0  0  0
   -8.3936    6.4769   26.8843 C   0  0  0  0  0  0  0  0  0  0  0  0
   -8.6493    6.7879   28.0308 F   0  0  0  0  0  0  0  0  0  0  0  0
   -7.0512    6.6926   26.7340 F   0  0  0  0  0  0  0  0  0  0  0  0
   -8.9422    7.2996   25.9424 F   0  0  0  0  0  0  0  0  0  0  0  0
   -7.3540    1.6705   27.5041 C   0  0  0  0  0  0  0  0  0  0  0  0
   -5.9572    1.8613   27.7259 C   0  0  0  0  0  0  0  0  0  0  0  0
   -5.1871    0.8162   28.2810 C   0  0  0  0  0  0  0  0  0  0  0  0
   -5.7276   -0.4521   28.4713 C   0  0  0  0  0  0  0  0  0  0  0  0
   -7.8350    0.3646   27.6049 C   0  0  0  0  0  0  0  0  0  0  0  0
   -7.0412   -0.6196   28.1380 C   0  0  0  0  0  0  0  0  0  0  0  0
  4  7  1  0
  7  8  1  0
  7  9  1  0
  7 10  1  0
  2 11  1  0
  1  2  2  0
  2  3  1  0
  3  6  2  0
  6  5  1  0
  5  4  2  0
  4  1  1  0
 11 12  2  0
 12 13  1  0
 13 14  2  0
 14 16  1  0
 16 15  2  0
 15 11  1  0
M  END
$$$$
