No_5743-complexes_sdf/6BKW-FPZ/2024-09-17-14-21-01/
     RDKit          3D

 18 19  0  0  0  0  0  0  0  0999 V2000
   -7.9040    3.9820   27.1177 C   0  0  0  0  0  0  0  0  0  0  0  0
   -7.8663    4.8694   27.9238 C   0  0  0  0  0  0  0  0  0  0  0  0
   -9.0491    3.8523   26.2542 C   0  0  0  0  0  0  0  0  0  0  0  0
   -8.7661    5.9491   27.9690 C   0  0  0  0  0  0  0  0  0  0  0  0
   -9.9295    4.8502   26.2323 C   0  0  0  0  0  0  0  0  0  0  0  0
   -9.8077    5.9288   27.0933 C   0  0  0  0  0  0  0  0  0  0  0  0
   -9.0726    2.7074   25.3087 C   0  0  0  0  0  0  0  0  0  0  0  0
  -10.0632    2.7302   24.3178 C   0  0  0  0  0  0  0  0  0  0  0  0
  -10.1785    1.6292   23.4762 C   0  0  0  0  0  0  0  0  0  0  0  0
   -9.2596    0.5311   23.6387 C   0  0  0  0  0  0  0  0  0  0  0  0
   -8.3487    0.5232   24.6508 C   0  0  0  0  0  0  0  0  0  0  0  0
   -8.2384    1.5937   25.5198 C   0  0  0  0  0  0  0  0  0  0  0  0
   -9.5185   -0.5055   22.6133 C   0  0  0  0  0  0  0  0  0  0  0  0
   -8.4517   -1.1315   22.1549 C   0  0  0  0  0  0  0  0  0  0  0  0
   -8.5461   -2.2170   21.1596 C   0  0  0  0  0  0  0  0  0  0  0  0
   -7.4188   -2.9098   20.7480 C   0  0  0  0  0  0  0  0  0  0  0  0
   -6.1426   -2.6191   21.2812 C   0  0  0  0  0  0  0  0  0  0  0  0
   -6.0364   -1.6207   22.2172 C   0  0  0  0  0  0  0  0  0  0  0  0
  3  7  1  0
 10 13  1  0
 13 14  2  3
 14 15  1  0
 15 16  2  3
 16 17  1  0
 17 18  2  0
  1  2  2  0
  2  4  1  0
  4  6  2  0
  6  5  1  0
  5  3  2  0
  3  1  1  0
  7  8  2  0
  8  9  1  0
  9 10  2  0
 10 11  1  0
 11 12  2  0
 12  7  1  0
M  END
$$$$
