No_5182-complexes_sdf/6BKW-FPZ/2024-09-17-14-21-01/
     RDKit          3D

 22 24  0  0  0  0  0  0  0  0999 V2000
   -7.7129    4.2099   27.0854 C   0  0  0  0  0  0  0  0  0  0  0  0
   -8.2112    3.0637   26.9225 C   0  0  0  0  0  0  0  0  0  0  0  0
   -8.5108    5.3904   26.9436 C   0  0  0  0  0  0  0  0  0  0  0  0
   -9.7256    5.1955   26.3518 C   0  0  0  0  0  0  0  0  0  0  0  0
   -9.4995    2.8258   26.4878 C   0  0  0  0  0  0  0  0  0  0  0  0
  -10.2542    3.9691   26.2055 C   0  0  0  0  0  0  0  0  0  0  0  0
   -7.8138    6.9227   27.2348 Cl  0  0  0  0  0  0  0  0  0  0  0  0
   -7.3640    1.8353   27.2492 C   0  0  0  0  0  0  0  0  0  0  0  0
   -6.0673    2.0156   27.7743 C   0  0  0  0  0  0  0  0  0  0  0  0
   -5.2518    0.8629   28.0582 C   0  0  0  0  0  0  0  0  0  0  0  0
   -5.7527   -0.3956   27.9078 C   0  0  0  0  0  0  0  0  0  0  0  0
   -7.6179    0.4654   27.1186 C   0  0  0  0  0  0  0  0  0  0  0  0
   -6.9867   -0.5456   27.4457 C   0  0  0  0  0  0  0  0  0  0  0  0
   -3.6562    1.2023   28.6969 Cl  0  0  0  0  0  0  0  0  0  0  0  0
  -11.6078    3.8270   25.6405 C   0  0  0  0  0  0  0  0  0  0  0  0
  -11.8489    3.7850   24.3636 N   0  0  0  0  0  0  0  0  0  0  0  0
  -10.8879    4.0333   23.4890 C   0  0  0  0  0  0  0  0  0  0  0  0
  -11.1974    4.1663   22.0286 C   0  0  0  0  0  0  0  0  0  0  0  0
  -13.0632    3.3938   23.7708 C   0  0  0  0  0  0  0  0  0  0  0  0
  -13.4060    3.4904   22.4697 C   0  0  0  0  0  0  0  0  0  0  0  0
  -12.3843    3.8701   21.6011 C   0  0  0  0  0  0  0  0  0  0  0  0
  -12.4860    3.5222   26.5424 O   0  0  0  0  0  0  0  0  0  0  0  0
  3  7  1  0
  2  8  1  0
 10 14  1  0
  6 15  1  0
 15 16  1  0
 16 17  1  0
 16 19  1  0
 18 21  1  0
 20 21  1  0
 15 22  2  0
 17 18  1  0
 20 19  1  0
  1  2  2  0
  2  5  1  0
  5  6  2  0
  6  4  1  0
  4  3  2  0
  3  1  1  0
  8  9  2  0
  9 10  1  0
 10 11  2  0
 11 13  1  0
 13 12  2  0
 12  8  1  0
M  END
$$$$
