No_5382-complexes_sdf/6BKW-FPZ/2024-09-17-14-21-01/
     RDKit          3D

 40 44  0  0  0  0  0  0  0  0999 V2000
   -7.9040    3.9820   27.1177 C   0  0  0  0  0  0  0  0  0  0  0  0
   -9.0711    4.3164   27.0630 C   0  0  0  0  0  0  0  0  0  0  0  0
   -9.8698    3.9665   25.9495 C   0  0  0  0  0  0  0  0  0  0  0  0
   -7.4046    2.7946   26.4568 C   0  0  0  0  0  0  0  0  0  0  0  0
   -8.3645    2.1023   25.7152 C   0  0  0  0  0  0  0  0  0  0  0  0
   -9.5483    2.7427   25.4386 C   0  0  0  0  0  0  0  0  0  0  0  0
   -7.0080    4.5094   28.0245 F   0  0  0  0  0  0  0  0  0  0  0  0
  -10.4665    2.1434   24.4252 C   0  0  0  0  0  0  0  0  0  0  0  0
  -10.0366    1.3429   23.5624 C   0  0  0  0  0  0  0  0  0  0  0  0
   -9.1043    0.4728   23.8536 C   0  0  0  0  0  0  0  0  0  0  0  0
   -8.0776    0.9515   24.8545 C   0  0  0  0  0  0  0  0  0  0  0  0
   -9.4556    5.6974   27.7045 C   0  0  0  0  0  0  0  0  0  0  0  0
   -8.6320   -0.7019   23.0971 C   0  0  0  0  0  0  0  0  0  0  0  0
   -7.4890   -1.1043   23.0777 C   0  0  0  0  0  0  0  0  0  0  0  0
   -7.1199   -2.3128   22.4306 C   0  0  0  0  0  0  0  0  0  0  0  0
   -7.9734   -2.7804   21.4170 C   0  0  0  0  0  0  0  0  0  0  0  0
   -9.5048   -1.2295   22.1939 C   0  0  0  0  0  0  0  0  0  0  0  0
   -9.2054   -2.2267   21.3442 C   0  0  0  0  0  0  0  0  0  0  0  0
   -7.5785   -3.9583   20.5869 C   0  0  0  0  0  0  0  0  0  0  0  0
   -7.0387   -3.8080   19.5694 C   0  0  0  0  0  0  0  0  0  0  0  0
   -6.5600   -4.9139   18.6894 C   0  0  0  0  0  0  0  0  0  0  0  0
   -6.7860   -6.1534   19.1896 C   0  0  0  0  0  0  0  0  0  0  0  0
   -7.3986   -6.3212   20.3662 C   0  0  0  0  0  0  0  0  0  0  0  0
   -7.7610   -5.2272   21.1506 C   0  0  0  0  0  0  0  0  0  0  0  0
   -7.5971   -7.6869   20.9120 C   0  0  0  0  0  0  0  0  0  0  0  0
   -7.3689   -8.0678   21.9472 O   0  0  0  0  0  0  0  0  0  0  0  0
   -7.9951   -8.5506   19.8724 O   0  0  0  0  0  0  0  0  0  0  0  0
  -11.6870    2.9613   24.1436 C   0  0  0  0  0  0  0  0  0  0  0  0
  -12.1808    2.9239   23.0001 C   0  0  0  0  0  0  0  0  0  0  0  0
  -13.4208    3.4464   22.7849 C   0  0  0  0  0  0  0  0  0  0  0  0
  -14.0304    3.7809   23.6724 C   0  0  0  0  0  0  0  0  0  0  0  0
  -13.6719    3.9921   25.0440 C   0  0  0  0  0  0  0  0  0  0  0  0
  -12.3783    3.4910   25.2868 C   0  0  0  0  0  0  0  0  0  0  0  0
  -14.3812    4.6038   25.9705 F   0  0  0  0  0  0  0  0  0  0  0  0
  -10.0871   -2.6918   20.4554 N   0  0  0  0  0  0  0  0  0  0  0  0
  -11.0432   -2.0148   19.8698 C   0  0  0  0  0  0  0  0  0  0  0  0
  -11.6334   -1.2015   20.2325 C   0  0  0  0  0  0  0  0  0  0  0  0
  -12.6922   -0.5609   19.4868 C   0  0  0  0  0  0  0  0  0  0  0  0
  -12.9707   -0.9851   18.2864 C   0  0  0  0  0  0  0  0  0  0  0  0
  -11.3875   -2.5757   18.6168 C   0  0  0  0  0  0  0  0  0  0  0  0
  1  7  1  0
  2 12  1  0
 10 13  1  0
 16 19  1  0
 23 25  1  0
 25 26  2  0
 25 27  1  0
  8 28  1  0
 32 34  1  0
 18 35  1  0
 35 36  1  0
 36 37  2  3
 37 38  1  0
 38 39  2  0
 36 40  1  0
  1  2  2  0
  2  3  1  0
  3  6  2  0
  5  4  2  0
  4  1  1  0
  5  6  1  0
  6  8  1  0
  8  9  2  0
  9 10  1  0
 10 11  2  0
 11  5  1  0
 19 20  2  0
 20 21  1  0
 21 22  2  0
 22 23  1  0
 23 24  2  0
 24 19  1  0
 13 14  2  0
 14 15  1  0
 15 16  2  0
 16 18  1  0
 18 17  2  0
 17 13  1  0
 28 29  2  0
 29 30  1  0
 30 31  2  0
 31 32  1  0
 32 33  2  0
 33 28  1  0
M  END
$$$$
