No_5247-complexes_sdf/6BKW-FPZ/2024-09-17-14-21-01/
     RDKit          3D

 19 20  0  0  0  0  0  0  0  0999 V2000
   -7.7129    4.2099   27.0854 C   0  0  0  0  0  0  0  0  0  0  0  0
   -8.2112    3.0637   26.9225 C   0  0  0  0  0  0  0  0  0  0  0  0
   -8.5108    5.3904   26.9436 C   0  0  0  0  0  0  0  0  0  0  0  0
   -9.7256    5.1955   26.3518 C   0  0  0  0  0  0  0  0  0  0  0  0
   -9.4995    2.8258   26.4878 C   0  0  0  0  0  0  0  0  0  0  0  0
  -10.2542    3.9691   26.2055 C   0  0  0  0  0  0  0  0  0  0  0  0
   -8.1384    6.6884   27.2087 N   0  0  0  0  0  0  0  0  0  0  0  0
   -7.3500    1.8403   27.2478 C   0  0  0  0  0  0  0  0  0  0  0  0
   -6.9937    1.0275   26.6803 C   0  0  0  0  0  0  0  0  0  0  0  0
   -6.4252   -0.1338   27.1884 C   0  0  0  0  0  0  0  0  0  0  0  0
   -5.4769    0.0187   28.1914 C   0  0  0  0  0  0  0  0  0  0  0  0
   -5.4258    1.3124   28.7864 C   0  0  0  0  0  0  0  0  0  0  0  0
   -6.2503    2.3143   28.3423 C   0  0  0  0  0  0  0  0  0  0  0  0
   -4.5601   -0.9402   28.8599 C   0  0  0  0  0  0  0  0  0  0  0  0
   -3.7245   -0.6981   29.4590 F   0  0  0  0  0  0  0  0  0  0  0  0
   -5.4796   -1.8067   29.5221 F   0  0  0  0  0  0  0  0  0  0  0  0
   -4.0881   -1.7712   27.7761 F   0  0  0  0  0  0  0  0  0  0  0  0
   -8.7471    7.8397   26.8033 C   0  0  0  0  0  0  0  0  0  0  0  0
   -6.6409    6.8172   26.8586 C   0  0  0  0  0  0  0  0  0  0  0  0
  3  7  1  0
  2  8  1  0
 11 14  1  0
 14 15  1  0
 14 16  1  0
 14 17  1  0
  7 18  1  0
  7 19  1  0
  8  9  2  0
  9 10  1  0
 10 11  2  0
 11 12  1  0
 12 13  2  0
 13  8  1  0
  1  2  2  0
  2  5  1  0
  5  6  2  0
  6  4  1  0
  4  3  2  0
  3  1  1  0
M  END
$$$$
