No_5258-complexes_sdf/6BKW-FPZ/2024-09-17-14-21-01/
     RDKit          3D

 26 28  0  0  0  0  0  0  0  0999 V2000
   -7.2496    3.8871   27.4508 C   0  0  0  0  0  0  0  0  0  0  0  0
   -7.9379    4.9063   27.8518 C   0  0  0  0  0  0  0  0  0  0  0  0
   -8.7729    5.5444   27.0168 C   0  0  0  0  0  0  0  0  0  0  0  0
   -7.7708    3.0049   26.4155 C   0  0  0  0  0  0  0  0  0  0  0  0
   -9.3916    4.8208   25.9624 C   0  0  0  0  0  0  0  0  0  0  0  0
   -8.8052    3.5944   25.6431 C   0  0  0  0  0  0  0  0  0  0  0  0
   -9.4401    2.8282   24.5609 C   0  0  0  0  0  0  0  0  0  0  0  0
  -10.5901    2.4660   24.7232 C   0  0  0  0  0  0  0  0  0  0  0  0
  -11.3715    2.6598   25.8645 C   0  0  0  0  0  0  0  0  0  0  0  0
  -10.8910    2.6455   26.9918 C   0  0  0  0  0  0  0  0  0  0  0  0
  -11.9084    2.7526   28.2401 C   0  0  0  0  0  0  0  0  0  0  0  0
  -13.0505    3.3728   28.0826 C   0  0  0  0  0  0  0  0  0  0  0  0
  -13.9101    3.6317   29.1165 C   0  0  0  0  0  0  0  0  0  0  0  0
  -13.5302    3.1656   30.4329 C   0  0  0  0  0  0  0  0  0  0  0  0
  -12.3244    2.4925   30.5781 C   0  0  0  0  0  0  0  0  0  0  0  0
  -11.4863    2.3146   29.5705 C   0  0  0  0  0  0  0  0  0  0  0  0
  -14.4173    3.4569   31.6015 C   0  0  0  0  0  0  0  0  0  0  0  0
  -14.9157    4.4267   31.7107 O   0  0  0  0  0  0  0  0  0  0  0  0
  -14.3787    2.5260   32.4887 O   0  0  0  0  0  0  0  0  0  0  0  0
  -11.2796    1.8330   23.5412 C   0  0  0  0  0  0  0  0  0  0  0  0
  -12.4441    2.2483   23.2090 C   0  0  0  0  0  0  0  0  0  0  0  0
  -13.0841    1.6835   22.1000 C   0  0  0  0  0  0  0  0  0  0  0  0
  -12.4051    0.7651   21.3211 C   0  0  0  0  0  0  0  0  0  0  0  0
  -11.0913    0.3816   21.6257 C   0  0  0  0  0  0  0  0  0  0  0  0
  -10.4781    0.9720   22.7424 C   0  0  0  0  0  0  0  0  0  0  0  0
   -7.3627    5.7222   28.8393 O   0  0  0  0  0  0  0  0  0  0  0  0
  6  7  1  0
  7  8  2  3
  8  9  1  0
  9 10  2  3
 10 11  1  0
 14 17  1  0
 17 18  2  0
 17 19  1  0
  8 20  1  0
  2 26  1  0
 11 12  2  0
 12 13  1  0
 13 14  2  0
 14 15  1  0
 15 16  2  0
 16 11  1  0
  1  2  2  0
  2  3  1  0
  3  5  2  0
  5  6  1  0
  6  4  2  0
  4  1  1  0
 20 21  2  0
 21 22  1  0
 22 23  2  0
 23 24  1  0
 24 25  2  0
 25 20  1  0
M  END
$$$$
