No_5190-complexes_sdf/6BKW-FPZ/2024-09-17-14-21-01/
     RDKit          3D

 20 22  0  0  0  0  0  0  0  0999 V2000
   -7.9040    3.9820   27.1177 C   0  0  0  0  0  0  0  0  0  0  0  0
   -7.8663    4.8694   27.9238 C   0  0  0  0  0  0  0  0  0  0  0  0
   -7.4547    2.7080   27.4594 C   0  0  0  0  0  0  0  0  0  0  0  0
   -7.9337    1.5946   26.8372 C   0  0  0  0  0  0  0  0  0  0  0  0
   -8.9032    1.7881   25.8510 C   0  0  0  0  0  0  0  0  0  0  0  0
   -9.3787    2.9871   25.5530 C   0  0  0  0  0  0  0  0  0  0  0  0
   -8.9781    4.0300   26.2200 C   0  0  0  0  0  0  0  0  0  0  0  0
   -8.2132    6.2312   27.6173 N   0  0  0  0  0  0  0  0  0  0  0  0
   -7.6779    7.3118   27.8641 C   0  0  0  0  0  0  0  0  0  0  0  0
   -9.2447    6.2839   26.6123 C   0  0  0  0  0  0  0  0  0  0  0  0
   -9.5782    5.2843   25.8946 C   0  0  0  0  0  0  0  0  0  0  0  0
   -7.0886    0.0882   27.2600 Cl  0  0  0  0  0  0  0  0  0  0  0  0
  -10.2246    3.1378   24.5072 O   0  0  0  0  0  0  0  0  0  0  0  0
  -10.1452    2.3911   23.3742 C   0  0  0  0  0  0  0  0  0  0  0  0
  -10.4390    3.0657   22.1944 C   0  0  0  0  0  0  0  0  0  0  0  0
  -10.7431    4.4044   22.1378 C   0  0  0  0  0  0  0  0  0  0  0  0
  -10.9285    5.0564   20.9092 C   0  0  0  0  0  0  0  0  0  0  0  0
  -10.7098    4.3355   19.7399 C   0  0  0  0  0  0  0  0  0  0  0  0
  -10.4471    3.0082   19.7234 C   0  0  0  0  0  0  0  0  0  0  0  0
  -10.2007    2.3542   20.9628 C   0  0  0  0  0  0  0  0  0  0  0  0
  1  2  1  0
  2  8  1  0
  8  9  1  0
  8 10  1  0
  7 11  1  0
  4 12  1  0
  6 13  1  0
 13 14  1  0
 14 15  1  0
 11 10  1  0
 15 16  2  0
 16 17  1  0
 17 18  2  0
 18 19  1  0
 19 20  2  0
 20 15  1  0
  1  3  2  0
  3  4  1  0
  4  5  2  0
  5  6  1  0
  6  7  2  0
  7  1  1  0
M  END
$$$$
