No_504-complexes_sdf/6BKW-FPZ/2024-09-17-14-21-01/
     RDKit          3D

 40 43  0  0  0  0  0  0  0  0999 V2000
   -7.7129    4.2099   27.0854 C   0  0  0  0  0  0  0  0  0  0  0  0
   -7.7814    5.1722   27.8972 C   0  0  0  0  0  0  0  0  0  0  0  0
   -8.8998    3.8713   26.3707 C   0  0  0  0  0  0  0  0  0  0  0  0
   -8.9563    2.6796   25.5490 C   0  0  0  0  0  0  0  0  0  0  0  0
   -8.8131    6.1334   27.9344 C   0  0  0  0  0  0  0  0  0  0  0  0
   -9.9804    5.8121   27.1929 C   0  0  0  0  0  0  0  0  0  0  0  0
   -9.9861    4.6836   26.4532 C   0  0  0  0  0  0  0  0  0  0  0  0
   -7.9461    1.9239   25.7195 F   0  0  0  0  0  0  0  0  0  0  0  0
  -10.1494    2.0054   25.7894 F   0  0  0  0  0  0  0  0  0  0  0  0
   -9.0101    3.0787   24.2450 F   0  0  0  0  0  0  0  0  0  0  0  0
   -6.6651    5.5726   28.6389 O   0  0  0  0  0  0  0  0  0  0  0  0
  -11.0469    4.4210   25.7009 O   0  0  0  0  0  0  0  0  0  0  0  0
  -12.2722    4.4141   25.9585 C   0  0  0  0  0  0  0  0  0  0  0  0
  -13.2113    4.2534   24.9720 C   0  0  0  0  0  0  0  0  0  0  0  0
  -14.5744    4.3007   25.3330 C   0  0  0  0  0  0  0  0  0  0  0  0
  -14.8112    4.3094   26.5084 C   0  0  0  0  0  0  0  0  0  0  0  0
  -13.0481    4.4315   27.2456 C   0  0  1  0  0  0  0  0  0  0  0  0
  -15.6183    4.2046   24.2770 C   0  0  0  0  0  0  0  0  0  0  0  0
  -15.8438    3.5282   23.5334 C   0  0  0  0  0  0  0  0  0  0  0  0
  -16.8940    3.5938   22.5211 C   0  0  0  0  0  0  0  0  0  0  0  0
  -17.6743    4.7134   22.5362 C   0  0  0  0  0  0  0  0  0  0  0  0
  -16.4735    5.5559   24.2524 C   0  0  0  0  0  0  0  0  0  0  0  0
  -17.4217    5.7275   23.4284 C   0  0  0  0  0  0  0  0  0  0  0  0
  -15.7906    4.3989   27.3824 C   0  0  0  0  0  0  0  0  0  0  0  0
  -15.9009    3.4546   28.2488 C   0  0  0  0  0  0  0  0  0  0  0  0
  -15.0552    2.6965   28.7602 C   0  0  0  0  0  0  0  0  0  0  0  0
  -13.6868    2.9557   28.6499 C   0  0  0  0  0  0  0  0  0  0  0  0
  -12.7786    3.4547   27.8178 C   0  0  0  0  0  0  0  0  0  0  0  0
  -12.9548    2.3821   30.3646 Br  0  0  0  0  0  0  0  0  0  0  0  0
  -17.3697    3.1433   28.3481 C   0  0  0  0  0  0  0  0  0  0  0  0
  -17.9368    2.2478   27.8813 O   0  0  0  0  0  0  0  0  0  0  0  0
  -18.1857    4.2139   28.8503 O   0  0  0  0  0  0  0  0  0  0  0  0
  -17.2575    2.3567   21.4177 Cl  0  0  0  0  0  0  0  0  0  0  0  0
  -18.2951    6.9320   23.4424 C   0  0  0  0  0  0  0  0  0  0  0  0
  -18.1586    8.0109   23.8471 F   0  0  0  0  0  0  0  0  0  0  0  0
  -19.5004    6.5298   24.1478 F   0  0  0  0  0  0  0  0  0  0  0  0
  -18.6380    7.2189   22.1121 F   0  0  0  0  0  0  0  0  0  0  0  0
  -19.4887    4.2390   28.7817 C   0  0  0  0  0  0  0  0  0  0  0  0
  -19.9926    5.6149   28.8123 C   0  0  0  0  0  0  0  0  0  0  0  0
  -20.9095    6.1048   28.5260 C   0  0  0  0  0  0  0  0  0  0  0  0
  3  4  1  0
  4  8  1  0
  4  9  1  0
  4 10  1  0
  2 11  1  0
  7 12  1  0
 12 13  1  0
 13 14  2  0
 14 15  1  0
 15 16  2  0
 13 17  1  0
 16 17  1  0
 15 18  1  0
 16 24  1  0
 24 25  1  0
 25 26  2  0
 26 27  1  0
 17 28  1  1
 27 28  1  0
 27 29  1  0
 25 30  1  0
 30 31  2  0
 30 32  1  0
 20 33  1  0
 23 34  1  0
 34 35  1  0
 34 36  1  0
 34 37  1  0
 32 38  1  0
 38 39  1  0
 39 40  2  0
 18 19  2  0
 19 20  1  0
 20 21  2  0
 21 23  1  0
 23 22  2  0
 22 18  1  0
  1  2  2  0
  2  5  1  0
  5  6  2  0
  6  7  1  0
  7  3  2  0
  3  1  1  0
M  END
$$$$
