No_5123-complexes_sdf/6BKW-FPZ/2024-09-17-14-21-01/
     RDKit          3D

 21 22  0  0  0  0  0  0  0  0999 V2000
   -7.2496    3.8871   27.4508 C   0  0  0  0  0  0  0  0  0  0  0  0
   -8.5096    4.0291   27.2770 C   0  0  0  0  0  0  0  0  0  0  0  0
   -9.3502    2.8685   26.8763 C   0  0  0  0  0  0  0  0  0  0  0  0
   -6.6288    2.5513   27.4938 C   0  0  0  0  0  0  0  0  0  0  0  0
   -7.4365    1.4714   27.2032 C   0  0  0  0  0  0  0  0  0  0  0  0
   -8.7772    1.6579   26.9338 C   0  0  0  0  0  0  0  0  0  0  0  0
   -9.1119    5.3743   27.2229 C   0  0  0  0  0  0  0  0  0  0  0  0
   -8.5881    6.2261   26.5963 F   0  0  0  0  0  0  0  0  0  0  0  0
   -9.2805    5.8547   28.5930 F   0  0  0  0  0  0  0  0  0  0  0  0
  -10.4779    5.2660   26.8407 F   0  0  0  0  0  0  0  0  0  0  0  0
   -6.7812    0.1940   27.1631 C   0  0  0  0  0  0  0  0  0  0  0  0
   -5.5547   -0.0460   27.7916 C   0  0  0  0  0  0  0  0  0  0  0  0
   -4.9338   -1.3060   27.8034 C   0  0  0  0  0  0  0  0  0  0  0  0
   -5.5526   -2.2831   27.0376 C   0  0  0  0  0  0  0  0  0  0  0  0
   -7.2437   -0.9375   26.5586 C   0  0  0  0  0  0  0  0  0  0  0  0
   -8.6131   -0.7041   25.9043 C   0  0  0  0  0  0  0  0  0  0  0  0
   -6.6818   -2.1110   26.4585 C   0  0  0  0  0  0  0  0  0  0  0  0
   -9.3624    0.5538   26.1766 C   0  0  0  0  0  0  0  0  0  0  0  0
   -9.3080    1.1571   28.3652 O   0  0  0  0  0  0  0  0  0  0  0  0
  -10.0500    1.0856   24.9070 C   0  0  0  0  0  0  0  0  0  0  0  0
  -10.6823   -0.0682   26.8445 C   0  0  0  0  0  0  0  0  0  0  0  0
  2  7  1  0
  7  8  1  0
  7  9  1  0
  7 10  1  0
  5 11  1  0
 15 16  1  0
 16 18  2  3
  6 19  1  0
 18 20  1  0
 18 21  1  0
  1  2  2  0
  2  3  1  0
  3  6  2  0
  6  5  1  0
  5  4  2  0
  4  1  1  0
 11 12  2  0
 12 13  1  0
 13 14  2  0
 14 17  1  0
 17 15  2  0
 15 11  1  0
M  END
$$$$
