No_5665-complexes_sdf/6BKW-FPZ/2024-09-17-14-21-01/
     RDKit          3D

 27 29  0  0  0  0  0  0  0  0999 V2000
   -7.9040    3.9820   27.1177 C   0  0  0  0  0  0  0  0  0  0  0  0
   -8.2057    2.8231   26.8733 C   0  0  0  0  0  0  0  0  0  0  0  0
   -9.2962    2.4021   26.1155 C   0  0  0  0  0  0  0  0  0  0  0  0
   -8.7358    5.0662   26.5917 C   0  0  0  0  0  0  0  0  0  0  0  0
   -9.7618    4.7023   25.7546 C   0  0  0  0  0  0  0  0  0  0  0  0
  -10.0066    3.4105   25.4922 C   0  0  0  0  0  0  0  0  0  0  0  0
   -8.3943    6.4760   26.8801 C   0  0  0  0  0  0  0  0  0  0  0  0
   -8.0785    6.8107   28.2034 C   0  0  0  0  0  0  0  0  0  0  0  0
   -8.5489    7.4483   25.8942 C   0  0  0  0  0  0  0  0  0  0  0  0
   -7.0682    1.5815   27.6253 Cl  0  0  0  0  0  0  0  0  0  0  0  0
  -11.0917    3.0604   24.5814 C   0  0  1  0  0  0  0  0  0  0  0  0
  -11.1477    3.5152   23.3158 C   0  0  0  0  0  0  0  0  0  0  0  0
  -11.6350    3.4327   22.4340 C   0  0  0  0  0  0  0  0  0  0  0  0
  -11.4368    4.1108   21.0682 C   0  0  0  0  0  0  0  0  0  0  0  0
  -10.3491    4.9522   21.0958 C   0  0  0  0  0  0  0  0  0  0  0  0
   -9.7404    5.2359   22.2256 C   0  0  0  0  0  0  0  0  0  0  0  0
  -10.0342    4.5589   23.3741 C   0  0  0  0  0  0  0  0  0  0  0  0
  -12.1159    2.1332   25.0273 C   0  0  0  0  0  0  0  0  0  0  0  0
  -12.3504    1.7545   26.3604 C   0  0  0  0  0  0  0  0  0  0  0  0
  -13.1777    0.7140   26.5960 C   0  0  0  0  0  0  0  0  0  0  0  0
  -13.9504    0.2130   25.5594 C   0  0  0  0  0  0  0  0  0  0  0  0
  -13.7892    0.5937   24.3030 C   0  0  0  0  0  0  0  0  0  0  0  0
  -12.8477    1.5180   24.0202 C   0  0  0  0  0  0  0  0  0  0  0  0
  -14.5956    0.0035   23.2385 C   0  0  0  0  0  0  0  0  0  0  0  0
  -14.3871    0.3582   21.9981 N   0  0  0  0  0  0  0  0  0  0  0  0
  -14.4350   -0.2048   21.1548 C   0  0  0  0  0  0  0  0  0  0  0  0
  -14.1357    0.3511   19.7830 C   0  0  0  0  0  0  0  0  0  0  0  0
  4  7  1  0
  7  8  2  0
  7  9  1  0
  2 10  1  0
 11  6  1  6
 11 18  1  0
 22 24  1  0
 24 25  1  0
 25 26  1  0
 26 27  2  0
 11 12  1  0
 12 13  2  0
 13 14  1  0
 14 15  2  0
 15 16  1  0
 16 17  2  0
 17 12  1  0
  1  2  2  0
  2  3  1  0
  3  6  2  0
  6  5  1  0
  5  4  2  0
  4  1  1  0
 18 19  2  0
 19 20  1  0
 20 21  2  0
 21 22  1  0
 22 23  2  0
 23 18  1  0
M  END
$$$$
