No_5058-complexes_sdf/6BKW-FPZ/2024-09-17-14-21-01/
     RDKit          3D

 22 24  0  0  0  0  0  0  0  0999 V2000
   -7.2496    3.8871   27.4508 C   0  0  0  0  0  0  0  0  0  0  0  0
   -7.6161    2.7143   27.1523 C   0  0  0  0  0  0  0  0  0  0  0  0
   -8.6212    2.2239   26.4073 C   0  0  0  0  0  0  0  0  0  0  0  0
   -8.2540    4.9237   27.1711 C   0  0  0  0  0  0  0  0  0  0  0  0
   -9.3729    4.5806   26.4432 C   0  0  0  0  0  0  0  0  0  0  0  0
   -9.5830    3.2969   26.1026 C   0  0  0  0  0  0  0  0  0  0  0  0
   -7.9479    6.2272   27.5121 N   0  0  0  0  0  0  0  0  0  0  0  0
   -8.8625    0.8952   26.0570 C   0  0  0  0  0  0  0  0  0  0  0  0
   -9.1669    0.0064   26.9811 C   0  0  0  0  0  0  0  0  0  0  0  0
   -9.4152   -1.3752   26.7310 C   0  0  0  0  0  0  0  0  0  0  0  0
   -9.5531    0.5826   24.8815 C   0  0  0  0  0  0  0  0  0  0  0  0
   -9.7354   -0.7317   24.4594 C   0  0  0  0  0  0  0  0  0  0  0  0
   -9.8071   -1.6753   25.4637 C   0  0  0  0  0  0  0  0  0  0  0  0
   -8.3341    7.2946   26.7379 C   0  0  0  0  0  0  0  0  0  0  0  0
   -6.3988    1.4412   27.6662 Cl  0  0  0  0  0  0  0  0  0  0  0  0
  -10.1521   -2.9134   25.1101 F   0  0  0  0  0  0  0  0  0  0  0  0
  -10.1070   -1.0528   23.0823 C   0  0  0  0  0  0  0  0  0  0  0  0
  -10.2533   -0.0102   22.1881 C   0  0  0  0  0  0  0  0  0  0  0  0
  -10.6759   -0.1678   21.1893 C   0  0  0  0  0  0  0  0  0  0  0  0
  -10.8704   -1.4909   20.5607 C   0  0  0  0  0  0  0  0  0  0  0  0
  -10.6604   -2.5484   21.4165 C   0  0  0  0  0  0  0  0  0  0  0  0
  -10.2990   -2.2976   22.6655 C   0  0  0  0  0  0  0  0  0  0  0  0
  4  7  1  0
  3  8  1  0
  7 14  1  0
  2 15  1  0
 13 16  1  0
 12 17  1  0
 17 18  2  0
 18 19  1  0
 19 20  2  0
 20 21  1  0
 21 22  2  0
 22 17  1  0
  8  9  2  0
  9 10  1  0
 10 13  2  0
 13 12  1  0
 12 11  2  0
 11  8  1  0
  1  2  2  0
  2  3  1  0
  3  6  2  0
  6  5  1  0
  5  4  2  0
  4  1  1  0
M  END
$$$$
