No_5620-complexes_sdf/6BKW-FPZ/2024-09-17-14-21-01/
     RDKit          3D

 23 24  0  0  0  0  0  0  0  0999 V2000
   -7.2496    3.8871   27.4508 C   0  0  0  0  0  0  0  0  0  0  0  0
   -7.6161    2.7143   27.1523 C   0  0  0  0  0  0  0  0  0  0  0  0
   -6.9719    1.5838   27.5324 C   0  0  0  0  0  0  0  0  0  0  0  0
   -7.4590    0.2827   27.2615 C   0  0  0  0  0  0  0  0  0  0  0  0
   -8.7521    2.5117   26.3068 C   0  0  0  0  0  0  0  0  0  0  0  0
   -9.2100    1.2391   25.9794 C   0  0  0  0  0  0  0  0  0  0  0  0
   -8.5134    0.1313   26.5112 C   0  0  0  0  0  0  0  0  0  0  0  0
   -8.0343    5.0565   27.1688 C   0  0  0  0  0  0  0  0  0  0  0  0
   -9.1387    5.0244   26.3111 C   0  0  0  0  0  0  0  0  0  0  0  0
   -9.5547    3.6826   25.9029 C   0  0  0  0  0  0  0  0  0  0  0  0
   -7.5880    6.4104   27.6699 C   0  0  1  0  0  0  0  0  0  0  0  0
   -6.7260    6.4242   28.4352 N   0  0  0  0  0  0  0  0  0  0  0  0
   -8.2695    7.7556   26.8508 P   0  0  0  0  0  0  0  0  0  0  0  0
   -9.4969    7.9397   27.2377 O   0  0  0  0  0  0  0  0  0  0  0  0
   -7.2866    8.8196   27.4364 O   0  0  0  0  0  0  0  0  0  0  0  0
   -7.9081    7.5508   25.4016 O   0  0  0  0  0  0  0  0  0  0  0  0
   -6.7177   -0.8928   27.8485 C   0  0  0  0  0  0  0  0  0  0  0  0
   -5.7067   -0.5459   28.4568 F   0  0  0  0  0  0  0  0  0  0  0  0
   -7.5070   -1.4803   28.7619 F   0  0  0  0  0  0  0  0  0  0  0  0
   -6.4265   -1.7772   26.8951 F   0  0  0  0  0  0  0  0  0  0  0  0
  -10.6936    3.5627   25.0187 C   0  0  0  0  0  0  0  0  0  0  0  0
  -10.5319    3.3930   23.7128 C   0  0  0  0  0  0  0  0  0  0  0  0
  -11.3497    3.3536   22.7519 C   0  0  0  0  0  0  0  0  0  0  0  0
  8 11  1  0
 11 12  1  6
 11 13  1  0
 13 14  1  0
 13 15  1  0
 13 16  2  0
  4 17  1  0
 17 18  1  0
 17 19  1  0
 17 20  1  0
 10 21  1  0
 21 22  2  3
 22 23  1  0
  1  2  2  0
  5 10  2  0
 10  9  1  0
  9  8  2  0
  8  1  1  0
  2  3  1  0
  3  4  2  0
  4  7  1  0
  7  6  2  0
  6  5  1  0
  5  2  1  0
M  END
$$$$
