No_5418-complexes_sdf/6BKW-FPZ/2024-09-17-14-21-01/
     RDKit          3D

 38 40  0  0  0  0  0  0  0  0999 V2000
   -7.2496    3.8871   27.4508 C   0  0  0  0  0  0  0  0  0  0  0  0
   -7.9379    4.9063   27.8518 C   0  0  0  0  0  0  0  0  0  0  0  0
   -7.4895    6.2027   27.7481 C   0  0  0  0  0  0  0  0  0  0  0  0
   -7.4701    2.5429   27.5231 C   0  0  0  0  0  0  0  0  0  0  0  0
   -8.6084    2.1269   27.3632 C   0  0  0  0  0  0  0  0  0  0  0  0
   -9.7005    3.1017   27.6307 C   0  0  0  0  0  0  0  0  0  0  0  0
   -9.3893    4.5228   27.8622 C   0  0  0  0  0  0  0  0  0  0  0  0
   -8.9702    0.9072   27.3027 F   0  0  0  0  0  0  0  0  0  0  0  0
   -8.1985    7.2393   26.8936 C   0  0  0  0  0  0  0  0  0  0  0  0
   -7.6415    8.3527   26.7893 F   0  0  0  0  0  0  0  0  0  0  0  0
   -9.4532    7.4818   27.5559 F   0  0  0  0  0  0  0  0  0  0  0  0
   -8.5041    6.7628   25.6562 F   0  0  0  0  0  0  0  0  0  0  0  0
   -6.3562    1.5644   27.2754 C   0  0  0  0  0  0  0  0  0  0  0  0
   -5.1948    1.7415   27.9743 N   0  0  0  0  0  0  0  0  0  0  0  0
   -4.2426    0.7647   27.8898 C   0  0  0  0  0  0  0  0  0  0  0  0
   -4.5144   -0.4490   28.4493 C   0  0  0  0  0  0  0  0  0  0  0  0
   -4.7821   -0.4858   29.7556 C   0  0  0  0  0  0  0  0  0  0  0  0
   -5.2459   -1.6580   30.4506 C   0  0  0  0  0  0  0  0  0  0  0  0
   -5.4590   -2.7513   29.6228 C   0  0  0  0  0  0  0  0  0  0  0  0
   -5.2404   -2.7260   28.2927 C   0  0  0  0  0  0  0  0  0  0  0  0
   -4.8206   -1.5651   27.7118 C   0  0  0  0  0  0  0  0  0  0  0  0
   -3.1050    0.9861   27.3540 O   0  0  0  0  0  0  0  0  0  0  0  0
   -5.4329   -1.6430   31.9133 C   0  0  0  0  0  0  0  0  0  0  0  0
   -6.5893   -2.0588   32.4698 N   0  0  0  0  0  0  0  0  0  0  0  0
   -6.7674   -2.9645   33.2396 C   0  0  0  0  0  0  0  0  0  0  0  0
   -8.1225   -3.2460   33.7245 C   0  0  0  0  0  0  0  0  0  0  0  0
   -9.1149   -2.6760   32.8900 C   0  0  0  0  0  0  0  0  0  0  0  0
  -10.4348   -2.7988   33.3805 C   0  0  0  0  0  0  0  0  0  0  0  0
  -11.4044   -2.3118   32.6279 N   0  0  0  0  0  0  0  0  0  0  0  0
   -4.5411   -1.1020   32.6634 O   0  0  0  0  0  0  0  0  0  0  0  0
  -11.1330    2.7281   27.7750 C   0  0  0  0  0  0  0  0  0  0  0  0
  -11.6004    1.6062   27.4638 C   0  0  0  0  0  0  0  0  0  0  0  0
  -12.9544    1.1800   27.7232 C   0  0  0  0  0  0  0  0  0  0  0  0
  -13.7559    2.0989   28.4097 C   0  0  0  0  0  0  0  0  0  0  0  0
  -13.2668    3.3138   28.8323 C   0  0  0  0  0  0  0  0  0  0  0  0
  -11.9501    3.6865   28.5933 C   0  0  0  0  0  0  0  0  0  0  0  0
  -14.1513    4.2972   29.5558 C   0  0  0  0  0  0  0  0  0  0  0  0
  -15.2810    4.0739   29.7079 O   0  0  0  0  0  0  0  0  0  0  0  0
  2  3  1  0
  5  8  1  0
  3  9  1  0
  9 10  1  0
  9 11  1  0
  9 12  1  0
  4 13  1  0
 13 14  2  3
 14 15  1  0
 15 16  1  0
 15 22  2  0
 18 23  1  0
 23 24  1  0
 24 25  1  0
 25 26  2  3
 26 27  1  0
 27 28  1  0
 28 29  1  0
 23 30  2  0
  6 31  1  0
 35 37  1  0
 37 38  2  0
 31 32  2  0
 32 33  1  0
 33 34  2  0
 34 35  1  0
 35 36  2  0
 36 31  1  0
  1  2  2  0
  2  7  1  0
  7  6  2  0
  6  5  1  0
  5  4  2  0
  4  1  1  0
 16 17  2  0
 17 18  1  0
 18 19  2  0
 19 20  1  0
 20 21  2  0
 21 16  1  0
M  END
$$$$
