No_5221-complexes_sdf/6BKW-FPZ/2024-09-17-14-21-01/
     RDKit          3D

 11 11  0  0  0  0  0  0  0  0999 V2000
   -7.7129    4.2099   27.0854 C   0  0  0  0  0  0  0  0  0  0  0  0
   -7.7814    5.1722   27.8972 C   0  0  0  0  0  0  0  0  0  0  0  0
   -7.3155    2.9699   27.6145 C   0  0  0  0  0  0  0  0  0  0  0  0
   -7.6814    1.8188   26.9581 C   0  0  0  0  0  0  0  0  0  0  0  0
   -7.2010    0.5770   27.3247 C   0  0  0  0  0  0  0  0  0  0  0  0
   -7.8389   -0.6073   26.9665 C   0  0  0  0  0  0  0  0  0  0  0  0
   -8.9524   -0.4639   26.1062 C   0  0  0  0  0  0  0  0  0  0  0  0
   -9.3616    0.7293   25.6203 C   0  0  0  0  0  0  0  0  0  0  0  0
   -8.7531    1.9077   26.1134 C   0  0  0  0  0  0  0  0  0  0  0  0
   -8.5546    6.3542   27.5976 C   0  0  0  0  0  0  0  0  0  0  0  0
   -9.1234    6.4446   26.2616 C   0  0  0  0  0  0  0  0  0  0  0  0
  1  2  1  0
  1  3  2  3
  3  4  1  0
  2 10  2  3
 10 11  1  0
  4  5  2  0
  5  6  1  0
  6  7  2  0
  7  8  1  0
  8  9  2  0
  9  4  1  0
M  END
$$$$
