No_5209-complexes_sdf/6BKW-FPZ/2024-09-17-14-21-01/
     RDKit          3D

 24 27  0  0  0  0  0  0  0  0999 V2000
   -7.2496    3.8871   27.4508 C   0  0  0  0  0  0  0  0  0  0  0  0
   -7.9379    4.9063   27.8518 C   0  0  0  0  0  0  0  0  0  0  0  0
   -7.5112    6.1898   27.6280 C   0  0  0  0  0  0  0  0  0  0  0  0
   -9.3085    4.6933   28.2930 C   0  0  0  0  0  0  0  0  0  0  0  0
   -7.7804    2.5137   27.6844 C   0  0  0  0  0  0  0  0  0  0  0  0
   -9.1546    2.3398   27.7350 C   0  0  0  0  0  0  0  0  0  0  0  0
   -9.8867    3.4718   28.2310 C   0  0  0  0  0  0  0  0  0  0  0  0
   -6.9583    1.3805   27.1142 C   0  0  0  0  0  0  0  0  0  0  0  0
   -5.8365    1.0423   27.9906 C   0  0  0  0  0  0  0  0  0  0  0  0
   -5.0855   -0.1401   27.6949 C   0  0  0  0  0  0  0  0  0  0  0  0
   -5.5513   -0.9398   26.6568 C   0  0  0  0  0  0  0  0  0  0  0  0
   -7.3575    0.4108   26.2853 C   0  0  0  0  0  0  0  0  0  0  0  0
   -6.6792   -0.6669   25.9676 C   0  0  0  0  0  0  0  0  0  0  0  0
   -3.8369   -0.3744   28.4346 C   0  0  0  0  0  0  0  0  0  0  0  0
   -3.7368    0.0547   29.6910 C   0  0  0  0  0  0  0  0  0  0  0  0
   -2.7864   -1.0569   27.8239 C   0  0  0  0  0  0  0  0  0  0  0  0
   -3.4793   -0.8169   30.7543 C   0  0  0  0  0  0  0  0  0  0  0  0
   -3.5917   -0.3930   32.1075 C   0  0  0  0  0  0  0  0  0  0  0  0
   -3.1563   -1.2723   33.1660 C   0  0  0  0  0  0  0  0  0  0  0  0
   -2.6898   -2.5077   32.8648 C   0  0  0  0  0  0  0  0  0  0  0  0
   -2.5871   -2.8864   31.5542 C   0  0  0  0  0  0  0  0  0  0  0  0
   -2.9080   -2.0582   30.5269 C   0  0  0  0  0  0  0  0  0  0  0  0
   -2.9130   -1.7848   27.0011 C   0  0  0  0  0  0  0  0  0  0  0  0
   -4.7017   -1.9535   26.1683 C   0  0  0  0  0  0  0  0  0  0  0  0
  2  3  1  0
  5  8  1  0
 14 15  1  0
 15 17  1  0
 17 18  2  0
 18 19  1  0
 19 20  2  0
 20 21  1  0
 21 22  2  0
 22 17  1  0
 11 24  2  0
 24 23  1  0
 23 16  2  0
 16 14  1  0
 14 10  2  0
  1  2  2  0
  2  4  1  0
  4  7  2  0
  7  6  1  0
  6  5  2  0
  5  1  1  0
  8  9  2  0
  9 10  1  0
 10 11  1  0
 11 13  1  0
 13 12  2  0
 12  8  1  0
M  END
$$$$
