No_5486-complexes_sdf/6BKW-FPZ/2024-09-17-14-21-01/
     RDKit          3D

 31 35  0  0  0  0  0  0  0  0999 V2000
   -7.9040    3.9820   27.1177 C   0  0  0  0  0  0  0  0  0  0  0  0
   -8.2057    2.8231   26.8733 C   0  0  0  0  0  0  0  0  0  0  0  0
   -9.2962    2.4021   26.1155 C   0  0  0  0  0  0  0  0  0  0  0  0
   -8.7358    5.0662   26.5917 C   0  0  0  0  0  0  0  0  0  0  0  0
   -9.7618    4.7023   25.7546 C   0  0  0  0  0  0  0  0  0  0  0  0
  -10.0066    3.4105   25.4922 C   0  0  0  0  0  0  0  0  0  0  0  0
   -8.3936    6.4769   26.8844 C   0  0  0  0  0  0  0  0  0  0  0  0
   -8.1939    6.7736   28.0729 O   0  0  0  0  0  0  0  0  0  0  0  0
   -8.2112    7.3308   25.9618 O   0  0  0  0  0  0  0  0  0  0  0  0
   -7.3545    1.6685   27.5039 C   0  0  0  0  0  0  0  0  0  0  0  0
   -5.9872    1.9225   27.7947 C   0  0  0  0  0  0  0  0  0  0  0  0
   -5.1974    0.8676   28.3038 C   0  0  0  0  0  0  0  0  0  0  0  0
   -5.7128   -0.3855   28.4798 C   0  0  0  0  0  0  0  0  0  0  0  0
   -7.7974    0.3548   27.5689 C   0  0  0  0  0  0  0  0  0  0  0  0
   -7.0299   -0.6184   28.0924 C   0  0  0  0  0  0  0  0  0  0  0  0
   -4.8857   -1.4402   29.0638 C   0  0  0  0  0  0  0  0  0  0  0  0
   -3.6966   -1.2253   29.4737 C   0  0  0  0  0  0  0  0  0  0  0  0
   -2.8572   -2.2060   30.0721 C   0  0  0  0  0  0  0  0  0  0  0  0
   -3.3725   -3.3811   30.2158 C   0  0  0  0  0  0  0  0  0  0  0  0
   -5.3865   -2.6959   29.3456 C   0  0  0  0  0  0  0  0  0  0  0  0
   -4.6602   -3.6684   29.9333 C   0  0  0  0  0  0  0  0  0  0  0  0
  -11.0935    3.0805   24.5631 C   0  0  0  0  0  0  0  0  0  0  0  0
  -12.2873    2.7842   24.9369 C   0  0  0  0  0  0  0  0  0  0  0  0
  -10.7756    3.1208   23.1483 C   0  0  0  0  0  0  0  0  0  0  0  0
  -11.6604    2.8649   22.1665 C   0  0  0  0  0  0  0  0  0  0  0  0
  -13.3115    2.5182   23.9726 C   0  0  0  0  0  0  0  0  0  0  0  0
  -12.9709    2.5896   22.6051 C   0  0  0  0  0  0  0  0  0  0  0  0
   -5.2534   -4.9980   30.1337 C   0  0  0  0  0  0  0  0  0  0  0  0
   -6.3743   -5.2729   29.7361 C   0  0  0  0  0  0  0  0  0  0  0  0
   -7.1446   -4.2083   29.1077 C   0  0  0  0  0  0  0  0  0  0  0  0
   -6.7239   -2.9855   28.8600 C   0  0  0  0  0  0  0  0  0  0  0  0
  4  7  1  0
  7  8  1  0
  7  9  2  0
  2 10  1  0
 13 16  1  0
  6 22  1  0
  1  2  2  0
  2  3  1  0
  3  6  2  0
  6  5  1  0
  5  4  2  0
  4  1  1  0
 10 11  2  0
 11 12  1  0
 12 13  2  0
 13 15  1  0
 15 14  2  0
 14 10  1  0
 22 23  2  0
 23 26  1  0
 26 27  2  0
 27 25  1  0
 25 24  2  0
 24 22  1  0
 21 28  2  0
 28 29  1  0
 29 30  2  0
 30 31  1  0
 31 20  2  0
 16 17  2  0
 17 18  1  0
 18 19  2  0
 19 21  1  0
 21 20  1  0
 20 16  1  0
M  END
$$$$
