No_5215-complexes_sdf/6BKW-FPZ/2024-09-17-14-21-01/
     RDKit          3D

 40 44  0  0  0  0  0  0  0  0999 V2000
   -7.2496    3.8871   27.4508 C   0  0  0  0  0  0  0  0  0  0  0  0
   -7.9379    4.9063   27.8518 C   0  0  0  0  0  0  0  0  0  0  0  0
   -7.5112    6.1898   27.6280 C   0  0  0  0  0  0  0  0  0  0  0  0
   -7.8078    2.6331   27.2522 C   0  0  2  0  0  0  0  0  0  0  0  0
   -9.1846    2.4724   27.5426 C   0  0  0  0  0  0  0  0  0  0  0  0
   -9.9168    3.5155   28.0405 C   0  0  0  0  0  0  0  0  0  0  0  0
   -9.3366    4.7963   28.1727 C   0  0  0  0  0  0  0  0  0  0  0  0
  -11.3251    3.2741   28.4031 C   0  0  0  0  0  0  0  0  0  0  0  0
  -11.8022    2.0322   28.7055 C   0  0  0  0  0  0  0  0  0  0  0  0
  -13.1146    1.8250   29.1070 C   0  0  0  0  0  0  0  0  0  0  0  0
  -13.9407    2.9390   29.3089 C   0  0  0  0  0  0  0  0  0  0  0  0
  -13.5179    4.2135   28.9982 C   0  0  0  0  0  0  0  0  0  0  0  0
  -12.2019    4.4090   28.5809 C   0  0  0  0  0  0  0  0  0  0  0  0
   -7.0583    1.4361   26.8675 C   0  0  1  0  0  0  0  0  0  0  0  0
   -5.6192    1.1261   27.6061 Cl  0  0  0  0  0  0  0  0  0  0  0  0
   -7.5199    0.4935   25.9732 C   0  0  0  0  0  0  0  0  0  0  0  0
   -7.9221   -0.6542   26.3821 N   0  0  0  0  0  0  0  0  0  0  0  0
   -9.0487   -1.2648   26.0953 C   0  0  2  0  0  0  0  0  0  0  0  0
   -9.4134   -2.4426   26.7081 C   0  0  0  0  0  0  0  0  0  0  0  0
   -9.0915   -2.7140   27.6389 C   0  0  0  0  0  0  0  0  0  0  0  0
   -7.8140   -2.2211   28.2889 C   0  0  1  0  0  0  0  0  0  0  0  0
   -7.2958   -1.1267   27.6639 C   0  0  0  0  0  0  0  0  0  0  0  0
   -9.6862   -0.7678   24.8582 C   0  0  0  0  0  0  0  0  0  0  0  0
  -10.9767   -0.5631   24.8566 C   0  0  0  0  0  0  0  0  0  0  0  0
  -11.6319   -0.0096   23.7424 C   0  0  0  0  0  0  0  0  0  0  0  0
  -10.8589    0.3486   22.6609 C   0  0  0  0  0  0  0  0  0  0  0  0
   -9.4637    0.2048   22.6687 C   0  0  0  0  0  0  0  0  0  0  0  0
   -8.8646   -0.3030   23.7717 C   0  0  0  0  0  0  0  0  0  0  0  0
  -15.3606    2.7062   29.7276 C   0  0  0  0  0  0  0  0  0  0  0  0
  -16.0513    1.9745   29.2716 C   0  0  0  0  0  0  0  0  0  0  0  0
  -17.4465    1.7453   29.7050 C   0  0  0  0  0  0  0  0  0  0  0  0
  -17.9096    2.5966   30.7150 C   0  0  0  0  0  0  0  0  0  0  0  0
  -17.1037    3.5321   31.2794 C   0  0  0  0  0  0  0  0  0  0  0  0
  -15.7528    3.6963   30.8591 C   0  0  0  0  0  0  0  0  0  0  0  0
   -8.3325    7.2179   27.2262 F   0  0  0  0  0  0  0  0  0  0  0  0
   -7.0999   -2.5606   29.5018 C   0  0  0  0  0  0  0  0  0  0  0  0
   -6.3388   -3.3966   29.5954 C   0  0  0  0  0  0  0  0  0  0  0  0
   -5.5021   -3.7300   30.1741 C   0  0  0  0  0  0  0  0  0  0  0  0
   -4.7148   -3.6965   30.8240 C   0  0  0  0  0  0  0  0  0  0  0  0
   -5.1613   -3.8489   32.1823 C   0  0  0  0  0  0  0  0  0  0  0  0
  1  2  1  0
  2  3  2  3
  4  1  1  1
  4  5  1  0
  5  6  1  0
  2  7  1  0
  6  7  1  0
  6  8  1  0
  4 14  1  0
 14 15  1  1
 14 16  1  0
 16 17  1  0
 17 18  1  0
 19 20  1  0
 17 22  1  0
 21 22  1  1
 18 23  1  6
 11 29  1  0
  3 35  1  0
 21 36  1  0
 36 37  2  3
 37 38  1  0
 38 39  3  0
 39 40  1  0
 18 19  1  0
 20 21  1  0
 23 24  2  0
 24 25  1  0
 25 26  2  0
 26 27  1  0
 27 28  2  0
 28 23  1  0
 29 30  2  0
 30 31  1  0
 31 32  2  0
 32 33  1  0
 33 34  2  0
 34 29  1  0
  8  9  2  0
  9 10  1  0
 10 11  2  0
 11 12  1  0
 12 13  2  0
 13  8  1  0
M  END
$$$$
