No_5985-complexes_sdf/6BKW-FPZ/2024-09-17-14-21-01/
     RDKit          3D

 29 30  0  0  0  0  0  0  0  0999 V2000
   -7.9040    3.9820   27.1177 C   0  0  0  0  0  0  0  0  0  0  0  0
   -7.8663    4.8694   27.9238 C   0  0  1  0  0  0  0  0  0  0  0  0
   -7.4547    2.7080   27.4594 C   0  0  0  0  0  0  0  0  0  0  0  0
   -7.9337    1.5946   26.8372 C   0  0  0  0  0  0  0  0  0  0  0  0
   -8.9032    1.7881   25.8510 C   0  0  0  0  0  0  0  0  0  0  0  0
   -9.3787    2.9871   25.5530 C   0  0  0  0  0  0  0  0  0  0  0  0
   -8.9781    4.0300   26.2200 C   0  0  0  0  0  0  0  0  0  0  0  0
   -7.0494    4.9084   28.9613 F   0  0  0  0  0  0  0  0  0  0  0  0
   -8.4259    6.2490   27.6837 C   0  0  0  0  0  0  0  0  0  0  0  0
   -8.4725    6.9256   26.8998 C   0  0  0  0  0  0  0  0  0  0  0  0
   -7.7333    7.0297   25.6706 C   0  0  0  0  0  0  0  0  0  0  0  0
  -10.3471    3.1085   24.4340 C   0  0  0  0  0  0  0  0  0  0  0  0
  -11.1510    4.2461   24.3394 C   0  0  0  0  0  0  0  0  0  0  0  0
  -10.4378    2.1691   23.4399 C   0  0  0  0  0  0  0  0  0  0  0  0
  -11.2496    2.3556   22.3159 C   0  0  0  0  0  0  0  0  0  0  0  0
  -12.0026    4.4525   23.2735 C   0  0  0  0  0  0  0  0  0  0  0  0
  -12.0399    3.5179   22.2502 C   0  0  0  0  0  0  0  0  0  0  0  0
   -7.3183    0.2705   27.1219 C   0  0  0  0  0  0  0  0  0  0  0  0
   -7.9636   -0.6912   27.3928 O   0  0  0  0  0  0  0  0  0  0  0  0
   -6.0388    0.2546   27.3997 O   0  0  0  0  0  0  0  0  0  0  0  0
   -5.2604   -0.7279   27.3867 C   0  0  0  0  0  0  0  0  0  0  0  0
   -4.2179   -0.3572   26.9036 C   0  0  0  0  0  0  0  0  0  0  0  0
   -3.6432    0.9027   26.8017 C   0  0  0  0  0  0  0  0  0  0  0  0
   -4.2009    1.7516   27.7299 C   0  0  0  0  0  0  0  0  0  0  0  0
   -5.2607    1.1161   28.4288 C   0  0  1  0  0  0  0  0  0  0  0  0
   -4.8045    0.4127   29.5432 N   0  0  0  0  0  0  0  0  0  0  0  0
   -6.0484    2.1757   28.8400 O   0  0  0  0  0  0  0  0  0  0  0  0
   -6.9736    2.4121   28.3017 F   0  0  0  0  0  0  0  0  0  0  0  0
   -6.2124    2.8236   26.6429 F   0  0  0  0  0  0  0  0  0  0  0  0
  1  2  1  0
  2  8  1  6
  2  9  1  0
  9 10  2  3
 10 11  1  0
  6 12  1  0
  4 18  1  0
 18 19  2  0
 18 20  1  0
 20 21  1  0
 21 22  2  3
 22 23  1  0
 23 24  2  3
 24 25  1  0
 25 26  1  1
 25 27  1  0
 27 28  1  0
  3 29  1  0
 12 13  2  0
 13 16  1  0
 16 17  2  0
 17 15  1  0
 15 14  2  0
 14 12  1  0
  1  3  2  0
  3  4  1  0
  4  5  2  0
  5  6  1  0
  6  7  2  0
  7  1  1  0
M  END
$$$$
