No_5143-complexes_sdf/6BKW-FPZ/2024-09-17-14-21-01/
     RDKit          3D

 24 26  0  0  0  0  0  0  0  0999 V2000
   -7.2496    3.8871   27.4508 C   0  0  0  0  0  0  0  0  0  0  0  0
   -8.5096    4.0291   27.2770 C   0  0  0  0  0  0  0  0  0  0  0  0
   -9.2677    5.1714   27.5773 C   0  0  0  0  0  0  0  0  0  0  0  0
   -9.2765    2.8248   26.8371 C   0  0  0  0  0  0  0  0  0  0  0  0
  -10.4623    3.0171   26.3236 C   0  0  0  0  0  0  0  0  0  0  0  0
  -10.8972    2.6250   25.3350 C   0  0  0  0  0  0  0  0  0  0  0  0
  -11.3836    2.9387   24.4653 C   0  0  0  0  0  0  0  0  0  0  0  0
  -10.6010    5.3194   27.2422 C   0  0  0  0  0  0  0  0  0  0  0  0
  -11.1098    4.3834   26.5399 C   0  0  0  0  0  0  0  0  0  0  0  0
  -11.8570    2.2125   23.2416 C   0  0  0  0  0  0  0  0  0  0  0  0
   -6.5393    4.9905   28.0870 C   0  0  0  0  0  0  0  0  0  0  0  0
  -11.4331    0.9179   23.2975 C   0  0  0  0  0  0  0  0  0  0  0  0
  -10.5180    1.1069   24.8561 C   0  0  0  0  0  0  0  0  0  0  0  0
   -6.5527    2.6155   27.4522 C   0  0  2  0  0  0  0  0  0  0  0  0
   -5.1878    2.6319   27.8576 N   0  0  0  0  0  0  0  0  0  0  0  0
   -6.9781    1.5356   26.9493 N   0  0  0  0  0  0  0  0  0  0  0  0
   -7.5561    0.5583   27.0577 C   0  0  0  0  0  0  0  0  0  0  0  0
   -6.8814   -0.4655   27.7765 C   0  0  0  0  0  0  0  0  0  0  0  0
   -6.7153   -1.4252   27.4498 C   0  0  0  0  0  0  0  0  0  0  0  0
   -5.9344   -2.4104   28.2352 C   0  0  0  0  0  0  0  0  0  0  0  0
   -5.5123   -2.1044   29.5299 C   0  0  0  0  0  0  0  0  0  0  0  0
   -5.7481   -0.7708   29.9159 C   0  0  0  0  0  0  0  0  0  0  0  0
   -6.3309    0.0600   29.0860 C   0  0  0  0  0  0  0  0  0  0  0  0
   -8.8012    0.3047   26.9408 O   0  0  0  0  0  0  0  0  0  0  0  0
  1  2  1  0
  6  7  1  0
  7 10  2  0
  1 11  2  0
 10 12  1  0
  6 13  1  0
 12 13  2  0
  1 14  1  0
 14 15  1  6
 14 16  1  0
 16 17  1  0
 17 18  1  0
 17 24  2  0
  6  5  1  0
 18 19  2  0
 19 20  1  0
 20 21  2  0
 21 22  1  0
 22 23  2  0
 23 18  1  0
  2  3  2  0
  3  8  1  0
  8  9  2  0
  9  5  1  0
  5  4  2  0
  4  2  1  0
M  END
$$$$
