No_5863-complexes_sdf/6BKW-FPZ/2024-09-17-14-21-01/
     RDKit          3D

 40 44  0  0  0  0  0  0  0  0999 V2000
   -7.7129    4.2099   27.0854 C   0  0  0  0  0  0  0  0  0  0  0  0
   -8.9133    4.4736   27.0998 C   0  0  2  0  0  0  0  0  0  0  0  0
   -9.7135    3.9633   26.0300 C   0  0  0  0  0  0  0  0  0  0  0  0
   -7.3002    3.3277   27.8539 C   0  0  0  0  0  0  0  0  0  0  0  0
   -7.9664    2.0197   27.4625 C   0  0  0  0  0  0  0  0  0  0  0  0
   -9.8034    2.5560   25.9023 C   0  0  0  0  0  0  0  0  0  0  0  0
   -8.9339    1.6854   26.6335 C   0  0  0  0  0  0  0  0  0  0  0  0
   -9.2538    6.0873   27.0647 C   0  0  0  0  0  0  0  0  0  0  0  0
   -9.7244    4.1627   28.3667 C   0  0  0  0  0  0  0  0  0  0  0  0
   -8.0781    6.8256   26.6051 C   0  0  0  0  0  0  0  0  0  0  0  0
  -10.1641    4.7021   24.8783 C   0  0  0  0  0  0  0  0  0  0  0  0
  -10.7306    4.1459   23.7539 C   0  0  0  0  0  0  0  0  0  0  0  0
  -10.2876    1.9737   24.7283 C   0  0  0  0  0  0  0  0  0  0  0  0
  -10.7977    2.7963   23.7014 C   0  0  0  0  0  0  0  0  0  0  0  0
  -11.4183    2.1981   22.5101 C   0  0  0  0  0  0  0  0  0  0  0  0
  -12.0615    2.8439   21.7323 N   0  0  0  0  0  0  0  0  0  0  0  0
  -11.2143    0.9318   22.1963 O   0  0  0  0  0  0  0  0  0  0  0  0
  -12.6858    2.4069   20.4696 C   0  0  0  0  0  0  0  0  0  0  0  0
   -8.0716    8.2552   27.3192 C   0  0  0  0  0  0  0  0  0  0  0  0
   -9.1561    0.2194   26.5790 C   0  0  0  0  0  0  0  0  0  0  0  0
   -8.1540   -0.5859   26.7802 C   0  0  0  0  0  0  0  0  0  0  0  0
   -8.3477   -2.0266   26.7532 C   0  0  0  0  0  0  0  0  0  0  0  0
   -9.6482   -2.4635   26.4817 C   0  0  0  0  0  0  0  0  0  0  0  0
  -10.6853   -1.6030   26.2723 C   0  0  0  0  0  0  0  0  0  0  0  0
  -10.4360   -0.2463   26.3444 C   0  0  0  0  0  0  0  0  0  0  0  0
  -12.0287   -2.0925   25.9796 C   0  0  0  0  0  0  0  0  0  0  0  0
  -12.5233   -2.0884   24.9288 O   0  0  0  0  0  0  0  0  0  0  0  0
  -12.8615   -2.1806   27.0108 O   0  0  0  0  0  0  0  0  0  0  0  0
   -7.2265   -2.9013   27.0766 C   0  0  0  0  0  0  0  0  0  0  0  0
   -7.1260   -3.5046   27.9622 C   0  0  0  0  0  0  0  0  0  0  0  0
   -5.9463   -4.3821   28.3176 C   0  0  0  0  0  0  0  0  0  0  0  0
   -4.9545   -4.3773   27.3753 C   0  0  0  0  0  0  0  0  0  0  0  0
   -6.1154   -2.8491   26.1411 C   0  0  0  0  0  0  0  0  0  0  0  0
   -5.0212   -3.5738   26.2709 C   0  0  0  0  0  0  0  0  0  0  0  0
   -8.1646   -3.6514   29.1598 C   0  0  0  0  0  0  0  0  0  0  0  0
   -9.1104   -3.3108   29.2087 C   0  0  0  0  0  0  0  0  0  0  0  0
  -10.0379   -3.4310   30.3912 C   0  0  0  0  0  0  0  0  0  0  0  0
   -9.5392   -3.8622   31.5427 C   0  0  0  0  0  0  0  0  0  0  0  0
   -8.2038   -4.2084   31.5887 C   0  0  0  0  0  0  0  0  0  0  0  0
   -7.4544   -4.0979   30.4995 C   0  0  0  0  0  0  0  0  0  0  0  0
  1  2  1  0
  2  3  1  0
  1  4  2  0
  4  5  1  0
  5  7  2  0
  6  7  1  0
  2  8  1  0
  2  9  1  1
  8 10  1  0
 14 15  1  0
 15 16  1  0
 15 17  2  0
 16 18  1  0
 10 19  1  0
  7 20  1  0
 24 26  1  0
 26 27  1  0
 26 28  2  0
 22 29  1  0
 30 35  1  0
 29 30  1  0
 30 31  2  0
 31 32  1  0
 32 34  2  0
 34 33  1  0
 33 29  2  0
 35 36  2  0
 36 37  1  0
 37 38  2  0
 38 39  1  0
 39 40  2  0
 40 35  1  0
  3  6  2  0
  6 13  1  0
 13 14  2  0
 14 12  1  0
 12 11  2  0
 11  3  1  0
 20 21  2  0
 21 22  1  0
 22 23  2  0
 23 24  1  0
 24 25  2  0
 25 20  1  0
M  END
$$$$
