No_593-complexes_sdf/6BKW-FPZ/2024-09-17-14-21-01/
     RDKit          3D

 13 14  0  0  0  0  0  0  0  0999 V2000
   -7.2496    3.8871   27.4508 C   0  0  0  0  0  0  0  0  0  0  0  0
   -7.6161    2.7143   27.1523 C   0  0  0  0  0  0  0  0  0  0  0  0
   -8.6212    2.2239   26.4074 C   0  0  0  0  0  0  0  0  0  0  0  0
   -8.2540    4.9237   27.1711 C   0  0  0  0  0  0  0  0  0  0  0  0
   -9.3729    4.5806   26.4433 C   0  0  0  0  0  0  0  0  0  0  0  0
   -9.5830    3.2969   26.1026 C   0  0  0  0  0  0  0  0  0  0  0  0
   -7.9303    6.3207   27.5389 C   0  0  0  0  0  0  0  0  0  0  0  0
   -8.8114    7.3691   27.0321 C   0  0  0  0  0  0  0  0  0  0  0  0
   -6.6694    1.6215   27.5542 N   0  0  0  0  0  0  0  0  0  0  0  0
   -5.4468    1.8862   28.1137 C   0  0  0  0  0  0  0  0  0  0  0  0
   -4.5690    0.6522   28.1858 C   0  0  0  0  0  0  0  0  0  0  0  0
   -6.9534    0.2740   27.4347 C   0  0  0  0  0  0  0  0  0  0  0  0
   -5.2728   -0.4265   28.0318 C   0  0  0  0  0  0  0  0  0  0  0  0
  4  7  1  0
  7  8  2  0
  2  9  1  0
  9 10  1  0
 10 11  2  0
  9 12  1  0
 11 13  1  0
 12 13  2  0
  1  2  2  0
  2  3  1  0
  3  6  2  0
  6  5  1  0
  5  4  2  0
  4  1  1  0
M  END
$$$$
