No_5345-complexes_sdf/6BKW-FPZ/2024-09-17-14-21-01/
     RDKit          3D

 23 25  0  0  0  0  0  0  0  0999 V2000
   -7.9040    3.9820   27.1177 C   0  0  0  0  0  0  0  0  0  0  0  0
   -7.8663    4.8694   27.9238 C   0  0  0  0  0  0  0  0  0  0  0  0
   -9.0501    3.8017   26.2617 C   0  0  0  0  0  0  0  0  0  0  0  0
  -10.0189    4.7608   26.3707 C   0  0  0  0  0  0  0  0  0  0  0  0
   -8.6770    5.9780   27.9222 C   0  0  0  0  0  0  0  0  0  0  0  0
   -9.8040    5.8752   27.0958 C   0  0  0  0  0  0  0  0  0  0  0  0
   -9.1165    2.7696   25.4779 F   0  0  0  0  0  0  0  0  0  0  0  0
   -7.0174    2.9488   27.1035 F   0  0  0  0  0  0  0  0  0  0  0  0
  -11.0288    4.7293   25.5015 O   0  0  0  0  0  0  0  0  0  0  0  0
  -11.1543    4.0509   24.4174 C   0  0  0  0  0  0  0  0  0  0  0  0
  -11.7310    2.9108   24.4177 C   0  0  0  0  0  0  0  0  0  0  0  0
  -11.7144    2.1107   23.3289 C   0  0  0  0  0  0  0  0  0  0  0  0
  -10.5930    4.5779   23.2357 C   0  0  0  0  0  0  0  0  0  0  0  0
  -10.5680    3.9405   22.0426 C   0  0  0  0  0  0  0  0  0  0  0  0
  -11.1482    2.6751   22.0370 C   0  0  0  0  0  0  0  0  0  0  0  0
  -11.1645    1.8759   20.7936 C   0  0  2  0  0  0  0  0  0  0  0  0
  -10.4393    0.6905   20.8499 C   0  0  0  0  0  0  0  0  0  0  0  0
   -9.4190    0.4603   21.6921 C   0  0  0  0  0  0  0  0  0  0  0  0
   -8.6445   -0.7602   21.7263 C   0  0  0  0  0  0  0  0  0  0  0  0
   -8.9141   -1.6990   20.7214 C   0  0  0  0  0  0  0  0  0  0  0  0
  -10.6459   -0.3465   19.8855 C   0  0  0  0  0  0  0  0  0  0  0  0
   -9.8999   -1.4742   19.8405 C   0  0  0  0  0  0  0  0  0  0  0  0
  -11.8011    2.3691   19.6944 C   0  0  0  0  0  0  0  0  0  0  0  0
  3  7  1  0
  1  8  1  0
  4  9  1  0
  9 10  1  0
 15 16  1  0
 16 17  1  0
 16 23  1  6
 17 18  2  0
 18 19  1  0
 19 20  2  0
 20 22  1  0
 22 21  2  0
 21 17  1  0
  1  2  2  0
  2  5  1  0
  5  6  2  0
  6  4  1  0
  4  3  2  0
  3  1  1  0
 10 11  2  0
 11 12  1  0
 12 15  2  0
 15 14  1  0
 14 13  2  0
 13 10  1  0
M  END
$$$$
