No_5676-complexes_sdf/6BKW-FPZ/2024-09-17-14-21-01/
     RDKit          3D

 18 20  0  0  0  0  0  0  0  0999 V2000
   -7.2496    3.8871   27.4508 C   0  0  0  0  0  0  0  0  0  0  0  0
   -8.5096    4.0291   27.2770 C   0  0  0  0  0  0  0  0  0  0  0  0
   -9.3451    2.8786   26.9046 C   0  0  0  0  0  0  0  0  0  0  0  0
   -6.6065    2.5680   27.5073 C   0  0  0  0  0  0  0  0  0  0  0  0
   -7.3970    1.4834   27.2271 C   0  0  0  0  0  0  0  0  0  0  0  0
   -8.7029    1.6398   26.9934 C   0  0  0  0  0  0  0  0  0  0  0  0
   -9.1085    5.3654   27.2135 C   0  0  0  0  0  0  0  0  0  0  0  0
   -8.3130    6.4941   26.9862 C   0  0  0  0  0  0  0  0  0  0  0  0
   -8.3326    7.7082   27.0903 C   0  0  0  0  0  0  0  0  0  0  0  0
   -6.7598    0.1841   27.2921 C   0  0  0  0  0  0  0  0  0  0  0  0
   -7.2946   -0.8384   27.3122 N   0  0  0  0  0  0  0  0  0  0  0  0
   -5.2438    0.1667   27.3327 C   0  0  0  0  0  0  0  0  0  0  0  0
   -4.6410   -1.0244   27.1502 C   0  0  0  0  0  0  0  0  0  0  0  0
   -6.7272   -2.0968   27.2429 C   0  0  0  0  0  0  0  0  0  0  0  0
   -5.3638   -2.1900   27.1930 C   0  0  0  0  0  0  0  0  0  0  0  0
   -9.6841    8.0695   27.2121 C   0  0  0  0  0  0  0  0  0  0  0  0
  -10.6117    7.1184   27.6426 C   0  0  0  0  0  0  0  0  0  0  0  0
  -10.4010    5.7580   27.5423 C   0  0  0  0  0  0  0  0  0  0  0  0
  2  7  1  0
  5 10  1  0
 10 11  2  0
 11 14  1  0
 14 15  2  0
 15 13  1  0
 13 12  2  0
 12 10  1  0
  1  2  2  0
  2  3  1  0
  3  6  2  0
  6  5  1  0
  5  4  2  0
  4  1  1  0
  7  8  2  0
  8  9  1  0
  9 16  2  0
 16 17  1  0
 17 18  2  0
 18  7  1  0
M  END
$$$$
