No_536-complexes_sdf/6BKW-FPZ/2024-09-17-14-21-01/
     RDKit          3D

 12 13  0  0  0  0  0  0  0  0999 V2000
   -7.9040    3.9820   27.1177 C   0  0  0  0  0  0  0  0  0  0  0  0
   -7.8663    4.8694   27.9238 C   0  0  0  0  0  0  0  0  0  0  0  0
   -9.0501    3.8017   26.2617 C   0  0  0  0  0  0  0  0  0  0  0  0
   -9.1826    2.7026   25.3575 C   0  0  0  0  0  0  0  0  0  0  0  0
   -8.6940    6.0131   27.8614 C   0  0  0  0  0  0  0  0  0  0  0  0
   -9.7382    4.9916   26.1006 C   0  0  0  0  0  0  0  0  0  0  0  0
   -9.6356    6.0254   26.9506 C   0  0  0  0  0  0  0  0  0  0  0  0
   -8.7443    1.4567   25.8128 C   0  0  0  0  0  0  0  0  0  0  0  0
   -9.8944    2.7989   24.1512 C   0  0  0  0  0  0  0  0  0  0  0  0
   -8.7246    0.3620   24.9679 C   0  0  0  0  0  0  0  0  0  0  0  0
   -9.9823    1.6892   23.3394 C   0  0  0  0  0  0  0  0  0  0  0  0
   -9.3981    0.4895   23.7612 C   0  0  0  0  0  0  0  0  0  0  0  0
  3  4  1  0
  4  8  2  0
  8 10  1  0
 10 12  2  0
 12 11  1  0
 11  9  2  0
  9  4  1  0
  1  2  2  0
  2  5  1  0
  5  7  2  0
  7  6  1  0
  6  3  2  0
  3  1  1  0
M  END
$$$$
