No_5915-complexes_sdf/6BKW-FPZ/2024-09-17-14-21-01/
     RDKit          3D

 19 21  0  0  0  0  0  0  0  0999 V2000
   -7.2496    3.8871   27.4508 C   0  0  0  0  0  0  0  0  0  0  0  0
   -7.9379    4.9063   27.8518 C   0  0  2  0  0  0  0  0  0  0  0  0
   -9.3376    4.8647   27.7795 C   0  0  0  0  0  0  0  0  0  0  0  0
   -7.8544    2.6294   27.0414 C   0  0  0  0  0  0  0  0  0  0  0  0
   -9.2852    2.6570   27.0666 C   0  0  2  0  0  0  0  0  0  0  0  0
  -10.0126    3.7528   27.4890 C   0  0  2  0  0  0  0  0  0  0  0  0
   -9.9609    1.3640   26.7239 C   0  0  0  0  0  0  0  0  0  0  0  0
  -10.7817    1.2617   26.0939 C   0  0  0  0  0  0  0  0  0  0  0  0
  -11.3271    2.4823   25.3896 C   0  0  2  0  0  0  0  0  0  0  0  0
  -11.1578    2.6609   24.3599 C   0  0  0  0  0  0  0  0  0  0  0  0
  -11.5555    3.9566   23.6119 C   0  0  0  0  0  0  0  0  0  0  0  0
  -11.0675    4.3788   22.3777 C   0  0  0  0  0  0  0  0  0  0  0  0
  -10.3445    3.4437   21.6195 C   0  0  0  0  0  0  0  0  0  0  0  0
   -9.9347    2.1969   22.1901 C   0  0  0  0  0  0  0  0  0  0  0  0
  -10.2273    1.9117   23.4194 C   0  0  0  0  0  0  0  0  0  0  0  0
  -10.8238    3.5893   26.3958 C   0  0  1  0  0  0  0  0  0  0  0  0
  -10.8329    3.2512   28.7864 C   0  0  0  0  0  0  0  0  0  0  0  0
   -7.2662    6.0046   28.2318 F   0  0  0  0  0  0  0  0  0  0  0  0
  -12.2276    4.2963   26.7274 C   0  0  0  0  0  0  0  0  0  0  0  0
  1  2  1  0
  5  4  1  1
  3  6  1  0
  5  6  1  0
  5  7  1  0
  8  9  1  0
  6 16  1  0
  9 16  1  0
  6 17  1  1
  2 18  1  6
 16 19  1  1
  9 10  1  6
  7  8  1  0
  3  2  1  0
  1  4  1  0
 10 11  2  0
 11 12  1  0
 12 13  2  0
 13 14  1  0
 14 15  2  0
 15 10  1  0
M  END
$$$$
