No_5567-complexes_sdf/6BKW-FPZ/2024-09-17-14-21-01/
     RDKit          3D

 32 36  0  0  0  0  0  0  0  0999 V2000
   -7.9040    3.9820   27.1177 C   0  0  0  0  0  0  0  0  0  0  0  0
   -7.8663    4.8694   27.9238 C   0  0  0  0  0  0  0  0  0  0  0  0
   -9.0501    3.8017   26.2617 C   0  0  0  0  0  0  0  0  0  0  0  0
  -10.0189    4.7608   26.3707 C   0  0  0  0  0  0  0  0  0  0  0  0
   -8.6973    5.9722   27.8968 C   0  0  0  0  0  0  0  0  0  0  0  0
   -9.8216    5.8946   27.1241 C   0  0  0  0  0  0  0  0  0  0  0  0
   -9.3656    2.6887   25.4285 C   0  0  0  0  0  0  0  0  0  0  0  0
  -10.1077    2.7680   24.2915 C   0  0  0  0  0  0  0  0  0  0  0  0
  -10.3232    1.6664   23.4469 C   0  0  0  0  0  0  0  0  0  0  0  0
   -9.5392    0.4763   23.6997 C   0  0  0  0  0  0  0  0  0  0  0  0
   -8.6027    1.4368   25.5712 C   0  0  0  0  0  0  0  0  0  0  0  0
   -8.7229    0.4074   24.7761 C   0  0  0  0  0  0  0  0  0  0  0  0
   -9.7510   -0.6624   22.7480 C   0  0  0  0  0  0  0  0  0  0  0  0
  -10.6586   -1.5709   23.1696 C   0  0  0  0  0  0  0  0  0  0  0  0
  -10.8405   -2.7074   22.2915 C   0  0  0  0  0  0  0  0  0  0  0  0
  -10.1279   -2.8016   21.0844 C   0  0  0  0  0  0  0  0  0  0  0  0
   -9.2200   -1.8207   20.6982 C   0  0  0  0  0  0  0  0  0  0  0  0
   -8.9766   -0.6888   21.5434 C   0  0  0  0  0  0  0  0  0  0  0  0
  -10.3132   -3.9265   20.1595 C   0  0  0  0  0  0  0  0  0  0  0  0
  -10.9123   -4.8483   20.3107 O   0  0  0  0  0  0  0  0  0  0  0  0
   -9.3689   -3.9194   19.1117 N   0  0  0  0  0  0  0  0  0  0  0  0
   -8.4597   -3.0300   18.7099 C   0  0  0  0  0  0  0  0  0  0  0  0
   -8.3452   -1.9171   19.5469 C   0  0  0  0  0  0  0  0  0  0  0  0
   -7.7244   -3.0921   17.6482 N   0  0  0  0  0  0  0  0  0  0  0  0
   -8.1397   -3.0674   16.3644 C   0  0  0  0  0  0  0  0  0  0  0  0
   -8.0210   -3.7811   15.5966 C   0  0  0  0  0  0  0  0  0  0  0  0
   -6.3360   -3.3730   17.8192 C   0  0  1  0  0  0  0  0  0  0  0  0
   -5.7015   -3.4182   19.0225 C   0  0  0  0  0  0  0  0  0  0  0  0
   -6.5842   -4.2125   15.4097 C   0  0  0  0  0  0  0  0  0  0  0  0
   -5.7041   -3.9285   16.6026 C   0  0  0  0  0  0  0  0  0  0  0  0
   -4.5492   -2.8018   19.1130 C   0  0  0  0  0  0  0  0  0  0  0  0
   -3.7686   -2.8627   20.0777 N   0  0  0  0  0  0  0  0  0  0  0  0
  3  7  1  0
 10 13  1  0
 16 19  1  0
 19 20  2  0
 19 21  1  0
 21 22  1  0
 17 23  1  0
 22 24  1  0
 24 25  1  0
 24 27  1  0
 27 28  1  0
 26 29  1  0
 27 30  1  1
 28 31  2  3
 31 32  1  0
 25 26  1  0
 29 30  1  0
 23 22  1  0
  7  8  2  0
  8  9  1  0
  9 10  2  0
 10 12  1  0
 12 11  2  0
 11  7  1  0
 13 14  2  0
 14 15  1  0
 15 16  2  0
 16 17  1  0
 17 18  2  0
 18 13  1  0
  1  2  2  0
  2  5  1  0
  5  6  2  0
  6  4  1  0
  4  3  2  0
  3  1  1  0
M  END
$$$$
