No_5423-complexes_sdf/6BKW-FPZ/2024-09-17-14-21-01/
     RDKit          3D

 13 13  0  0  0  0  0  0  0  0999 V2000
   -7.2496    3.8871   27.4508 C   0  0  0  0  0  0  0  0  0  0  0  0
   -8.5096    4.0291   27.2770 C   0  0  0  0  0  0  0  0  0  0  0  0
   -9.3451    2.8786   26.9046 C   0  0  0  0  0  0  0  0  0  0  0  0
   -6.6065    2.5680   27.5073 C   0  0  0  0  0  0  0  0  0  0  0  0
   -7.4233    1.4858   27.2402 C   0  0  0  0  0  0  0  0  0  0  0  0
   -8.7362    1.6525   26.9989 C   0  0  0  0  0  0  0  0  0  0  0  0
   -9.1023    5.3710   27.2131 C   0  0  0  0  0  0  0  0  0  0  0  0
   -8.5923    6.3829   27.0880 C   0  0  0  0  0  0  0  0  0  0  0  0
   -9.1942    7.7637   27.0169 C   0  0  0  0  0  0  0  0  0  0  0  0
   -6.7786    0.1756   27.3012 C   0  0  0  0  0  0  0  0  0  0  0  0
   -5.7439   -0.0225   27.8066 O   0  0  0  0  0  0  0  0  0  0  0  0
   -7.3783   -0.8162   26.5774 O   0  0  0  0  0  0  0  0  0  0  0  0
  -10.5808    5.3215   27.3558 C   0  0  0  0  0  0  0  0  0  0  0  0
  2  7  1  0
  7  8  2  3
  8  9  1  0
  5 10  1  0
 10 11  2  0
 10 12  1  0
  7 13  1  0
  1  2  2  0
  2  3  1  0
  3  6  2  0
  6  5  1  0
  5  4  2  0
  4  1  1  0
M  END
$$$$
