No_550-complexes_sdf/6BKW-FPZ/2024-09-17-14-21-01/
     RDKit          3D

 12 13  0  0  0  0  0  0  0  0999 V2000
   -7.2496    3.8871   27.4508 C   0  0  0  0  0  0  0  0  0  0  0  0
   -7.6161    2.7143   27.1523 C   0  0  0  0  0  0  0  0  0  0  0  0
   -8.8302    2.4659   26.5056 C   0  0  0  0  0  0  0  0  0  0  0  0
   -8.1584    5.0090   27.3234 C   0  0  0  0  0  0  0  0  0  0  0  0
   -9.3788    4.7965   26.7695 C   0  0  0  0  0  0  0  0  0  0  0  0
   -9.7028    3.5649   26.3276 C   0  0  0  0  0  0  0  0  0  0  0  0
   -6.5552    1.6737   27.4428 C   0  0  0  0  0  0  0  0  0  0  0  0
   -5.2861    1.9043   27.6995 C   0  0  0  0  0  0  0  0  0  0  0  0
   -7.0040    0.2890   27.2556 C   0  0  0  0  0  0  0  0  0  0  0  0
   -6.0922   -0.7004   27.5413 C   0  0  0  0  0  0  0  0  0  0  0  0
   -4.3893    0.9156   28.0655 C   0  0  0  0  0  0  0  0  0  0  0  0
   -4.7474   -0.3977   28.0058 C   0  0  0  0  0  0  0  0  0  0  0  0
  2  7  1  0
  7  8  2  0
  8 11  1  0
 11 12  2  0
 12 10  1  0
 10  9  2  0
  9  7  1  0
  1  2  2  0
  2  3  1  0
  3  6  2  0
  6  5  1  0
  5  4  2  0
  4  1  1  0
M  END
$$$$
