No_58-complexes_sdf/6BKW-FPZ/2024-09-17-14-21-01/
     RDKit          3D

 29 31  0  0  0  0  0  0  0  0999 V2000
   -7.9040    3.9820   27.1177 C   0  0  0  0  0  0  0  0  0  0  0  0
   -9.0711    4.3164   27.0630 C   0  0  0  0  0  0  0  0  0  0  0  0
   -9.9692    3.7224   26.1073 C   0  0  0  0  0  0  0  0  0  0  0  0
   -6.9787    4.6761   28.1003 C   0  0  0  0  0  0  0  0  0  0  0  0
   -9.4538    2.6801   25.3673 C   0  0  0  0  0  0  0  0  0  0  0  0
   -8.1927    2.1957   25.6621 C   0  0  0  0  0  0  0  0  0  0  0  0
   -7.4333    2.8255   26.6299 C   0  0  0  0  0  0  0  0  0  0  0  0
  -10.3066    1.9975   24.3777 C   0  0  0  0  0  0  0  0  0  0  0  0
   -9.7680    1.0924   23.6436 C   0  0  0  0  0  0  0  0  0  0  0  0
   -8.5048    0.4472   24.0209 C   0  0  0  0  0  0  0  0  0  0  0  0
   -7.7457    1.0371   24.9568 C   0  0  0  0  0  0  0  0  0  0  0  0
   -7.4836    5.8189   28.6677 N   0  0  0  0  0  0  0  0  0  0  0  0
   -5.9158    4.1432   28.4686 O   0  0  0  0  0  0  0  0  0  0  0  0
  -10.5058    0.3959   22.5223 C   0  0  0  0  0  0  0  0  0  0  0  0
   -9.8413   -0.2829   21.7500 F   0  0  0  0  0  0  0  0  0  0  0  0
  -11.5592   -0.3227   23.0181 F   0  0  0  0  0  0  0  0  0  0  0  0
  -11.0111    1.4847   21.7671 F   0  0  0  0  0  0  0  0  0  0  0  0
  -11.1450    4.2711   25.8511 O   0  0  0  0  0  0  0  0  0  0  0  0
  -12.2356    3.7883   26.5168 C   0  0  0  0  0  0  0  0  0  0  0  0
  -12.3762    4.1755   27.8073 C   0  0  0  0  0  0  0  0  0  0  0  0
  -12.9757    3.5779   28.5838 C   0  0  0  0  0  0  0  0  0  0  0  0
  -14.0546    2.7219   28.2803 C   0  0  0  0  0  0  0  0  0  0  0  0
  -14.0702    2.4072   26.8750 C   0  0  0  0  0  0  0  0  0  0  0  0
  -13.1202    2.9102   26.0030 C   0  0  0  0  0  0  0  0  0  0  0  0
  -15.0308    2.1082   29.1737 C   0  0  0  0  0  0  0  0  0  0  0  0
  -14.7889    1.5551   30.0039 C   0  0  0  0  0  0  0  0  0  0  0  0
  -14.9413    1.0247   31.0035 C   0  0  0  0  0  0  0  0  0  0  0  0
  -14.7154    0.3152   32.2294 C   0  0  0  0  0  0  0  0  0  0  0  0
  -14.4975   -0.2432   33.3239 C   0  0  0  0  0  0  0  0  0  0  0  0
  1  4  1  0
  4 12  1  0
  4 13  2  0
  9 14  1  0
 14 15  1  0
 14 16  1  0
 14 17  1  0
  3 18  1  0
 18 19  1  0
 22 25  1  0
 25 26  2  3
 26 27  1  0
 27 28  2  3
 28 29  1  0
  6 11  1  0
 11 10  2  0
 10  9  1  0
  9  8  2  0
  8  5  1  0
 19 20  2  0
 20 21  1  0
 21 22  2  0
 22 23  1  0
 23 24  2  0
 24 19  1  0
  1  2  2  0
  2  3  1  0
  3  5  2  0
  5  6  1  0
  6  7  2  0
  7  1  1  0
M  END
$$$$
