No_5421-complexes_sdf/6BKW-FPZ/2024-09-17-14-21-01/
     RDKit          3D

 14 15  0  0  0  0  0  0  0  0999 V2000
   -7.7129    4.2099   27.0854 C   0  0  0  0  0  0  0  0  0  0  0  0
   -7.7814    5.1722   27.8972 C   0  0  0  0  0  0  0  0  0  0  0  0
   -7.3155    2.9699   27.6145 C   0  0  0  0  0  0  0  0  0  0  0  0
   -6.0554    2.7539   27.5147 C   0  0  0  0  0  0  0  0  0  0  0  0
   -5.4642    1.4850   27.9980 C   0  0  0  0  0  0  0  0  0  0  0  0
   -8.2273    6.5427   27.4044 C   0  0  0  0  0  0  0  0  0  0  0  0
   -4.1470    1.3565   28.4009 C   0  0  0  0  0  0  0  0  0  0  0  0
   -8.9696    6.6026   26.2257 C   0  0  0  0  0  0  0  0  0  0  0  0
   -8.5997    4.3050   25.9323 C   0  0  0  0  0  0  0  0  0  0  0  0
   -9.2208    5.4616   25.5638 C   0  0  0  0  0  0  0  0  0  0  0  0
   -6.2892    0.3335   27.8459 C   0  0  0  0  0  0  0  0  0  0  0  0
   -5.7635   -0.9062   28.1889 C   0  0  0  0  0  0  0  0  0  0  0  0
   -3.6367    0.1406   28.8517 C   0  0  0  0  0  0  0  0  0  0  0  0
   -4.4207   -0.9725   28.7715 C   0  0  0  0  0  0  0  0  0  0  0  0
  1  3  1  0
  3  4  2  3
  4  5  1  0
  5  7  2  0
  7 13  1  0
 13 14  2  0
 14 12  1  0
 12 11  2  0
 11  5  1  0
  1  2  2  0
  2  6  1  0
  6  8  2  0
  8 10  1  0
 10  9  2  0
  9  1  1  0
M  END
$$$$
