No_5114-complexes_sdf/6BKW-FPZ/2024-09-17-14-21-01/
     RDKit          3D

 15 16  0  0  0  0  0  0  0  0999 V2000
   -7.9040    3.9820   27.1177 C   0  0  0  0  0  0  0  0  0  0  0  0
   -7.8663    4.8694   27.9238 C   0  0  0  0  0  0  0  0  0  0  0  0
   -9.0491    3.8523   26.2542 C   0  0  0  0  0  0  0  0  0  0  0  0
   -8.7661    5.9491   27.9690 C   0  0  0  0  0  0  0  0  0  0  0  0
   -9.9295    4.8502   26.2323 C   0  0  0  0  0  0  0  0  0  0  0  0
   -9.8077    5.9288   27.0933 C   0  0  0  0  0  0  0  0  0  0  0  0
   -9.0841    2.5340   25.1382 Cl  0  0  0  0  0  0  0  0  0  0  0  0
   -7.0051    2.9690   27.1298 F   0  0  0  0  0  0  0  0  0  0  0  0
  -10.9238    4.8323   25.3311 O   0  0  0  0  0  0  0  0  0  0  0  0
  -11.2473    3.9321   24.5763 C   0  0  0  0  0  0  0  0  0  0  0  0
  -12.3787    3.9579   23.8344 C   0  0  0  0  0  0  0  0  0  0  0  0
  -12.7773    2.9698   22.9463 C   0  0  0  0  0  0  0  0  0  0  0  0
  -11.9421    1.8647   22.8433 C   0  0  0  0  0  0  0  0  0  0  0  0
  -10.7773    1.7714   23.5347 C   0  0  0  0  0  0  0  0  0  0  0  0
  -10.4155    2.8110   24.4163 C   0  0  0  0  0  0  0  0  0  0  0  0
  3  7  1  0
  1  8  1  0
  5  9  1  0
  9 10  1  0
  1  2  2  0
  2  4  1  0
  4  6  2  0
  6  5  1  0
  5  3  2  0
  3  1  1  0
 10 11  2  0
 11 12  1  0
 12 13  2  0
 13 14  1  0
 14 15  2  0
 15 10  1  0
M  END
$$$$
