No_5892-complexes_sdf/6BKW-FPZ/2024-09-17-14-21-01/
     RDKit          3D

 14 15  0  0  0  0  0  0  0  0999 V2000
   -7.7129    4.2099   27.0854 C   0  0  0  0  0  0  0  0  0  0  0  0
   -8.9133    4.4736   27.0998 C   0  0  0  0  0  0  0  0  0  0  0  0
   -9.7937    3.7368   26.2091 C   0  0  0  0  0  0  0  0  0  0  0  0
   -6.8266    5.0441   28.0594 C   0  0  0  0  0  0  0  0  0  0  0  0
   -9.2322    2.6276   25.6126 C   0  0  0  0  0  0  0  0  0  0  0  0
   -7.9794    2.1924   25.9863 C   0  0  0  0  0  0  0  0  0  0  0  0
   -7.2411    2.9387   26.9009 C   0  0  0  0  0  0  0  0  0  0  0  0
  -10.0593    1.7685   24.7435 C   0  0  0  0  0  0  0  0  0  0  0  0
   -9.4294    1.0407   23.8340 C   0  0  0  0  0  0  0  0  0  0  0  0
  -10.1450    0.3712   22.8515 C   0  0  0  0  0  0  0  0  0  0  0  0
  -11.5261    0.4576   22.7805 C   0  0  0  0  0  0  0  0  0  0  0  0
  -11.4283    1.9451   24.5544 C   0  0  0  0  0  0  0  0  0  0  0  0
  -12.1387    1.2786   23.6334 C   0  0  0  0  0  0  0  0  0  0  0  0
   -9.4823    5.8383   27.4839 C   0  0  0  0  0  0  0  0  0  0  0  0
  1  4  1  0
  5  8  1  0
  2 14  1  0
  8  9  2  0
  9 10  1  0
 10 11  2  0
 11 13  1  0
 13 12  2  0
 12  8  1  0
  1  2  2  0
  2  3  1  0
  3  5  2  0
  5  6  1  0
  6  7  2  0
  7  1  1  0
M  END
$$$$
