No_557-complexes_sdf/6BKW-FPZ/2024-09-17-14-21-01/
     RDKit          3D

 20 22  0  0  0  0  0  0  0  0999 V2000
   -7.9040    3.9820   27.1177 C   0  0  0  0  0  0  0  0  0  0  0  0
   -9.0711    4.3164   27.0630 C   0  0  0  0  0  0  0  0  0  0  0  0
   -9.5294    5.4517   27.7215 C   0  0  0  0  0  0  0  0  0  0  0  0
   -7.4336    2.7132   26.5681 C   0  0  0  0  0  0  0  0  0  0  0  0
   -8.3353    1.8569   26.0442 C   0  0  0  0  0  0  0  0  0  0  0  0
   -9.6477    2.2853   25.9146 C   0  0  0  0  0  0  0  0  0  0  0  0
  -10.0346    3.4497   26.4483 C   0  0  0  0  0  0  0  0  0  0  0  0
   -8.0665    0.4920   25.6297 C   0  0  0  0  0  0  0  0  0  0  0  0
   -7.1083   -0.0799   26.0727 O   0  0  0  0  0  0  0  0  0  0  0  0
   -8.6616    0.0412   24.5379 O   0  0  0  0  0  0  0  0  0  0  0  0
   -6.9058    4.6869   27.8589 N   0  0  0  0  0  0  0  0  0  0  0  0
   -7.2511    5.8599   28.4562 C   0  0  0  0  0  0  0  0  0  0  0  0
   -8.5636    6.2455   28.3353 N   0  0  0  0  0  0  0  0  0  0  0  0
  -11.4222    3.9072   26.1919 C   0  0  0  0  0  0  0  0  0  0  0  0
  -12.2996    3.7421   27.2992 C   0  0  0  0  0  0  0  0  0  0  0  0
  -12.9717    2.6641   27.4611 C   0  0  0  0  0  0  0  0  0  0  0  0
  -13.6608    2.3946   28.6913 C   0  0  0  0  0  0  0  0  0  0  0  0
  -13.5338    3.0540   29.5166 C   0  0  0  0  0  0  0  0  0  0  0  0
  -12.9203    4.3790   29.5777 C   0  0  0  0  0  0  0  0  0  0  0  0
  -12.2598    4.6591   28.4531 C   0  0  0  0  0  0  0  0  0  0  0  0
  5  8  1  0
  8  9  2  0
  8 10  1  0
  7 14  1  0
 14 15  1  0
 15 16  2  0
 16 17  1  0
 17 18  2  0
 18 19  1  0
 19 20  2  0
 20 15  1  0
  2  7  1  0
  7  6  2  0
  6  5  1  0
  5  4  2  0
  4  1  1  0
  1  2  1  0
  2  3  2  0
  3 13  1  0
 13 12  2  0
 12 11  1  0
 11  1  2  0
M  END
$$$$
