No_5338-complexes_sdf/6BKW-FPZ/2024-09-17-14-21-01/
     RDKit          3D

 18 20  0  0  0  0  0  0  0  0999 V2000
   -7.9040    3.9820   27.1177 C   0  0  0  0  0  0  0  0  0  0  0  0
   -7.8663    4.8694   27.9238 C   0  0  0  0  0  0  0  0  0  0  0  0
   -9.0491    3.8523   26.2542 C   0  0  0  0  0  0  0  0  0  0  0  0
   -8.7661    5.9491   27.9690 C   0  0  0  0  0  0  0  0  0  0  0  0
   -9.9295    4.8502   26.2323 C   0  0  0  0  0  0  0  0  0  0  0  0
   -9.8077    5.9288   27.0933 C   0  0  0  0  0  0  0  0  0  0  0  0
   -7.0120    2.8934   27.1746 N   0  0  0  0  0  0  0  0  0  0  0  0
   -7.2911    1.5905   26.8161 C   0  0  0  0  0  0  0  0  0  0  0  0
   -6.3069    0.6382   27.1886 C   0  0  0  0  0  0  0  0  0  0  0  0
   -5.2276    1.3120   27.8406 C   0  0  2  0  0  0  0  0  0  0  0  0
   -5.7512    2.8675   27.8581 C   0  0  0  0  0  0  0  0  0  0  0  0
   -3.9759    1.1870   27.8666 C   0  0  0  0  0  0  0  0  0  0  0  0
   -3.5722    0.0288   28.7001 C   0  0  0  0  0  0  0  0  0  0  0  0
   -2.5319   -0.8078   28.3207 C   0  0  0  0  0  0  0  0  0  0  0  0
   -4.1897   -0.1288   29.9729 C   0  0  0  0  0  0  0  0  0  0  0  0
   -3.8807   -1.1128   30.8625 C   0  0  0  0  0  0  0  0  0  0  0  0
   -2.1778   -1.8509   29.2120 C   0  0  0  0  0  0  0  0  0  0  0  0
   -2.7831   -1.9816   30.4719 C   0  0  0  0  0  0  0  0  0  0  0  0
  1  7  1  0
  7  8  1  0
  8  9  2  0
  9 10  1  0
  7 11  1  0
 10 11  1  0
 10 12  1  6
 12 13  1  0
  1  2  2  0
  2  4  1  0
  4  6  2  0
  6  5  1  0
  5  3  2  0
  3  1  1  0
 13 14  2  0
 14 17  1  0
 17 18  2  0
 18 16  1  0
 16 15  2  0
 15 13  1  0
M  END
$$$$
