No_5183-complexes_sdf/6BKW-FPZ/2024-09-17-14-21-01/
     RDKit          3D

 26 28  0  0  0  0  0  0  0  0999 V2000
   -7.2496    3.8871   27.4508 C   0  0  0  0  0  0  0  0  0  0  0  0
   -7.9379    4.9063   27.8518 C   0  0  0  0  0  0  0  0  0  0  0  0
   -7.5112    6.1898   27.6280 C   0  0  0  0  0  0  0  0  0  0  0  0
   -7.8078    2.6331   27.2522 C   0  0  0  0  0  0  0  0  0  0  0  0
   -9.1846    2.4724   27.5426 C   0  0  0  0  0  0  0  0  0  0  0  0
   -9.8869    3.5177   28.0783 C   0  0  0  0  0  0  0  0  0  0  0  0
   -9.3786    4.7757   28.1464 C   0  0  0  0  0  0  0  0  0  0  0  0
  -11.3642    3.3701   28.4712 C   0  0  0  0  0  0  0  0  0  0  0  0
  -11.8149    2.1145   28.8635 C   0  0  0  0  0  0  0  0  0  0  0  0
  -13.1543    1.9268   29.2649 C   0  0  0  0  0  0  0  0  0  0  0  0
  -13.9754    3.0885   29.3634 C   0  0  0  0  0  0  0  0  0  0  0  0
  -13.5391    4.3103   28.9326 C   0  0  0  0  0  0  0  0  0  0  0  0
  -12.2226    4.4855   28.5235 C   0  0  0  0  0  0  0  0  0  0  0  0
   -6.9181    1.2501   26.8122 Cl  0  0  0  0  0  0  0  0  0  0  0  0
   -8.3256    7.1789   27.2448 F   0  0  0  0  0  0  0  0  0  0  0  0
  -15.4226    2.8861   29.7686 C   0  0  0  0  0  0  0  0  0  0  0  0
  -15.9082    3.4659   30.7228 N   0  0  0  0  0  0  0  0  0  0  0  0
  -15.2559    3.9549   31.7030 C   0  0  0  0  0  0  0  0  0  0  0  0
  -14.4881    3.3694   32.4617 C   0  0  0  0  0  0  0  0  0  0  0  0
  -14.5153    2.0217   32.6920 C   0  0  0  0  0  0  0  0  0  0  0  0
  -13.6566    1.4510   33.7125 C   0  0  0  0  0  0  0  0  0  0  0  0
  -12.8287    2.2226   34.5295 C   0  0  0  0  0  0  0  0  0  0  0  0
  -12.7753    3.6151   34.3039 C   0  0  0  0  0  0  0  0  0  0  0  0
  -13.5650    4.2003   33.4259 C   0  0  0  0  0  0  0  0  0  0  0  0
  -17.4035    3.5657   30.7437 C   0  0  0  0  0  0  0  0  0  0  0  0
  -15.9294    1.9223   29.1468 O   0  0  0  0  0  0  0  0  0  0  0  0
  6  8  1  0
  4 14  1  0
  3 15  1  0
 11 16  1  0
 16 17  1  0
 17 18  1  0
 17 25  1  0
 16 26  2  0
 18 19  1  0
  3  2  1  0
  1  2  2  0
  2  7  1  0
  7  6  2  0
  6  5  1  0
  5  4  2  0
  4  1  1  0
  8  9  2  0
  9 10  1  0
 10 11  2  0
 11 12  1  0
 12 13  2  0
 13  8  1  0
 19 20  2  0
 20 21  1  0
 21 22  2  0
 22 23  1  0
 23 24  2  0
 24 19  1  0
M  END
$$$$
