No_5413-complexes_sdf/6BKW-FPZ/2024-09-17-14-21-01/
     RDKit          3D

 23 25  0  0  0  0  0  0  0  0999 V2000
   -7.7129    4.2099   27.0854 C   0  0  0  0  0  0  0  0  0  0  0  0
   -7.7814    5.1722   27.8972 C   0  0  0  0  0  0  0  0  0  0  0  0
   -8.8998    3.8713   26.3707 C   0  0  0  0  0  0  0  0  0  0  0  0
   -8.9563    2.6796   25.5490 C   0  0  0  0  0  0  0  0  0  0  0  0
   -8.8131    6.1334   27.9344 C   0  0  0  0  0  0  0  0  0  0  0  0
   -9.9804    5.8121   27.1929 C   0  0  0  0  0  0  0  0  0  0  0  0
   -9.9861    4.6836   26.4532 C   0  0  0  0  0  0  0  0  0  0  0  0
   -9.8352    2.5435   24.5126 C   0  0  0  0  0  0  0  0  0  0  0  0
   -9.8680    1.4156   23.7412 C   0  0  0  0  0  0  0  0  0  0  0  0
   -8.8988    0.3731   23.9922 C   0  0  0  0  0  0  0  0  0  0  0  0
   -8.0409    0.4782   25.0443 C   0  0  0  0  0  0  0  0  0  0  0  0
   -8.0131    1.6137   25.8514 C   0  0  0  0  0  0  0  0  0  0  0  0
   -8.9204   -0.8307   23.1320 C   0  0  0  0  0  0  0  0  0  0  0  0
   -9.6483   -1.8882   23.5958 C   0  0  0  0  0  0  0  0  0  0  0  0
   -9.6243   -3.0034   22.8946 C   0  0  0  0  0  0  0  0  0  0  0  0
   -8.9041   -3.1072   21.6229 C   0  0  0  0  0  0  0  0  0  0  0  0
   -8.1782   -2.0217   21.1553 C   0  0  0  0  0  0  0  0  0  0  0  0
   -8.1259   -0.8148   21.9182 C   0  0  0  0  0  0  0  0  0  0  0  0
   -7.1099   -0.5985   25.3948 C   0  0  0  0  0  0  0  0  0  0  0  0
   -6.3890   -0.5510   26.1865 O   0  0  0  0  0  0  0  0  0  0  0  0
   -6.8799   -1.5478   24.4003 O   0  0  0  0  0  0  0  0  0  0  0  0
   -5.7759   -2.4105   24.8491 C   0  0  0  0  0  0  0  0  0  0  0  0
   -5.0038   -1.6760   25.5771 C   0  0  0  0  0  0  0  0  0  0  0  0
  3  4  1  0
 10 13  1  0
 11 19  1  0
 19 20  2  0
 19 21  1  0
 21 22  1  0
 22 23  1  0
  4  8  2  0
  8  9  1  0
  9 10  2  0
 10 11  1  0
 11 12  2  0
 12  4  1  0
 13 14  2  0
 14 15  1  0
 15 16  2  0
 16 17  1  0
 17 18  2  0
 18 13  1  0
  1  2  2  0
  2  5  1  0
  5  6  2  0
  6  7  1  0
  7  3  2  0
  3  1  1  0
M  END
$$$$
