No_5913-complexes_sdf/6BKW-FPZ/2024-09-17-14-21-01/
     RDKit          3D

 40 46  0  0  0  0  0  0  0  0999 V2000
   -7.2496    3.8871   27.4508 C   0  0  0  0  0  0  0  0  0  0  0  0
   -8.5096    4.0291   27.2770 C   0  0  0  0  0  0  0  0  0  0  0  0
   -9.2677    5.1714   27.5773 C   0  0  0  0  0  0  0  0  0  0  0  0
   -9.2765    2.8248   26.8371 C   0  0  0  0  0  0  0  0  0  0  0  0
  -10.4623    3.0171   26.3236 C   0  0  0  0  0  0  0  0  0  0  0  0
  -10.8972    2.6250   25.3350 C   0  0  0  0  0  0  0  0  0  0  0  0
  -12.2133    2.9588   24.7026 C   0  0  0  0  0  0  0  0  0  0  0  0
  -10.5843    5.3403   27.2292 C   0  0  0  0  0  0  0  0  0  0  0  0
  -11.1765    4.3354   26.5199 C   0  0  0  0  0  0  0  0  0  0  0  0
   -6.5439    2.6998   27.4910 N   0  0  0  0  0  0  0  0  0  0  0  0
  -12.8258    3.9965   25.2119 C   0  0  0  0  0  0  0  0  0  0  0  0
  -12.3892    4.7459   26.0427 N   0  0  0  0  0  0  0  0  0  0  0  0
   -6.9273    1.5970   27.5953 C   0  0  0  0  0  0  0  0  0  0  0  0
   -8.4167    1.6221   26.9874 C   0  0  0  0  0  0  0  0  0  0  0  0
   -6.2353    0.4174   27.4857 C   0  0  0  0  0  0  0  0  0  0  0  0
   -6.6952   -0.8013   27.6166 C   0  0  0  0  0  0  0  0  0  0  0  0
   -5.9675   -1.9086   27.8545 C   0  0  0  0  0  0  0  0  0  0  0  0
   -4.8085    0.5499   27.5748 C   0  0  0  0  0  0  0  0  0  0  0  0
   -3.9272   -0.4804   27.8030 C   0  0  0  0  0  0  0  0  0  0  0  0
   -4.5129   -1.7575   27.9257 C   0  0  0  0  0  0  0  0  0  0  0  0
   -6.6677    5.0813   27.9381 N   0  0  0  0  0  0  0  0  0  0  0  0
  -14.2223    4.3740   24.6444 C   0  0  0  0  0  0  0  0  0  0  0  0
  -15.2130    4.8872   25.4945 C   0  0  0  0  0  0  0  0  0  0  0  0
  -16.3419    5.4041   24.9932 C   0  0  0  0  0  0  0  0  0  0  0  0
  -14.7106    4.0161   23.4589 C   0  0  0  0  0  0  0  0  0  0  0  0
  -15.8820    4.4419   22.8909 C   0  0  0  0  0  0  0  0  0  0  0  0
  -16.7561    5.1355   23.7345 C   0  0  0  0  0  0  0  0  0  0  0  0
  -10.3805    1.3292   24.6847 C   0  0  0  0  0  0  0  0  0  0  0  0
  -10.0097    1.4855   23.4193 C   0  0  0  0  0  0  0  0  0  0  0  0
   -9.2779    0.4142   22.8228 C   0  0  0  0  0  0  0  0  0  0  0  0
   -8.6155   -0.5775   23.5522 C   0  0  0  0  0  0  0  0  0  0  0  0
   -7.8120   -1.4738   23.0258 C   0  0  0  0  0  0  0  0  0  0  0  0
   -7.0352   -2.3592   23.8070 C   0  0  0  0  0  0  0  0  0  0  0  0
   -7.5760   -2.6837   24.9856 C   0  0  0  0  0  0  0  0  0  0  0  0
   -8.6329   -1.9685   25.5491 C   0  0  0  0  0  0  0  0  0  0  0  0
   -9.2101   -0.8928   24.8070 C   0  0  0  0  0  0  0  0  0  0  0  0
  -10.3818   -0.2645   25.2801 C   0  0  0  0  0  0  0  0  0  0  0  0
   -3.6573   -3.1498   28.3055 Cl  0  0  0  0  0  0  0  0  0  0  0  0
   -9.8309    2.6142   22.9005 F   0  0  0  0  0  0  0  0  0  0  0  0
   -9.0770   -2.2110   26.7240 F   0  0  0  0  0  0  0  0  0  0  0  0
 13 15  1  0
  1 21  1  0
 11 22  1  0
  6 28  1  0
 20 38  1  0
 29 39  1  0
 35 40  1  0
 28 29  2  0
 29 30  1  0
 30 31  2  0
 36 37  2  0
 37 28  1  0
 31 32  1  0
 32 33  2  0
 33 34  1  0
 34 35  2  0
 35 36  1  0
 36 31  1  0
 15 16  2  0
 16 17  1  0
 17 20  2  0
 20 19  1  0
 19 18  2  0
 18 15  1  0
  2  3  1  0
  3  8  2  0
  8  9  1  0
  5  4  1  0
 22 23  2  0
 23 24  1  0
 24 27  2  0
 27 26  1  0
 26 25  2  0
 25 22  1  0
  5  6  2  0
  6  7  1  0
  7 11  2  0
 11 12  1  0
 12  9  2  0
  9  5  1  0
  1  2  2  0
  2  4  1  0
  4 14  2  0
 14 13  1  0
 13 10  2  0
 10  1  1  0
M  END
$$$$
