No_5425-complexes_sdf/6BKW-FPZ/2024-09-17-14-21-01/
     RDKit          3D

 40 43  0  0  0  0  0  0  0  0999 V2000
   -7.9040    3.9820   27.1177 C   0  0  0  0  0  0  0  0  0  0  0  0
   -8.2057    2.8231   26.8733 C   0  0  0  0  0  0  0  0  0  0  0  0
   -8.7695    5.0740   26.7916 C   0  0  0  0  0  0  0  0  0  0  0  0
   -9.9618    4.7598   26.1630 C   0  0  0  0  0  0  0  0  0  0  0  0
   -9.4200    2.4524   26.2849 C   0  0  0  0  0  0  0  0  0  0  0  0
  -10.2590    3.4815   25.9250 C   0  0  0  0  0  0  0  0  0  0  0  0
   -8.3840    6.4693   27.0829 C   0  0  0  0  0  0  0  0  0  0  0  0
   -8.7958    7.4358   26.4217 N   0  0  0  0  0  0  0  0  0  0  0  0
   -7.2644    6.5586   27.9481 N   0  0  0  0  0  0  0  0  0  0  0  0
   -7.2946    1.6500   27.2699 C   0  0  0  0  0  0  0  0  0  0  0  0
   -7.6187    0.3293   27.1064 C   0  0  0  0  0  0  0  0  0  0  0  0
   -6.7001   -0.6116   27.4477 C   0  0  0  0  0  0  0  0  0  0  0  0
   -5.4476   -0.2293   27.9992 C   0  0  0  0  0  0  0  0  0  0  0  0
   -5.1465    1.1155   28.1781 C   0  0  0  0  0  0  0  0  0  0  0  0
   -5.9755    2.0418   27.8069 C   0  0  0  0  0  0  0  0  0  0  0  0
   -4.4858   -1.2873   28.4437 C   0  0  0  0  0  0  0  0  0  0  0  0
   -3.6222   -1.5820   27.7729 O   0  0  0  0  0  0  0  0  0  0  0  0
   -4.7032   -1.7484   29.6826 O   0  0  0  0  0  0  0  0  0  0  0  0
   -5.3769   -1.2801   30.5973 C   0  0  0  0  0  0  0  0  0  0  0  0
   -4.5298   -0.6441   31.6891 C   0  0  0  0  0  0  0  0  0  0  0  0
   -3.1511   -0.6548   31.7173 C   0  0  0  0  0  0  0  0  0  0  0  0
   -2.6283   -1.1490   32.6464 C   0  0  0  0  0  0  0  0  0  0  0  0
   -2.9884   -0.8341   34.0549 C   0  0  0  0  0  0  0  0  0  0  0  0
   -2.2331   -1.0959   35.1768 C   0  0  0  0  0  0  0  0  0  0  0  0
   -1.0206   -1.6436   34.9761 C   0  0  0  0  0  0  0  0  0  0  0  0
   -0.4904   -1.9191   33.7467 C   0  0  0  0  0  0  0  0  0  0  0  0
   -1.2146   -1.5797   32.6352 C   0  0  0  0  0  0  0  0  0  0  0  0
   -2.8266   -0.7336   36.4885 C   0  0  0  0  0  0  0  0  0  0  0  0
   -2.6948   -1.5296   37.3435 O   0  0  0  0  0  0  0  0  0  0  0  0
   -3.1018    0.5758   36.6886 O   0  0  0  0  0  0  0  0  0  0  0  0
   -2.6113   -0.2007   30.5641 O   0  0  0  0  0  0  0  0  0  0  0  0
   -3.9700    0.9099   37.7350 C   0  0  0  0  0  0  0  0  0  0  0  0
   -4.8285    0.2159   38.2579 C   0  0  0  0  0  0  0  0  0  0  0  0
   -5.3661   -0.7283   37.8274 C   0  0  0  0  0  0  0  0  0  0  0  0
   -6.6000   -1.3939   38.2560 C   0  0  0  0  0  0  0  0  0  0  0  0
   -7.1621   -0.7544   39.3903 C   0  0  0  0  0  0  0  0  0  0  0  0
   -6.5771    0.3452   40.0104 C   0  0  0  0  0  0  0  0  0  0  0  0
   -5.4712    0.9557   39.4397 C   0  0  0  0  0  0  0  0  0  0  0  0
   -3.5085    2.1856   38.1555 O   0  0  0  0  0  0  0  0  0  0  0  0
   -7.2258   -2.7467   37.6212 Cl  0  0  0  0  0  0  0  0  0  0  0  0
  3  7  1  0
  7  8  1  0
  7  9  2  0
  2 10  1  0
 13 16  1  0
 16 17  2  0
 16 18  1  0
 18 19  1  0
 19 20  2  3
 20 21  1  0
 21 22  1  0
 24 28  1  0
 28 29  2  0
 28 30  1  0
 21 31  2  0
 30 32  1  0
 32 33  1  0
 32 39  2  0
 35 40  1  0
 33 34  2  0
 34 35  1  0
 35 36  2  0
 36 37  1  0
 37 38  2  0
 38 33  1  0
 22 23  2  0
 23 24  1  0
 24 25  2  0
 25 26  1  0
 26 27  2  0
 27 22  1  0
  1  2  2  0
  2  5  1  0
  5  6  2  0
  6  4  1  0
  4  3  2  0
  3  1  1  0
 10 11  2  0
 11 12  1  0
 12 13  2  0
 13 14  1  0
 14 15  2  0
 15 10  1  0
M  END
$$$$
