No_5752-complexes_sdf/6BKW-FPZ/2024-09-17-14-21-01/
     RDKit          3D

 40 43  0  0  0  0  0  0  0  0999 V2000
   -7.2496    3.8871   27.4508 C   0  0  0  0  0  0  0  0  0  0  0  0
   -7.9379    4.9063   27.8518 C   0  0  0  0  0  0  0  0  0  0  0  0
   -7.5112    6.1898   27.6280 C   0  0  0  0  0  0  0  0  0  0  0  0
   -7.8078    2.6331   27.2522 C   0  0  0  0  0  0  0  0  0  0  0  0
   -9.1846    2.4724   27.5426 C   0  0  0  0  0  0  0  0  0  0  0  0
   -9.9168    3.5155   28.0405 C   0  0  0  0  0  0  0  0  0  0  0  0
   -9.3366    4.7963   28.1727 C   0  0  0  0  0  0  0  0  0  0  0  0
  -11.3249    3.2653   28.4083 C   0  0  0  0  0  0  0  0  0  0  0  0
  -12.1802    4.2448   28.6670 C   0  0  0  0  0  0  0  0  0  0  0  0
  -13.5622    4.0651   28.9769 C   0  0  0  0  0  0  0  0  0  0  0  0
  -13.9371    2.7393   29.2761 C   0  0  0  0  0  0  0  0  0  0  0  0
  -13.0546    1.6977   29.0904 C   0  0  0  0  0  0  0  0  0  0  0  0
  -11.7608    1.9295   28.7001 C   0  0  0  0  0  0  0  0  0  0  0  0
   -7.0548    1.4359   26.8606 C   0  0  0  0  0  0  0  0  0  0  0  0
   -5.9482    0.9940   27.6827 C   0  0  0  0  0  0  0  0  0  0  0  0
   -5.2392   -0.1582   27.4837 C   0  0  0  0  0  0  0  0  0  0  0  0
   -5.7081   -0.9562   26.4392 C   0  0  0  0  0  0  0  0  0  0  0  0
   -7.4894    0.4774   25.9902 C   0  0  0  0  0  0  0  0  0  0  0  0
   -6.8452   -0.6492   25.7320 C   0  0  0  0  0  0  0  0  0  0  0  0
   -4.0292   -0.4420   28.2361 C   0  0  0  0  0  0  0  0  0  0  0  0
   -3.9694   -0.1707   29.5330 C   0  0  0  0  0  0  0  0  0  0  0  0
   -4.7934    0.4084   30.3606 C   0  0  0  0  0  0  0  0  0  0  0  0
   -4.5075    0.4127   31.7980 C   0  0  0  0  0  0  0  0  0  0  0  0
   -2.6087   -0.3579   30.1977 C   0  0  0  0  0  0  0  0  0  0  0  0
   -2.3474   -0.2896   31.5240 C   0  0  0  0  0  0  0  0  0  0  0  0
   -3.3817    0.0798   32.3553 C   0  0  0  0  0  0  0  0  0  0  0  0
   -3.1082   -1.0706   27.5570 O   0  0  0  0  0  0  0  0  0  0  0  0
  -15.3705    2.4565   29.6512 C   0  0  0  0  0  0  0  0  0  0  0  0
  -16.0350    2.8780   30.3254 O   0  0  0  0  0  0  0  0  0  0  0  0
  -15.8381    1.3188   28.9320 O   0  0  0  0  0  0  0  0  0  0  0  0
   -6.4075    6.5016   28.0628 F   0  0  0  0  0  0  0  0  0  0  0  0
   -8.1910    7.1668   26.9862 N   0  0  0  0  0  0  0  0  0  0  0  0
  -16.9144    1.0674   28.9515 C   0  0  0  0  0  0  0  0  0  0  0  0
  -17.7997    1.5766   28.0887 C   0  0  0  0  0  0  0  0  0  0  0  0
  -19.4547    1.4138   28.0328 Cl  0  0  0  0  0  0  0  0  0  0  0  0
  -17.2868    2.4199   26.9814 C   0  0  0  0  0  0  0  0  0  0  0  0
  -17.9477    2.8129   26.0354 C   0  0  0  0  0  0  0  0  0  0  0  0
  -17.8107    2.6679   24.8045 C   0  0  0  0  0  0  0  0  0  0  0  0
  -16.6176    1.9580   24.3411 C   0  0  0  0  0  0  0  0  0  0  0  0
  -15.6007    1.7443   25.3238 C   0  0  0  0  0  0  0  0  0  0  0  0
  6  8  1  0
  4 14  1  0
 16 20  1  0
 20 21  1  0
 20 27  2  0
 11 28  1  0
 28 29  2  0
 28 30  1  0
  3 31  1  0
  3 32  1  0
 30 33  1  0
 33 34  1  0
 34 35  1  0
 34 36  1  0
 36 37  2  3
 37 38  1  0
 38 39  2  3
 39 40  1  0
  3  2  1  0
 21 22  2  0
 22 23  1  0
 23 26  2  0
 26 25  1  0
 25 24  2  0
 24 21  1  0
 14 15  2  0
 15 16  1  0
 16 17  2  0
 17 19  1  0
 19 18  2  0
 18 14  1  0
  1  2  2  0
  2  7  1  0
  7  6  2  0
  6  5  1  0
  5  4  2  0
  4  1  1  0
  8  9  2  0
  9 10  1  0
 10 11  2  0
 11 12  1  0
 12 13  2  0
 13  8  1  0
M  END
$$$$
