No_5789-complexes_sdf/6BKW-FPZ/2024-09-17-14-21-01/
     RDKit          3D

 15 15  0  0  0  0  0  0  0  0999 V2000
   -7.7129    4.2099   27.0854 C   0  0  0  0  0  0  0  0  0  0  0  0
   -8.9133    4.4736   27.0998 C   0  0  0  0  0  0  0  0  0  0  0  0
   -9.4643    5.5426   27.7628 C   0  0  0  0  0  0  0  0  0  0  0  0
   -7.2009    2.9448   26.6134 C   0  0  0  0  0  0  0  0  0  0  0  0
   -8.1365    1.9533   26.2981 C   0  0  0  0  0  0  0  0  0  0  0  0
   -9.4501    2.2651   26.2497 C   0  0  0  0  0  0  0  0  0  0  0  0
   -9.8615    3.4703   26.6763 C   0  0  0  0  0  0  0  0  0  0  0  0
   -7.5886    0.6540   25.9006 C   0  0  0  0  0  0  0  0  0  0  0  0
   -7.8476    0.2277   24.8208 O   0  0  0  0  0  0  0  0  0  0  0  0
   -6.5611    0.1370   26.7063 O   0  0  0  0  0  0  0  0  0  0  0  0
   -6.7581   -1.0272   27.3375 C   0  0  0  0  0  0  0  0  0  0  0  0
   -5.8974   -1.1175   28.4440 C   0  0  0  0  0  0  0  0  0  0  0  0
   -4.8807   -0.1856   28.7531 C   0  0  0  0  0  0  0  0  0  0  0  0
   -4.5681    0.8161   27.8228 C   0  0  0  0  0  0  0  0  0  0  0  0
   -3.6888    1.7380   28.1969 F   0  0  0  0  0  0  0  0  0  0  0  0
  5  8  1  0
  8  9  2  0
  8 10  1  0
 10 11  1  0
 11 12  2  3
 12 13  1  0
 13 14  1  0
 14 15  1  0
  3  2  1  0
  1  2  2  0
  2  7  1  0
  7  6  2  0
  6  5  1  0
  5  4  2  0
  4  1  1  0
M  END
$$$$
