No_5963-complexes_sdf/6BKW-FPZ/2024-09-17-14-21-01/
     RDKit          3D

 40 45  0  0  0  0  0  0  0  0999 V2000
   -7.9040    3.9820   27.1177 C   0  0  0  0  0  0  0  0  0  0  0  0
   -9.0711    4.3164   27.0630 C   0  0  0  0  0  0  0  0  0  0  0  0
   -9.5294    5.4517   27.7215 C   0  0  0  0  0  0  0  0  0  0  0  0
   -7.2203    4.1641   28.0363 C   0  0  0  0  0  0  0  0  0  0  0  0
   -5.7641    3.6849   28.0475 C   0  0  0  0  0  0  0  0  0  0  0  0
   -8.5647    6.0345   28.5823 C   0  0  0  0  0  0  0  0  0  0  0  0
   -7.3208    5.4594   28.7032 C   0  0  0  0  0  0  0  0  0  0  0  0
  -10.1890    3.8019   26.0854 C   0  0  0  0  0  0  0  0  0  0  0  0
  -10.1112    4.2005   24.7203 C   0  0  0  0  0  0  0  0  0  0  0  0
  -10.9459    3.7257   23.7509 C   0  0  0  0  0  0  0  0  0  0  0  0
  -11.9108    2.7978   24.0752 C   0  0  0  0  0  0  0  0  0  0  0  0
  -11.1654    2.9454   26.4979 C   0  0  0  0  0  0  0  0  0  0  0  0
  -11.3061    2.5356   27.8820 C   0  0  0  0  0  0  0  0  0  0  0  0
  -12.0702    2.4446   25.4936 C   0  0  0  0  0  0  0  0  0  0  0  0
  -11.9412    1.5822   28.3775 C   0  0  0  0  0  0  0  0  0  0  0  0
  -12.3060    0.4985   27.6005 C   0  0  0  0  0  0  0  0  0  0  0  0
  -12.5923   -0.6805   27.9290 C   0  0  0  0  0  0  0  0  0  0  0  0
  -12.4709   -0.9280   29.2871 C   0  0  0  0  0  0  0  0  0  0  0  0
  -12.7379   -2.2776   29.7105 C   0  0  0  0  0  0  0  0  0  0  0  0
  -12.3175    0.8502   26.0523 C   0  0  0  0  0  0  0  0  0  0  0  0
  -13.0266   -3.1765   28.8710 C   0  0  0  0  0  0  0  0  0  0  0  0
  -13.1412   -2.9418   27.5413 C   0  0  0  0  0  0  0  0  0  0  0  0
  -12.8847   -1.7009   27.1002 C   0  0  0  0  0  0  0  0  0  0  0  0
  -10.8938    4.3031   22.4234 C   0  0  0  0  0  0  0  0  0  0  0  0
   -5.3345    2.4043   28.1018 N   0  0  0  0  0  0  0  0  0  0  0  0
   -6.2175    1.3856   28.1108 C   0  0  0  0  0  0  0  0  0  0  0  0
   -5.5287    0.0567   28.1844 C   0  0  0  0  0  0  0  0  0  0  0  0
   -6.1512   -1.0479   27.8045 C   0  0  0  0  0  0  0  0  0  0  0  0
   -7.5000   -0.9257   27.4807 C   0  0  0  0  0  0  0  0  0  0  0  0
   -8.1672    0.2955   27.3122 C   0  0  0  0  0  0  0  0  0  0  0  0
   -7.3792    1.4215   27.4939 C   0  0  0  0  0  0  0  0  0  0  0  0
  -11.0302    5.5242   22.1090 C   0  0  0  0  0  0  0  0  0  0  0  0
  -10.6632    3.2730   21.4181 C   0  0  2  0  0  0  0  0  0  0  0  0
  -10.3717    1.9493   21.6959 C   0  0  0  0  0  0  0  0  0  0  0  0
  -10.6675    0.9117   20.8579 C   0  0  0  0  0  0  0  0  0  0  0  0
  -10.2483   -0.4010   21.1431 C   0  0  0  0  0  0  0  0  0  0  0  0
   -9.6330   -0.6111   22.0547 C   0  0  0  0  0  0  0  0  0  0  0  0
   -9.1326    0.3081   23.0517 C   0  0  0  0  0  0  0  0  0  0  0  0
   -9.4744    1.5980   22.8661 C   0  0  0  0  0  0  0  0  0  0  0  0
  -10.6771    3.7072   20.0289 C   0  0  0  0  0  0  0  0  0  0  0  0
  4  5  1  0
  2  8  1  0
 16 17  1  0
 10 24  1  0
  5 25  1  0
 25 26  1  0
 24 32  2  0
 24 33  1  0
 33 34  1  0
 33 40  1  1
  8  9  2  0
  9 10  1  0
 10 11  2  0
 11 14  1  0
 12  8  1  0
 12 13  2  0
 13 15  1  0
 15 16  2  0
 16 20  1  0
 20 14  2  0
 14 12  1  0
  1  2  2  0
  2  3  1  0
  3  6  2  0
  6  7  1  0
  7  4  2  0
  4  1  1  0
 34 35  2  0
 35 36  1  0
 36 37  2  0
 37 38  1  0
 38 39  2  0
 39 34  1  0
 26 27  2  0
 27 28  1  0
 28 29  2  0
 29 30  1  0
 30 31  2  0
 31 26  1  0
 17 18  2  0
 18 19  1  0
 19 21  2  0
 21 22  1  0
 22 23  2  0
 23 17  1  0
M  END
$$$$
