No_5952-complexes_sdf/6BKW-FPZ/2024-09-17-14-21-01/
     RDKit          3D

 40 46  0  0  0  0  0  0  0  0999 V2000
   -7.7129    4.2099   27.0854 C   0  0  0  0  0  0  0  0  0  0  0  0
   -8.2112    3.0637   26.9225 C   0  0  0  0  0  0  0  0  0  0  0  0
   -8.4224    5.2106   27.8516 C   0  0  0  0  0  0  0  0  0  0  0  0
   -9.3720    2.7081   27.2300 C   0  0  0  0  0  0  0  0  0  0  0  0
   -9.7886    4.9588   28.0621 C   0  0  0  0  0  0  0  0  0  0  0  0
  -10.2557    3.7026   27.8261 C   0  0  0  0  0  0  0  0  0  0  0  0
  -11.6128    3.1483   28.0874 C   0  0  0  0  0  0  0  0  0  0  0  0
  -12.3566    3.1422   27.3074 N   0  0  0  0  0  0  0  0  0  0  0  0
  -12.4834    3.1356   26.2027 C   0  0  0  0  0  0  0  0  0  0  0  0
  -11.8026    2.5006   25.3985 C   0  0  0  0  0  0  0  0  0  0  0  0
  -11.8551    2.6841   23.8904 C   0  0  0  0  0  0  0  0  0  0  0  0
  -12.7670    3.6133   23.4632 C   0  0  0  0  0  0  0  0  0  0  0  0
  -13.4573    4.0790   25.4406 C   0  0  0  0  0  0  0  0  0  0  0  0
  -13.5475    4.3245   24.1894 C   0  0  0  0  0  0  0  0  0  0  0  0
  -13.8440    3.2831   28.0348 C   0  0  0  0  0  0  0  0  0  0  0  0
  -11.4635    2.4211   29.2062 O   0  0  0  0  0  0  0  0  0  0  0  0
  -14.2006    2.2629   28.8597 C   0  0  0  0  0  0  0  0  0  0  0  0
  -15.3609    2.3377   29.3959 C   0  0  0  0  0  0  0  0  0  0  0  0
  -16.1875    3.4789   29.3037 C   0  0  0  0  0  0  0  0  0  0  0  0
  -15.7579    4.5245   28.4908 C   0  0  0  0  0  0  0  0  0  0  0  0
  -14.5445    4.4429   27.8528 C   0  0  0  0  0  0  0  0  0  0  0  0
   -7.9237    6.4663   28.0106 O   0  0  0  0  0  0  0  0  0  0  0  0
   -8.2670    7.3610   27.0783 C   0  0  0  0  0  0  0  0  0  0  0  0
   -7.3362    2.0438   26.3895 N   0  0  0  0  0  0  0  0  0  0  0  0
   -7.2921    0.7463   26.9682 C   0  0  0  0  0  0  0  0  0  0  0  0
   -6.4628    0.1213   27.1151 C   0  0  0  0  0  0  0  0  0  0  0  0
   -6.4055   -1.1934   27.7993 C   0  0  0  0  0  0  0  0  0  0  0  0
   -7.6414   -1.6762   28.1891 C   0  0  0  0  0  0  0  0  0  0  0  0
   -8.7693   -0.9229   27.9442 C   0  0  0  0  0  0  0  0  0  0  0  0
   -8.6833    0.3110   27.3682 C   0  0  0  0  0  0  0  0  0  0  0  0
   -9.5587    1.3810   27.5275 N   0  0  0  0  0  0  0  0  0  0  0  0
  -10.1244   -1.4161   28.3825 C   0  0  0  0  0  0  0  0  0  0  0  0
  -11.2314   -1.1253   27.7592 C   0  0  0  0  0  0  0  0  0  0  0  0
  -12.4907   -1.6516   28.1894 C   0  0  0  0  0  0  0  0  0  0  0  0
  -12.5443   -2.4501   29.3224 C   0  0  0  0  0  0  0  0  0  0  0  0
  -11.3796   -2.7554   30.0017 C   0  0  0  0  0  0  0  0  0  0  0  0
  -10.1442   -2.2855   29.5859 C   0  0  0  0  0  0  0  0  0  0  0  0
  -13.9072   -1.1863   27.3686 Cl  0  0  0  0  0  0  0  0  0  0  0  0
  -14.4492    4.7822   26.4480 C   0  0  0  0  0  0  0  0  0  0  0  0
  -15.2754    5.7307   25.8824 N   0  0  0  0  0  0  0  0  0  0  0  0
  6  7  1  0
  7  8  1  0
  8  9  1  0
  8 15  1  0
  7 16  2  0
  3 22  1  0
 22 23  1  0
 29 32  1  0
 34 38  1  0
 13 39  1  0
 21 39  1  0
 39 40  1  0
 25 26  1  0
 26 27  2  0
 27 28  1  0
 28 29  2  0
 29 30  1  0
 32 33  2  0
 33 34  1  0
 34 35  2  0
 35 36  1  0
 36 37  2  0
 37 32  1  0
  4 31  1  0
 31 30  2  0
 30 25  1  0
 25 24  2  0
 24  2  1  0
  9 10  2  0
 10 11  1  0
 11 12  2  0
 12 14  1  0
 14 13  2  0
 13  9  1  0
 15 17  2  0
 17 18  1  0
 18 19  2  0
 19 20  1  0
 20 21  2  0
 21 15  1  0
  1  2  2  0
  2  4  1  0
  4  6  2  0
  6  5  1  0
  5  3  2  0
  3  1  1  0
M  END
$$$$
