No_5809-complexes_sdf/6BKW-FPZ/2024-09-17-14-21-01/
     RDKit          3D

 19 21  0  0  0  0  0  0  0  0999 V2000
   -7.9040    3.9820   27.1177 C   0  0  0  0  0  0  0  0  0  0  0  0
   -9.0711    4.3164   27.0630 C   0  0  0  0  0  0  0  0  0  0  0  0
   -9.9692    3.7224   26.1073 C   0  0  0  0  0  0  0  0  0  0  0  0
   -6.9787    4.6761   28.1003 C   0  0  0  0  0  0  0  0  0  0  0  0
   -9.4538    2.6801   25.3673 C   0  0  0  0  0  0  0  0  0  0  0  0
   -8.1927    2.1957   25.6621 C   0  0  0  0  0  0  0  0  0  0  0  0
   -7.4333    2.8255   26.6299 C   0  0  0  0  0  0  0  0  0  0  0  0
  -10.3066    1.9975   24.3777 C   0  0  0  0  0  0  0  0  0  0  0  0
  -10.6559    2.6408   23.2832 C   0  0  0  0  0  0  0  0  0  0  0  0
  -11.1635    2.0505   22.1367 C   0  0  0  0  0  0  0  0  0  0  0  0
  -11.3204    0.6234   22.1943 C   0  0  0  0  0  0  0  0  0  0  0  0
  -10.3061    0.6025   24.2445 C   0  0  0  0  0  0  0  0  0  0  0  0
  -10.8416   -0.0559   23.2025 C   0  0  0  0  0  0  0  0  0  0  0  0
   -5.8830    4.2883   28.2724 O   0  0  0  0  0  0  0  0  0  0  0  0
   -7.4481    5.7367   28.8033 O   0  0  0  0  0  0  0  0  0  0  0  0
  -10.5427    4.1802   23.1610 C   0  0  0  0  0  0  0  0  0  0  0  0
  -10.5976    4.9505   24.2875 C   0  0  0  0  0  0  0  0  0  0  0  0
  -10.3783    4.5887   25.4169 C   0  0  0  0  0  0  0  0  0  0  0  0
  -10.6449    4.7209   21.8134 C   0  0  0  0  0  0  0  0  0  0  0  0
  1  4  1  0
  5  8  1  0
  4 14  2  0
  4 15  1  0
  9 16  1  0
 16 17  2  0
  3 18  1  0
 17 18  1  0
 16 19  1  0
  8  9  2  0
  9 10  1  0
 10 11  2  0
 11 13  1  0
 13 12  2  0
 12  8  1  0
  1  2  2  0
  2  3  1  0
  3  5  2  0
  5  6  1  0
  6  7  2  0
  7  1  1  0
M  END
$$$$
