No_5960-complexes_sdf/6BKW-FPZ/2024-09-17-14-21-01/
     RDKit          3D

 30 33  0  0  0  0  0  0  0  0999 V2000
   -7.9040    3.9820   27.1177 C   0  0  0  0  0  0  0  0  0  0  0  0
   -7.8663    4.8694   27.9238 C   0  0  0  0  0  0  0  0  0  0  0  0
   -9.0953    3.1697   27.0532 C   0  0  0  0  0  0  0  0  0  0  0  0
  -10.1313    3.4052   27.8871 C   0  0  0  0  0  0  0  0  0  0  0  0
  -11.2910    2.5514   27.9289 C   0  0  0  0  0  0  0  0  0  0  0  0
   -8.9775    5.3451   28.7374 C   0  0  0  0  0  0  0  0  0  0  0  0
  -10.0738    4.4970   28.7375 C   0  0  0  0  0  0  0  0  0  0  0  0
  -12.4918    2.9085   28.2840 C   0  0  0  0  0  0  0  0  0  0  0  0
  -13.6001    2.0215   28.3576 C   0  0  0  0  0  0  0  0  0  0  0  0
  -13.3252    0.6812   28.0250 C   0  0  0  0  0  0  0  0  0  0  0  0
  -11.1546    1.1075   27.6865 C   0  0  0  0  0  0  0  0  0  0  0  0
  -12.1026    0.2482   27.7613 C   0  0  0  0  0  0  0  0  0  0  0  0
   -8.7798    1.9861   26.3466 N   0  0  0  0  0  0  0  0  0  0  0  0
   -9.1811    1.8308   25.0567 C   0  0  0  0  0  0  0  0  0  0  0  0
   -9.7769    2.9507   24.3742 C   0  0  0  0  0  0  0  0  0  0  0  0
   -8.9867    0.6607   24.3592 C   0  0  0  0  0  0  0  0  0  0  0  0
  -10.2582    2.9193   23.1189 C   0  0  0  0  0  0  0  0  0  0  0  0
   -8.3248   -0.4250   24.9314 C   0  0  0  0  0  0  0  0  0  0  0  0
   -9.3244    0.5410   22.9989 C   0  0  0  0  0  0  0  0  0  0  0  0
  -10.9017    4.0031   22.4964 C   0  0  0  0  0  0  0  0  0  0  0  0
   -9.9864    1.7061   22.3967 C   0  0  0  0  0  0  0  0  0  0  0  0
   -7.4088   -0.2293   25.5335 F   0  0  0  0  0  0  0  0  0  0  0  0
   -9.3408   -1.0010   25.7702 F   0  0  0  0  0  0  0  0  0  0  0  0
   -8.1398   -1.4309   24.0373 F   0  0  0  0  0  0  0  0  0  0  0  0
  -12.1973    4.2408   22.4399 C   0  0  0  0  0  0  0  0  0  0  0  0
  -12.9152    5.0172   21.7183 C   0  0  0  0  0  0  0  0  0  0  0  0
  -13.0033    3.4053   23.4181 C   0  0  0  0  0  0  0  0  0  0  0  0
  -14.3929    3.5830   23.4775 C   0  0  0  0  0  0  0  0  0  0  0  0
  -14.3123    5.2391   21.7144 C   0  0  0  0  0  0  0  0  0  0  0  0
  -15.0134    4.5042   22.6438 C   0  0  0  0  0  0  0  0  0  0  0  0
  4  5  1  0
  3 13  1  0
 13 14  1  0
 16 18  1  0
 17 20  1  0
 18 22  1  0
 18 23  1  0
 18 24  1  0
 20 25  1  0
 14 15  2  0
 15 17  1  0
 17 21  2  0
 21 19  1  0
 19 16  2  0
 16 14  1  0
  1  2  2  0
  2  6  1  0
  6  7  2  0
  7  4  1  0
  4  3  2  0
  3  1  1  0
  5  8  2  0
  8  9  1  0
  9 10  2  0
 10 12  1  0
 12 11  2  0
 11  5  1  0
 25 26  2  0
 26 29  1  0
 29 30  2  0
 30 28  1  0
 28 27  2  0
 27 25  1  0
M  END
$$$$
