No_5701-complexes_sdf/6BKW-FPZ/2024-09-17-14-21-01/
     RDKit          3D

 21 23  0  0  0  0  0  0  0  0999 V2000
   -7.7129    4.2099   27.0854 C   0  0  0  0  0  0  0  0  0  0  0  0
   -7.7814    5.1722   27.8972 C   0  0  0  0  0  0  0  0  0  0  0  0
   -8.8255    3.2789   27.1191 C   0  0  0  0  0  0  0  0  0  0  0  0
   -9.9209    3.4734   27.9101 C   0  0  0  0  0  0  0  0  0  0  0  0
  -10.9988    2.5645   28.0473 C   0  0  0  0  0  0  0  0  0  0  0  0
   -8.9569    5.5944   28.6231 C   0  0  0  0  0  0  0  0  0  0  0  0
   -9.9727    4.6600   28.6972 C   0  0  0  0  0  0  0  0  0  0  0  0
  -12.1537    2.9830   28.5585 C   0  0  0  0  0  0  0  0  0  0  0  0
  -12.3077    4.2957   29.0743 C   0  0  0  0  0  0  0  0  0  0  0  0
  -11.2417    5.0537   29.1748 C   0  0  0  0  0  0  0  0  0  0  0  0
   -8.5746    2.1617   26.2074 C   0  0  0  0  0  0  0  0  0  0  0  0
   -9.2165    1.2401   26.3982 N   0  0  0  0  0  0  0  0  0  0  0  0
   -8.7406    0.2468   27.0700 C   0  0  0  0  0  0  0  0  0  0  0  0
   -7.3487    0.1240   27.2770 C   0  0  0  0  0  0  0  0  0  0  0  0
   -9.5407   -0.8366   27.7109 C   0  0  0  0  0  0  0  0  0  0  0  0
   -6.7548   -0.9162   28.0964 C   0  0  0  0  0  0  0  0  0  0  0  0
   -8.9682   -1.8215   28.5068 C   0  0  0  0  0  0  0  0  0  0  0  0
   -7.5913   -1.8277   28.7042 C   0  0  0  0  0  0  0  0  0  0  0  0
   -9.9083    0.6123   25.1606 C   0  0  0  0  0  0  0  0  0  0  0  0
   -9.3751   -0.1395   24.6487 C   0  0  0  0  0  0  0  0  0  0  0  0
   -9.8454   -0.6262   23.2773 C   0  0  0  0  0  0  0  0  0  0  0  0
  3 11  1  0
 11 12  1  0
 12 13  1  0
 12 19  1  0
 19 20  2  3
 20 21  1  0
  4  5  1  0
  5  8  2  0
  8  9  1  0
  9 10  2  0
 10  7  1  0
  1  2  2  0
  2  6  1  0
  6  7  2  0
  7  4  1  0
  4  3  2  0
  3  1  1  0
 13 14  2  0
 14 16  1  0
 16 18  2  0
 18 17  1  0
 17 15  2  0
 15 13  1  0
M  END
$$$$
