No_5481-complexes_sdf/6BKW-FPZ/2024-09-17-14-21-01/
     RDKit          3D

 15 17  0  0  0  0  0  0  0  0999 V2000
   -7.9040    3.9820   27.1177 C   0  0  0  0  0  0  0  0  0  0  0  0
   -7.8663    4.8694   27.9238 C   0  0  0  0  0  0  0  0  0  0  0  0
   -7.4547    2.7080   27.4594 C   0  0  0  0  0  0  0  0  0  0  0  0
   -8.0927    6.2909   27.5184 C   0  0  0  0  0  0  0  0  0  0  0  0
   -8.9150    6.5640   26.4331 C   0  0  0  0  0  0  0  0  0  0  0  0
   -7.6563    1.4669   26.7412 C   0  0  0  0  0  0  0  0  0  0  0  0
   -8.5911    4.1595   25.8847 C   0  0  0  0  0  0  0  0  0  0  0  0
   -9.1495    5.4407   25.5619 C   0  0  0  0  0  0  0  0  0  0  0  0
   -7.0895    0.3126   27.1025 C   0  0  0  0  0  0  0  0  0  0  0  0
   -7.5992   -0.8730   26.6265 C   0  0  0  0  0  0  0  0  0  0  0  0
   -8.6587   -0.8055   25.7012 C   0  0  0  0  0  0  0  0  0  0  0  0
   -9.2335    0.3565   25.3464 C   0  0  0  0  0  0  0  0  0  0  0  0
   -8.7460    1.5445   25.9068 C   0  0  0  0  0  0  0  0  0  0  0  0
   -9.1458    2.9429   25.2388 C   0  0  0  0  0  0  0  0  0  0  0  0
   -9.9319    2.9871   24.2911 O   0  0  0  0  0  0  0  0  0  0  0  0
  1  3  1  0
  7 14  1  0
 13 14  1  0
 14 15  2  0
  3  6  1  0
  1  2  2  0
  2  4  1  0
  4  5  2  0
  5  8  1  0
  8  7  2  0
  7  1  1  0
  6  9  2  0
  9 10  1  0
 10 11  2  0
 11 12  1  0
 12 13  2  0
 13  6  1  0
M  END
$$$$
