No_5147-complexes_sdf/6BKW-FPZ/2024-09-17-14-21-01/
     RDKit          3D

 21 22  0  0  0  0  0  0  0  0999 V2000
   -7.2496    3.8871   27.4508 C   0  0  0  0  0  0  0  0  0  0  0  0
   -7.9379    4.9063   27.8518 C   0  0  0  0  0  0  0  0  0  0  0  0
   -7.5112    6.1898   27.6280 C   0  0  0  0  0  0  0  0  0  0  0  0
   -7.8078    2.6331   27.2522 C   0  0  0  0  0  0  0  0  0  0  0  0
   -9.1846    2.4724   27.5426 C   0  0  0  0  0  0  0  0  0  0  0  0
   -9.8869    3.5177   28.0783 C   0  0  0  0  0  0  0  0  0  0  0  0
   -9.3786    4.7757   28.1464 C   0  0  0  0  0  0  0  0  0  0  0  0
  -11.3170    3.2078   28.4137 C   0  0  0  0  0  0  0  0  0  0  0  0
  -12.1754    4.2109   28.6796 C   0  0  0  0  0  0  0  0  0  0  0  0
  -11.7246    1.8986   28.7460 C   0  0  0  0  0  0  0  0  0  0  0  0
  -13.5060    4.0531   29.0582 C   0  0  0  0  0  0  0  0  0  0  0  0
  -13.0150    1.6532   29.1652 C   0  0  0  0  0  0  0  0  0  0  0  0
  -13.8872    2.7207   29.3122 C   0  0  0  0  0  0  0  0  0  0  0  0
   -7.1754    1.3619   26.9915 C   0  0  0  0  0  0  0  0  0  0  0  0
   -5.9000    1.4545   27.2035 F   0  0  0  0  0  0  0  0  0  0  0  0
   -7.6910    0.3408   27.7012 F   0  0  0  0  0  0  0  0  0  0  0  0
   -7.3585    1.0203   25.6686 F   0  0  0  0  0  0  0  0  0  0  0  0
  -15.2925    2.4527   29.7684 C   0  0  0  0  0  0  0  0  0  0  0  0
  -15.7778    2.6185   30.7864 O   0  0  0  0  0  0  0  0  0  0  0  0
  -16.0302    1.8606   28.7903 O   0  0  0  0  0  0  0  0  0  0  0  0
   -8.2758    7.1882   27.1306 O   0  0  0  0  0  0  0  0  0  0  0  0
  6  8  1  0
  4 14  1  0
 14 15  1  0
 14 16  1  0
 14 17  1  0
 13 18  1  0
 18 19  1  0
 18 20  2  0
  3 21  1  0
  3  2  1  0
  8  9  2  0
  9 11  1  0
 11 13  2  0
 13 12  1  0
 12 10  2  0
 10  8  1  0
  1  2  2  0
  2  7  1  0
  7  6  2  0
  6  5  1  0
  5  4  2  0
  4  1  1  0
M  END
$$$$
