No_5841-complexes_sdf/6BKW-FPZ/2024-09-17-14-21-01/
     RDKit          3D

 12 13  0  0  0  0  0  0  0  0999 V2000
   -7.9040    3.9820   27.1177 C   0  0  0  0  0  0  0  0  0  0  0  0
   -7.8663    4.8694   27.9238 C   0  0  0  0  0  0  0  0  0  0  0  0
   -9.0491    3.8523   26.2542 C   0  0  0  0  0  0  0  0  0  0  0  0
   -9.7161    4.8785   25.9890 C   0  0  0  0  0  0  0  0  0  0  0  0
   -8.4350    6.1486   27.6826 C   0  0  0  0  0  0  0  0  0  0  0  0
   -9.5031    6.1047   26.7277 C   0  0  0  0  0  0  0  0  0  0  0  0
   -7.1667    2.6422   27.4295 C   0  0  0  0  0  0  0  0  0  0  0  0
   -5.9131    2.6755   28.0278 C   0  0  0  0  0  0  0  0  0  0  0  0
   -7.6872    1.3936   27.0207 C   0  0  0  0  0  0  0  0  0  0  0  0
   -5.0988    1.5335   28.1272 C   0  0  0  0  0  0  0  0  0  0  0  0
   -6.9024    0.2550   27.2255 C   0  0  0  0  0  0  0  0  0  0  0  0
   -5.6264    0.3386   27.8012 C   0  0  0  0  0  0  0  0  0  0  0  0
  1  7  1  0
  1  2  2  0
  2  5  1  0
  5  6  2  0
  6  4  1  0
  4  3  2  0
  3  1  1  0
  7  8  2  0
  8 10  1  0
 10 12  2  0
 12 11  1  0
 11  9  2  0
  9  7  1  0
M  END
$$$$
