No_5683-complexes_sdf/6BKW-FPZ/2024-09-17-14-21-01/
     RDKit          3D

 32 36  0  0  0  0  0  0  0  0999 V2000
   -7.7129    4.2099   27.0854 C   0  0  0  0  0  0  0  0  0  0  0  0
   -8.9133    4.4736   27.0998 C   0  0  0  0  0  0  0  0  0  0  0  0
   -9.7937    3.7367   26.2091 C   0  0  0  0  0  0  0  0  0  0  0  0
   -6.8266    5.0441   28.0594 C   0  0  0  0  0  0  0  0  0  0  0  0
   -9.2322    2.6276   25.6126 C   0  0  0  0  0  0  0  0  0  0  0  0
   -7.9794    2.1924   25.9863 C   0  0  0  0  0  0  0  0  0  0  0  0
   -7.2411    2.9387   26.9009 C   0  0  0  0  0  0  0  0  0  0  0  0
  -10.0894    1.7793   24.7540 C   0  0  0  0  0  0  0  0  0  0  0  0
  -10.0344    0.5790   24.7192 C   0  0  0  0  0  0  0  0  0  0  0  0
  -10.7963   -0.2560   23.7738 C   0  0  0  0  0  0  0  0  0  0  0  0
  -11.6026    0.4324   22.8291 C   0  0  0  0  0  0  0  0  0  0  0  0
  -10.8246    2.4031   23.7309 C   0  0  0  0  0  0  0  0  0  0  0  0
  -11.5551    1.7945   22.8390 C   0  0  0  0  0  0  0  0  0  0  0  0
   -9.6146    5.7047   27.5635 C   0  0  0  0  0  0  0  0  0  0  0  0
   -8.8960    6.8887   27.3898 N   0  0  0  0  0  0  0  0  0  0  0  0
   -7.5637    6.8768   26.8756 C   0  0  2  0  0  0  0  0  0  0  0  0
   -6.6537    6.2457   27.5033 N   0  0  0  0  0  0  0  0  0  0  0  0
   -7.2442    8.0556   26.4991 F   0  0  0  0  0  0  0  0  0  0  0  0
  -10.8300   -1.5740   23.7742 F   0  0  0  0  0  0  0  0  0  0  0  0
  -12.3537    2.4350   21.9202 O   0  0  0  0  0  0  0  0  0  0  0  0
  -11.8168    3.2857   21.0934 C   0  0  0  0  0  0  0  0  0  0  0  0
  -11.2352    4.2256   21.6320 C   0  0  0  0  0  0  0  0  0  0  0  0
  -10.2210    4.3367   22.7864 C   0  0  0  0  0  0  0  0  0  0  0  0
  -10.1807    3.7981   23.6009 C   0  0  0  0  0  0  0  0  0  0  0  0
  -12.2644   -0.2814   22.0263 O   0  0  0  0  0  0  0  0  0  0  0  0
  -11.9376   -0.3088   20.7400 C   0  0  0  0  0  0  0  0  0  0  0  0
  -12.0270   -1.5157   20.1039 C   0  0  0  0  0  0  0  0  0  0  0  0
  -12.1090   -2.4790   20.4841 C   0  0  0  0  0  0  0  0  0  0  0  0
  -12.1390   -3.7757   19.7159 C   0  0  0  0  0  0  0  0  0  0  0  0
  -12.0061   -3.6439   18.3403 C   0  0  0  0  0  0  0  0  0  0  0  0
  -11.8325   -2.4132   17.7741 C   0  0  0  0  0  0  0  0  0  0  0  0
  -11.7668   -1.2707   18.5655 C   0  0  0  0  0  0  0  0  0  0  0  0
  1  4  1  0
  5  8  1  0
  2 14  1  0
 14 15  1  0
 15 16  1  0
  4 17  1  0
 16 17  1  0
 16 18  1  1
 10 19  1  0
 13 20  1  0
 20 21  1  0
 21 22  1  0
 22 23  2  0
 12 24  1  0
 23 24  1  0
 11 25  1  0
 25 26  1  0
 26 27  1  0
 27 28  2  0
 28 29  1  0
 29 30  2  0
 30 31  1  0
 31 32  2  0
 32 27  1  0
  8  9  2  0
  9 10  1  0
 10 11  2  0
 11 13  1  0
 13 12  2  0
 12  8  1  0
  1  2  1  0
  2  3  2  0
  3  5  1  0
  5  6  2  0
  6  7  1  0
  7  1  2  0
M  END
$$$$
