No_5854-complexes_sdf/6BKW-FPZ/2024-09-17-14-21-01/
     RDKit          3D

 18 19  0  0  0  0  0  0  0  0999 V2000
   -7.9040    3.9820   27.1177 C   0  0  0  0  0  0  0  0  0  0  0  0
   -8.2057    2.8231   26.8733 C   0  0  0  0  0  0  0  0  0  0  0  0
   -8.7695    5.0740   26.7916 C   0  0  0  0  0  0  0  0  0  0  0  0
   -9.9618    4.7598   26.1630 C   0  0  0  0  0  0  0  0  0  0  0  0
   -9.4200    2.4524   26.2849 C   0  0  0  0  0  0  0  0  0  0  0  0
  -10.2590    3.4815   25.9250 C   0  0  0  0  0  0  0  0  0  0  0  0
   -8.1333    6.6765   27.1383 Cl  0  0  0  0  0  0  0  0  0  0  0  0
   -7.2790    1.6696   27.2814 C   0  0  1  0  0  0  0  0  0  0  0  0
   -6.1219    2.0034   27.8355 N   0  0  0  0  0  0  0  0  0  0  0  0
   -5.2572    0.9316   28.2005 C   0  0  0  0  0  0  0  0  0  0  0  0
   -5.6589   -0.3242   28.0931 C   0  0  0  0  0  0  0  0  0  0  0  0
   -7.8936    0.5756   27.0878 F   0  0  0  0  0  0  0  0  0  0  0  0
   -4.1162    1.2505   28.8962 N   0  0  0  0  0  0  0  0  0  0  0  0
   -4.7486   -1.3012   28.6807 C   0  0  0  0  0  0  0  0  0  0  0  0
   -5.1560   -2.7093   28.5873 C   0  0  0  0  0  0  0  0  0  0  0  0
   -6.1604   -3.0551   28.4266 C   0  0  0  0  0  0  0  0  0  0  0  0
   -7.2622   -2.0895   27.9036 C   0  0  0  0  0  0  0  0  0  0  0  0
   -6.9117   -0.8074   27.8517 C   0  0  0  0  0  0  0  0  0  0  0  0
  3  7  1  0
  2  8  1  0
  8  9  1  0
  9 10  2  3
 10 11  1  0
  8 12  1  1
 10 13  1  0
  1  2  2  0
  2  5  1  0
  5  6  2  0
  6  4  1  0
  4  3  2  0
  3  1  1  0
 11 14  2  0
 14 15  1  0
 15 16  2  0
 16 17  1  0
 17 18  2  0
 18 11  1  0
M  END
$$$$
