No_5301-complexes_sdf/6BKW-FPZ/2024-09-17-14-21-01/
     RDKit          3D

 14 16  0  0  0  0  0  0  0  0999 V2000
   -7.7129    4.2099   27.0854 C   0  0  0  0  0  0  0  0  0  0  0  0
   -7.7814    5.1722   27.8972 C   0  0  0  0  0  0  0  0  0  0  0  0
   -8.8998    3.8713   26.3707 C   0  0  0  0  0  0  0  0  0  0  0  0
   -9.9938    4.6774   26.5446 C   0  0  0  0  0  0  0  0  0  0  0  0
   -8.7789    6.1536   27.9256 C   0  0  0  0  0  0  0  0  0  0  0  0
   -9.9428    5.8398   27.2296 C   0  0  0  0  0  0  0  0  0  0  0  0
   -8.9119    2.6447   25.5685 C   0  0  0  0  0  0  0  0  0  0  0  0
   -8.3051    1.4797   26.1124 C   0  0  0  0  0  0  0  0  0  0  0  0
   -8.4123    0.3778   25.7218 C   0  0  0  0  0  0  0  0  0  0  0  0
   -7.7025   -0.7942   26.3213 C   0  0  0  0  0  0  0  0  0  0  0  0
   -6.9313   -0.5516   27.4689 C   0  0  0  0  0  0  0  0  0  0  0  0
   -6.7316    0.7591   27.8729 C   0  0  0  0  0  0  0  0  0  0  0  0
   -7.3142    1.7888   27.2913 C   0  0  0  0  0  0  0  0  0  0  0  0
   -7.1650    3.1912   27.7380 C   0  0  0  0  0  0  0  0  0  0  0  0
  3  7  1  0
  7  8  2  0
 13 14  2  0
 14  1  1  0
  8  9  1  0
  9 10  2  0
 10 11  1  0
 11 12  2  0
 12 13  1  0
 13  8  1  0
  1  2  2  0
  2  5  1  0
  5  6  2  0
  6  4  1  0
  4  3  2  0
  3  1  1  0
M  END
$$$$
