No_5791-complexes_sdf/6BKW-FPZ/2024-09-17-14-21-01/
     RDKit          3D

 40 44  0  0  0  0  0  0  0  0999 V2000
   -7.2496    3.8871   27.4508 C   0  0  0  0  0  0  0  0  0  0  0  0
   -8.5096    4.0291   27.2770 C   0  0  0  0  0  0  0  0  0  0  0  0
   -9.3451    2.8786   26.9046 C   0  0  0  0  0  0  0  0  0  0  0  0
   -6.6065    2.5680   27.5073 C   0  0  0  0  0  0  0  0  0  0  0  0
   -7.4233    1.4858   27.2402 C   0  0  0  0  0  0  0  0  0  0  0  0
   -8.7362    1.6525   26.9989 C   0  0  0  0  0  0  0  0  0  0  0  0
   -9.1023    5.3710   27.2131 C   0  0  0  0  0  0  0  0  0  0  0  0
  -10.2823    5.7688   27.6369 C   0  0  0  0  0  0  0  0  0  0  0  0
   -8.1952    6.4445   26.7659 C   0  0  0  0  0  0  0  0  0  0  0  0
   -8.5136    7.7976   26.8128 C   0  0  0  0  0  0  0  0  0  0  0  0
  -11.1507    4.7137   28.0476 C   0  0  0  0  0  0  0  0  0  0  0  0
   -6.5709    0.2373   27.2861 C   0  0  0  0  0  0  0  0  0  0  0  0
   -6.7437   -0.5678   28.1150 C   0  0  0  0  0  0  0  0  0  0  0  0
   -5.8777   -1.7184   28.3368 C   0  0  0  0  0  0  0  0  0  0  0  0
   -5.9696   -2.5616   29.4642 C   0  0  0  0  0  0  0  0  0  0  0  0
   -7.0937   -2.3881   30.3009 C   0  0  0  0  0  0  0  0  0  0  0  0
   -8.1220   -1.5415   29.9417 C   0  0  0  0  0  0  0  0  0  0  0  0
   -7.9776   -0.6436   28.9648 C   0  0  0  0  0  0  0  0  0  0  0  0
  -12.3889    4.4699   27.6947 C   0  0  0  0  0  0  0  0  0  0  0  0
  -13.2304    3.4867   28.2390 C   0  0  0  0  0  0  0  0  0  0  0  0
  -12.5718    2.5992   29.1523 C   0  0  0  0  0  0  0  0  0  0  0  0
  -11.2306    2.7693   29.4255 C   0  0  0  0  0  0  0  0  0  0  0  0
  -10.4924    3.7784   28.9691 C   0  0  0  0  0  0  0  0  0  0  0  0
  -13.5149    1.5574   29.6831 C   0  0  0  0  0  0  0  0  0  0  0  0
  -14.3403    1.7165   30.3752 O   0  0  0  0  0  0  0  0  0  0  0  0
  -13.0363    0.2938   29.3548 O   0  0  0  0  0  0  0  0  0  0  0  0
   -5.7046    0.1896   26.3264 O   0  0  0  0  0  0  0  0  0  0  0  0
   -7.3477   -3.3834   31.4322 C   0  0  0  0  0  0  0  0  0  0  0  0
   -6.5985   -3.1048   32.5009 C   0  0  0  0  0  0  0  0  0  0  0  0
   -6.8345   -3.7129   33.7252 C   0  0  0  0  0  0  0  0  0  0  0  0
   -7.8481   -4.7284   33.7069 C   0  0  0  0  0  0  0  0  0  0  0  0
   -8.5775   -4.9648   32.5959 C   0  0  0  0  0  0  0  0  0  0  0  0
   -8.3917   -4.2231   31.4534 C   0  0  0  0  0  0  0  0  0  0  0  0
   -5.5389   -2.0114   32.6054 C   0  0  0  0  0  0  0  0  0  0  0  0
   -4.4252   -2.2391   32.4647 C   0  0  0  0  0  0  0  0  0  0  0  0
   -3.6955   -3.3087   32.6812 C   0  0  0  0  0  0  0  0  0  0  0  0
   -2.3262   -3.4361   32.3776 C   0  0  0  0  0  0  0  0  0  0  0  0
   -3.4666   -1.0021   32.4068 C   0  0  0  0  0  0  0  0  0  0  0  0
   -2.1324   -1.0369   32.1320 C   0  0  0  0  0  0  0  0  0  0  0  0
   -1.5462   -2.2745   32.2153 C   0  0  0  0  0  0  0  0  0  0  0  0
  2  7  1  0
  7  8  2  3
  7  9  1  0
  9 10  2  0
  8 11  1  0
  5 12  1  0
 12 13  1  0
 21 24  1  0
 24 25  2  0
 24 26  1  0
 12 27  2  0
 16 28  1  0
 29 34  1  0
 34 35  1  0
 11 19  2  0
 19 20  1  0
 20 21  2  0
 21 22  1  0
 22 23  2  0
 23 11  1  0
  1  2  2  0
  2  3  1  0
  3  6  2  0
  6  5  1  0
  5  4  2  0
  4  1  1  0
 28 29  1  0
 29 30  2  0
 30 31  1  0
 31 32  2  0
 32 33  1  0
 33 28  2  0
 35 36  2  0
 36 37  1  0
 37 40  2  0
 40 39  1  0
 39 38  2  0
 38 35  1  0
 13 14  2  0
 14 15  1  0
 15 16  2  0
 16 17  1  0
 17 18  2  0
 18 13  1  0
M  END
$$$$
