No_5462-complexes_sdf/6BKW-FPZ/2024-09-17-14-21-01/
     RDKit          3D

 29 31  0  0  0  0  0  0  0  0999 V2000
   -7.2496    3.8871   27.4508 C   0  0  0  0  0  0  0  0  0  0  0  0
   -8.5096    4.0291   27.2770 C   0  0  0  0  0  0  0  0  0  0  0  0
   -9.3502    2.8685   26.8763 C   0  0  0  0  0  0  0  0  0  0  0  0
   -6.6288    2.5513   27.4938 C   0  0  0  0  0  0  0  0  0  0  0  0
   -7.4365    1.4714   27.2032 C   0  0  0  0  0  0  0  0  0  0  0  0
   -8.7772    1.6579   26.9338 C   0  0  0  0  0  0  0  0  0  0  0  0
   -9.1078    5.3660   27.2249 C   0  0  0  0  0  0  0  0  0  0  0  0
   -8.3546    6.4796   26.8735 C   0  0  0  0  0  0  0  0  0  0  0  0
   -8.5735    7.7813   27.3074 C   0  0  0  0  0  0  0  0  0  0  0  0
   -6.8273    0.1558   27.2503 C   0  0  0  0  0  0  0  0  0  0  0  0
   -5.6968   -0.0288   27.8080 N   0  0  0  0  0  0  0  0  0  0  0  0
   -7.4090   -0.9409   26.5582 C   0  0  0  0  0  0  0  0  0  0  0  0
   -5.1005   -1.2428   27.9890 C   0  0  0  0  0  0  0  0  0  0  0  0
   -6.8810   -2.2047   26.6853 C   0  0  0  0  0  0  0  0  0  0  0  0
   -5.6712   -2.3346   27.3699 C   0  0  0  0  0  0  0  0  0  0  0  0
  -10.4965    5.4711   27.5013 C   0  0  0  0  0  0  0  0  0  0  0  0
   -3.8161   -1.3093   28.7659 C   0  0  1  0  0  0  0  0  0  0  0  0
   -3.7849   -0.6136   29.9312 C   0  0  0  0  0  0  0  0  0  0  0  0
   -4.1150   -1.1289   31.2116 C   0  0  0  0  0  0  0  0  0  0  0  0
   -4.2013   -0.2553   32.3120 C   0  0  0  0  0  0  0  0  0  0  0  0
   -4.6523   -0.8057   33.4947 C   0  0  0  0  0  0  0  0  0  0  0  0
   -5.1236   -2.1231   33.6458 C   0  0  0  0  0  0  0  0  0  0  0  0
   -4.9856   -2.9465   32.5302 C   0  0  0  0  0  0  0  0  0  0  0  0
   -4.5418   -2.4613   31.3257 C   0  0  0  0  0  0  0  0  0  0  0  0
   -2.8088   -2.1244   28.3688 C   0  0  0  0  0  0  0  0  0  0  0  0
   -3.4071    0.8358   29.8392 C   0  0  0  0  0  0  0  0  0  0  0  0
   -5.5911   -2.6390   34.9511 C   0  0  0  0  0  0  0  0  0  0  0  0
   -5.5391   -1.9153   35.9225 O   0  0  0  0  0  0  0  0  0  0  0  0
   -6.5073   -3.5979   34.9363 O   0  0  0  0  0  0  0  0  0  0  0  0
  2  7  1  0
  7  8  1  0
  8  9  2  0
  5 10  1  0
  7 16  1  0
 13 17  1  0
 17 18  1  0
 18 19  1  0
 17 25  1  1
 18 26  1  0
 22 27  1  0
 27 28  2  0
 27 29  1  0
 10 11  2  0
 11 13  1  0
 13 15  2  0
 15 14  1  0
 14 12  2  0
 12 10  1  0
  1  2  2  0
  2  3  1  0
  3  6  2  0
  6  5  1  0
  5  4  2  0
  4  1  1  0
 19 20  2  0
 20 21  1  0
 21 22  2  0
 22 23  1  0
 23 24  2  0
 24 19  1  0
M  END
$$$$
