No_5477-complexes_sdf/6BKW-FPZ/2024-09-17-14-21-01/
     RDKit          3D

 34 38  0  0  0  0  0  0  0  0999 V2000
   -7.7129    4.2099   27.0854 C   0  0  0  0  0  0  0  0  0  0  0  0
   -7.7814    5.1722   27.8972 C   0  0  0  0  0  0  0  0  0  0  0  0
   -8.8998    3.8713   26.3707 C   0  0  0  0  0  0  0  0  0  0  0  0
   -8.9563    2.6796   25.5490 C   0  0  0  0  0  0  0  0  0  0  0  0
   -8.8131    6.1334   27.9344 C   0  0  0  0  0  0  0  0  0  0  0  0
   -9.9804    5.8121   27.1929 C   0  0  0  0  0  0  0  0  0  0  0  0
   -9.9861    4.6836   26.4532 C   0  0  0  0  0  0  0  0  0  0  0  0
   -9.7724    2.5811   24.5447 N   0  0  0  0  0  0  0  0  0  0  0  0
  -10.1506    1.8235   24.0004 C   0  0  0  0  0  0  0  0  0  0  0  0
   -9.9195    0.5030   24.4325 C   0  0  0  0  0  0  0  0  0  0  0  0
   -8.4675    1.4721   26.0699 C   0  0  0  0  0  0  0  0  0  0  0  0
   -7.6206    1.3910   27.2460 C   0  0  0  0  0  0  0  0  0  0  0  0
   -8.9239    0.3055   25.4146 C   0  0  0  0  0  0  0  0  0  0  0  0
   -6.3591    1.5516   27.2710 C   0  0  0  0  0  0  0  0  0  0  0  0
   -5.4250    0.9115   28.2089 C   0  0  0  0  0  0  0  0  0  0  0  0
   -4.1124    1.3118   28.3864 C   0  0  0  0  0  0  0  0  0  0  0  0
   -5.5705   -0.5547   28.2712 C   0  0  0  0  0  0  0  0  0  0  0  0
   -4.7942   -1.2441   29.2186 C   0  0  0  0  0  0  0  0  0  0  0  0
   -3.2508    0.6492   29.2766 C   0  0  0  0  0  0  0  0  0  0  0  0
   -3.5648   -0.6687   29.6349 C   0  0  0  0  0  0  0  0  0  0  0  0
   -2.6718   -1.4560   30.5166 C   0  0  0  0  0  0  0  0  0  0  0  0
   -1.7565   -2.3012   29.9776 C   0  0  0  0  0  0  0  0  0  0  0  0
   -2.8293   -1.3059   31.9467 C   0  0  0  0  0  0  0  0  0  0  0  0
   -3.4109   -2.1705   32.6148 C   0  0  0  0  0  0  0  0  0  0  0  0
   -3.8653   -3.2608   32.1767 C   0  0  0  0  0  0  0  0  0  0  0  0
   -4.5615   -4.2327   33.0183 C   0  0  0  0  0  0  0  0  0  0  0  0
   -4.7153   -3.8679   34.3792 C   0  0  0  0  0  0  0  0  0  0  0  0
   -4.2572   -2.6932   34.9285 C   0  0  0  0  0  0  0  0  0  0  0  0
   -3.5946   -1.7528   34.1283 C   0  0  0  0  0  0  0  0  0  0  0  0
   -0.6094   -2.4217   30.6422 C   0  0  0  0  0  0  0  0  0  0  0  0
    0.4713   -3.2536   30.1569 C   0  0  0  0  0  0  0  0  0  0  0  0
    0.2629   -3.8299   28.9403 C   0  0  0  0  0  0  0  0  0  0  0  0
   -1.8750   -2.9204   28.7904 C   0  0  0  0  0  0  0  0  0  0  0  0
   -0.8935   -3.6880   28.2655 C   0  0  0  0  0  0  0  0  0  0  0  0
  3  4  1  0
 11 12  1  0
 12 14  1  0
 20 21  1  0
 21 22  1  0
 21 23  1  0
 14 15  1  0
 23 24  1  0
 24 25  2  0
 25 26  1  0
 26 27  2  0
 27 28  1  0
 28 29  2  0
 29 24  1  0
  1  2  2  0
  2  5  1  0
  5  6  2  0
  6  7  1  0
  7  3  2  0
  3  1  1  0
 15 16  2  0
 16 19  1  0
 19 20  2  0
 20 18  1  0
 18 17  2  0
 17 15  1  0
  4  8  2  0
  8  9  1  0
  9 10  2  0
 10 13  1  0
 13 11  2  0
 11  4  1  0
 22 30  2  0
 30 31  1  0
 31 32  2  0
 32 34  1  0
 34 33  2  0
 33 22  1  0
M  END
$$$$
