No_597-complexes_sdf/6BKW-FPZ/2024-09-17-14-21-01/
     RDKit          3D

 25 28  0  0  0  0  0  0  0  0999 V2000
   -7.7129    4.2099   27.0854 C   0  0  0  0  0  0  0  0  0  0  0  0
   -8.2112    3.0637   26.9225 C   0  0  0  0  0  0  0  0  0  0  0  0
   -7.5138    1.9223   27.4249 C   0  0  0  0  0  0  0  0  0  0  0  0
   -6.5434    4.4363   27.9024 C   0  0  0  0  0  0  0  0  0  0  0  0
   -8.0049    0.5813   27.2334 C   0  0  0  0  0  0  0  0  0  0  0  0
   -5.7705    3.2822   28.1710 C   0  0  0  0  0  0  0  0  0  0  0  0
   -6.2650    2.0456   28.0026 C   0  0  0  0  0  0  0  0  0  0  0  0
   -9.4342    0.3553   27.3901 C   0  0  0  0  0  0  0  0  0  0  0  0
  -10.3104    1.4250   27.6368 C   0  0  0  0  0  0  0  0  0  0  0  0
  -11.6501    1.3204   27.8252 C   0  0  0  0  0  0  0  0  0  0  0  0
  -12.4103    2.4984   28.0213 C   0  0  0  0  0  0  0  0  0  0  0  0
   -9.7690    2.8293   27.4005 C   0  0  0  0  0  0  0  0  0  0  0  0
  -11.8861    3.7683   27.8676 C   0  0  0  0  0  0  0  0  0  0  0  0
  -10.5454    3.9558   27.5391 C   0  0  0  0  0  0  0  0  0  0  0  0
   -5.5505    0.7917   28.1866 C   0  0  0  0  0  0  0  0  0  0  0  0
   -5.8848   -0.3883   28.1625 N   0  0  0  0  0  0  0  0  0  0  0  0
   -7.2522   -0.5283   27.6869 C   0  0  0  0  0  0  0  0  0  0  0  0
   -4.1427    0.9706   28.6397 N   0  0  0  0  0  0  0  0  0  0  0  0
  -13.8521    2.3555   28.4597 C   0  0  0  0  0  0  0  0  0  0  0  0
  -14.4405    1.3895   28.4302 N   0  0  0  0  0  0  0  0  0  0  0  0
  -15.6249    1.1793   28.8465 C   0  0  0  0  0  0  0  0  0  0  0  0
  -14.3524    3.4685   28.9725 O   0  0  0  0  0  0  0  0  0  0  0  0
  -16.0731    0.3307   29.2403 C   0  0  0  0  0  0  0  0  0  0  0  0
  -15.5063   -1.0079   28.9617 C   0  0  0  0  0  0  0  0  0  0  0  0
  -14.2192   -1.0099   28.4920 C   0  0  0  0  0  0  0  0  0  0  0  0
  1  2  2  0
  2  3  1  0
  1  4  1  0
  3  5  2  0
  4  6  1  0
  3  7  1  0
  6  7  2  0
  5  8  1  0
  8  9  2  0
  9 10  1  0
 10 11  2  0
  2 12  1  0
  9 12  1  0
 11 13  1  0
 12 14  1  0
 13 14  2  0
  7 15  1  0
 15 16  2  0
  5 17  1  0
 16 17  1  0
 15 18  1  0
 11 19  1  0
 19 20  1  0
 20 21  2  3
 19 22  2  0
 21 23  1  0
 23 24  1  0
 24 25  2  0
M  END
$$$$
