No_5502-complexes_sdf/6BKW-FPZ/2024-09-17-14-21-01/
     RDKit          3D

 26 28  0  0  0  0  0  0  0  0999 V2000
   -7.9040    3.9820   27.1177 C   0  0  0  0  0  0  0  0  0  0  0  0
   -9.0711    4.3164   27.0630 C   0  0  0  0  0  0  0  0  0  0  0  0
   -9.5294    5.4517   27.7215 C   0  0  0  0  0  0  0  0  0  0  0  0
   -9.9845    3.5634   26.2189 C   0  0  0  0  0  0  0  0  0  0  0  0
   -9.6295    2.5733   25.6121 C   0  0  0  0  0  0  0  0  0  0  0  0
   -7.6751    2.7120   27.1420 C   0  0  0  0  0  0  0  0  0  0  0  0
   -8.3951    1.8859   26.2233 C   0  0  0  0  0  0  0  0  0  0  0  0
   -7.9736    0.5604   25.8111 C   0  0  0  0  0  0  0  0  0  0  0  0
   -7.1242   -0.1026   26.6399 C   0  0  0  0  0  0  0  0  0  0  0  0
   -7.2999    0.0404   27.9446 C   0  0  0  0  0  0  0  0  0  0  0  0
   -6.4376   -0.9168   28.7042 C   0  0  0  0  0  0  0  0  0  0  0  0
   -5.3870   -1.5427   28.1787 C   0  0  0  0  0  0  0  0  0  0  0  0
   -5.2008   -1.4855   26.8074 C   0  0  0  0  0  0  0  0  0  0  0  0
   -6.0725   -0.7573   26.0286 C   0  0  0  0  0  0  0  0  0  0  0  0
   -8.3084    0.1244   24.6804 O   0  0  0  0  0  0  0  0  0  0  0  0
   -7.0413    4.5863   28.0696 F   0  0  0  0  0  0  0  0  0  0  0  0
   -4.4688   -2.3170   29.0662 C   0  0  0  0  0  0  0  0  0  0  0  0
   -4.6252   -2.4701   30.1866 N   0  0  0  0  0  0  0  0  0  0  0  0
   -3.8083   -3.0305   30.9648 C   0  0  0  0  0  0  0  0  0  0  0  0
   -3.9302   -3.0080   32.4952 C   0  0  0  0  0  0  0  0  0  0  0  0
   -5.0517   -2.4089   32.9941 C   0  0  0  0  0  0  0  0  0  0  0  0
   -5.2704   -2.2875   34.4012 C   0  0  0  0  0  0  0  0  0  0  0  0
   -4.2391   -2.7450   35.2383 C   0  0  0  0  0  0  0  0  0  0  0  0
   -3.0860   -3.2770   34.7174 C   0  0  0  0  0  0  0  0  0  0  0  0
   -2.8976   -3.3592   33.3416 C   0  0  0  0  0  0  0  0  0  0  0  0
   -3.7210   -3.1066   28.4373 O   0  0  0  0  0  0  0  0  0  0  0  0
  2  3  1  0
  7  8  1  0
  8  9  1  0
  8 15  2  0
  1 16  1  0
 12 17  1  0
 17 18  1  0
 18 19  2  3
 19 20  1  0
 17 26  2  0
  1  2  2  0
  2  4  1  0
  4  5  2  0
  5  7  1  0
  7  6  2  0
  6  1  1  0
  9 10  2  0
 10 11  1  0
 11 12  2  0
 12 13  1  0
 13 14  2  0
 14  9  1  0
 20 21  2  0
 21 22  1  0
 22 23  2  0
 23 24  1  0
 24 25  2  0
 25 20  1  0
M  END
$$$$
