No_579-complexes_sdf/6BKW-FPZ/2024-09-17-14-21-01/
     RDKit          3D

  9  9  0  0  0  0  0  0  0  0999 V2000
   -7.2496    3.8871   27.4508 C   0  0  0  0  0  0  0  0  0  0  0  0
   -8.5096    4.0291   27.2770 C   0  0  0  0  0  0  0  0  0  0  0  0
   -9.2669    5.1645   27.5845 C   0  0  0  0  0  0  0  0  0  0  0  0
   -8.4566    6.3212   27.8001 C   0  0  0  0  0  0  0  0  0  0  0  0
   -6.7735    4.3657   28.2155 C   0  0  0  0  0  0  0  0  0  0  0  0
   -7.1150    5.9492   28.1615 C   0  0  0  0  0  0  0  0  0  0  0  0
   -9.4596    2.8832   26.7179 C   0  0  0  0  0  0  0  0  0  0  0  0
  -10.1467    1.9924   27.4144 C   0  0  0  0  0  0  0  0  0  0  0  0
  -10.9095    0.9548   26.9251 C   0  0  0  0  0  0  0  0  0  0  0  0
  2  7  1  0
  7  8  2  3
  8  9  1  0
  1  2  2  0
  2  3  1  0
  3  4  2  0
  4  6  1  0
  6  5  2  0
  5  1  1  0
M  END
$$$$
