No_5096-complexes_sdf/6BKW-FPZ/2024-09-17-14-21-01/
     RDKit          3D

 19 20  0  0  0  0  0  0  0  0999 V2000
   -7.2496    3.8871   27.4508 C   0  0  0  0  0  0  0  0  0  0  0  0
   -8.5096    4.0291   27.2770 C   0  0  0  0  0  0  0  0  0  0  0  0
   -9.2677    5.1714   27.5773 C   0  0  0  0  0  0  0  0  0  0  0  0
   -6.5550    4.9883   28.1029 C   0  0  0  0  0  0  0  0  0  0  0  0
   -7.2821    6.1172   28.4246 C   0  0  0  0  0  0  0  0  0  0  0  0
   -8.5921    6.2192   28.1135 C   0  0  0  0  0  0  0  0  0  0  0  0
   -9.2678    2.8330   26.7069 C   0  0  0  0  0  0  0  0  0  0  0  0
   -8.5708    1.7515   26.4516 C   0  0  0  0  0  0  0  0  0  0  0  0
   -9.2291    0.6640   25.8273 C   0  0  0  0  0  0  0  0  0  0  0  0
  -10.5377    0.7782   25.4919 C   0  0  0  0  0  0  0  0  0  0  0  0
  -10.6212    2.8475   26.3189 C   0  0  0  0  0  0  0  0  0  0  0  0
  -11.2126    1.8765   25.6967 C   0  0  0  0  0  0  0  0  0  0  0  0
   -8.4549   -0.6304   25.6216 C   0  0  1  0  0  0  0  0  0  0  0  0
   -7.9405   -0.7818   24.3946 C   0  0  0  0  0  0  0  0  0  0  0  0
   -8.2615   -1.5332   26.6569 C   0  0  0  0  0  0  0  0  0  0  0  0
   -8.4488   -1.3133   27.8724 C   0  0  0  0  0  0  0  0  0  0  0  0
   -8.2556   -2.2771   28.9795 C   0  0  0  0  0  0  0  0  0  0  0  0
   -7.7085   -3.4497   28.6244 C   0  0  0  0  0  0  0  0  0  0  0  0
   -7.4480   -3.6918   27.3050 C   0  0  0  0  0  0  0  0  0  0  0  0
  2  7  1  0
  9 13  1  0
 13 14  1  1
 13 15  1  0
 15 16  2  3
 16 17  1  0
 17 18  2  3
 18 19  1  0
  7  8  2  0
  8  9  1  0
  9 10  2  0
 10 12  1  0
 12 11  2  0
 11  7  1  0
  1  2  2  0
  2  3  1  0
  3  6  2  0
  6  5  1  0
  5  4  2  0
  4  1  1  0
M  END
$$$$
