No_5885-complexes_sdf/6BKW-FPZ/2024-09-17-14-21-01/
     RDKit          3D

 40 43  0  0  0  0  0  0  0  0999 V2000
   -7.9040    3.9820   27.1177 C   0  0  0  0  0  0  0  0  0  0  0  0
   -8.2057    2.8231   26.8733 C   0  0  0  0  0  0  0  0  0  0  0  0
   -7.0130    4.3706   28.1140 C   0  0  0  0  0  0  0  0  0  0  0  0
   -7.4093    1.7370   27.3857 C   0  0  0  0  0  0  0  0  0  0  0  0
   -6.1943    2.1490   28.0403 C   0  0  0  0  0  0  0  0  0  0  0  0
   -6.0160    3.4556   28.3085 N   0  0  0  0  0  0  0  0  0  0  0  0
   -5.0811    1.2769   28.5252 C   0  0  0  0  0  0  0  0  0  0  0  0
   -9.0193    4.9301   26.6302 C   0  0  0  0  0  0  0  0  0  0  0  0
   -9.6510    4.7076   25.5069 N   0  0  0  0  0  0  0  0  0  0  0  0
   -4.5008    0.4291   27.8150 C   0  0  0  0  0  0  0  0  0  0  0  0
   -3.4107   -0.3842   28.3491 C   0  0  0  0  0  0  0  0  0  0  0  0
   -3.1691   -0.3431   29.7407 C   0  0  0  0  0  0  0  0  0  0  0  0
   -3.9393    0.5511   30.5223 C   0  0  0  0  0  0  0  0  0  0  0  0
   -4.8399    1.2768   29.9116 C   0  0  0  0  0  0  0  0  0  0  0  0
   -8.9641    6.3564   27.0737 C   0  0  0  0  0  0  0  0  0  0  0  0
  -10.4761    3.6965   25.3085 C   0  0  0  0  0  0  0  0  0  0  0  0
  -11.3376    3.3301   26.2010 C   0  0  0  0  0  0  0  0  0  0  0  0
  -11.9607    3.9727   26.9355 C   0  0  0  0  0  0  0  0  0  0  0  0
  -12.9990    3.6593   27.9673 C   0  0  0  0  0  0  0  0  0  0  0  0
  -13.2344    2.2584   27.9854 C   0  0  0  0  0  0  0  0  0  0  0  0
  -12.5914    1.4121   27.1482 C   0  0  0  0  0  0  0  0  0  0  0  0
  -11.6257    1.8674   26.2463 C   0  0  0  0  0  0  0  0  0  0  0  0
  -10.3312    3.1525   24.1528 F   0  0  0  0  0  0  0  0  0  0  0  0
   -2.0849   -1.1893   30.2933 C   0  0  0  0  0  0  0  0  0  0  0  0
   -1.3519   -1.7646   29.4740 O   0  0  0  0  0  0  0  0  0  0  0  0
   -2.1039   -1.4439   31.5827 O   0  0  0  0  0  0  0  0  0  0  0  0
  -12.8147   -0.0714   27.2285 C   0  0  0  0  0  0  0  0  0  0  0  0
  -12.0652   -0.8268   26.6779 C   0  0  0  0  0  0  0  0  0  0  0  0
  -11.1597   -0.3467   25.7163 C   0  0  0  0  0  0  0  0  0  0  0  0
  -10.8676    0.9297   25.5425 C   0  0  0  0  0  0  0  0  0  0  0  0
  -10.3244   -1.3648   24.9019 C   0  0  0  0  0  0  0  0  0  0  0  0
  -10.1712   -2.4181   25.3588 F   0  0  0  0  0  0  0  0  0  0  0  0
  -11.0026   -1.4796   23.7037 F   0  0  0  0  0  0  0  0  0  0  0  0
   -9.1183   -0.8613   24.5563 F   0  0  0  0  0  0  0  0  0  0  0  0
  -13.6550    4.6513   28.7952 C   0  0  0  0  0  0  0  0  0  0  0  0
  -14.5234    5.5442   28.0939 C   0  0  0  0  0  0  0  0  0  0  0  0
  -14.6359    5.7136   26.8123 C   0  0  0  0  0  0  0  0  0  0  0  0
  -15.6717    6.5659   26.2479 C   0  0  0  0  0  0  0  0  0  0  0  0
  -16.3756    7.4300   27.1224 C   0  0  0  0  0  0  0  0  0  0  0  0
  -15.3756    6.3130   29.0223 C   0  0  0  0  0  0  0  0  0  0  0  0
  5  7  1  0
  1  8  1  0
  8  9  2  3
  8 15  1  0
  9 16  1  0
 16 17  1  0
 16 23  1  0
 12 24  1  0
 24 25  2  0
 24 26  1  0
 29 31  1  0
 31 32  1  0
 31 33  1  0
 31 34  1  0
 19 35  1  0
 35 36  1  0
 36 37  1  0
 37 38  2  3
 38 39  1  0
 36 40  1  0
  1  2  2  0
  2  4  1  0
  4  5  2  0
  5  6  1  0
  6  3  2  0
  3  1  1  0
  7 10  2  0
 10 11  1  0
 11 12  2  0
 12 13  1  0
 13 14  2  0
 14  7  1  0
 22 30  2  0
 30 29  1  0
 29 28  2  0
 28 27  1  0
 27 21  2  0
 17 18  2  0
 18 19  1  0
 19 20  2  0
 20 21  1  0
 21 22  1  0
 22 17  1  0
M  END
$$$$
