No_5819-complexes_sdf/6BKW-FPZ/2024-09-17-14-21-01/
     RDKit          3D

 10 10  0  0  0  0  0  0  0  0999 V2000
   -7.9040    3.9820   27.1177 C   0  0  0  0  0  0  0  0  0  0  0  0
   -8.2057    2.8231   26.8733 C   0  0  0  0  0  0  0  0  0  0  0  0
   -7.4766    1.7477   27.4593 C   0  0  0  0  0  0  0  0  0  0  0  0
   -6.7221    4.3631   27.8544 C   0  0  0  0  0  0  0  0  0  0  0  0
   -7.8124    0.3771   27.2172 C   0  0  0  0  0  0  0  0  0  0  0  0
   -5.8627    3.2946   28.1755 C   0  0  0  0  0  0  0  0  0  0  0  0
   -6.2236    2.0117   28.0119 C   0  0  0  0  0  0  0  0  0  0  0  0
   -7.0955   -0.5968   27.3980 C   0  0  0  0  0  0  0  0  0  0  0  0
   -7.5687   -1.9394   27.3263 C   0  0  0  0  0  0  0  0  0  0  0  0
   -8.9298   -2.0967   27.0267 C   0  0  0  0  0  0  0  0  0  0  0  0
  5  8  1  0
  8  9  2  3
  9 10  1  0
  5  3  1  0
  1  2  2  0
  2  3  1  0
  3  7  2  0
  7  6  1  0
  6  4  2  0
  4  1  1  0
M  END
$$$$
