No_5459-complexes_sdf/6BKW-FPZ/2024-09-17-14-21-01/
     RDKit          3D

 27 30  0  0  0  0  0  0  0  0999 V2000
   -7.9040    3.9820   27.1177 C   0  0  0  0  0  0  0  0  0  0  0  0
   -9.0711    4.3164   27.0630 C   0  0  0  0  0  0  0  0  0  0  0  0
   -9.5294    5.4517   27.7215 C   0  0  0  0  0  0  0  0  0  0  0  0
   -6.9328    4.7309   27.8881 C   0  0  0  0  0  0  0  0  0  0  0  0
   -7.3377    5.8421   28.5537 C   0  0  0  0  0  0  0  0  0  0  0  0
   -8.6411    6.2609   28.3972 C   0  0  0  0  0  0  0  0  0  0  0  0
  -10.0467    3.4917   26.2630 C   0  0  0  0  0  0  0  0  0  0  0  0
  -10.6901    2.6509   26.7331 C   0  0  0  0  0  0  0  0  0  0  0  0
  -10.8509    2.2739   27.8650 C   0  0  0  0  0  0  0  0  0  0  0  0
  -11.5983    1.1682   28.4836 C   0  0  0  0  0  0  0  0  0  0  0  0
  -12.2034    0.3531   27.5812 C   0  0  0  0  0  0  0  0  0  0  0  0
  -12.1186    0.5943   26.2631 C   0  0  0  0  0  0  0  0  0  0  0  0
  -11.4030    1.6399   25.8010 C   0  0  0  0  0  0  0  0  0  0  0  0
  -10.0487    3.9586   24.8418 C   0  0  0  0  0  0  0  0  0  0  0  0
  -10.8767    4.7279   24.3317 C   0  0  0  0  0  0  0  0  0  0  0  0
  -10.9125    4.9743   22.9182 C   0  0  0  0  0  0  0  0  0  0  0  0
  -10.5194    3.9362   22.0561 C   0  0  0  0  0  0  0  0  0  0  0  0
   -9.8039    2.8234   22.6208 C   0  0  0  0  0  0  0  0  0  0  0  0
   -9.6369    2.7547   24.0408 C   0  0  0  0  0  0  0  0  0  0  0  0
  -12.7628   -0.2866   25.2958 C   0  0  0  0  0  0  0  0  0  0  0  0
  -12.8408    0.0539   24.0072 C   0  0  0  0  0  0  0  0  0  0  0  0
  -13.4186   -0.7645   23.0798 C   0  0  0  0  0  0  0  0  0  0  0  0
  -13.9263   -1.9568   23.4679 C   0  0  0  0  0  0  0  0  0  0  0  0
  -13.8580   -2.3209   24.7844 C   0  0  0  0  0  0  0  0  0  0  0  0
  -13.2573   -1.5010   25.7244 C   0  0  0  0  0  0  0  0  0  0  0  0
  -14.5184   -3.8279   25.2561 Cl  0  0  0  0  0  0  0  0  0  0  0  0
   -5.7020    4.2447   28.0412 F   0  0  0  0  0  0  0  0  0  0  0  0
  2  7  1  0
  7  8  1  0
  7 14  1  0
 12 20  1  0
 24 26  1  0
  4 27  1  0
 14 15  2  0
 15 16  1  0
 16 17  2  0
 17 18  1  0
 18 19  2  0
 19 14  1  0
  1  2  2  0
  2  3  1  0
  3  6  2  0
  6  5  1  0
  5  4  2  0
  4  1  1  0
  8  9  2  0
  9 10  1  0
 10 11  2  0
 11 12  1  0
 12 13  2  0
 13  8  1  0
 20 21  2  0
 21 22  1  0
 22 23  2  0
 23 24  1  0
 24 25  2  0
 25 20  1  0
M  END
$$$$
