No_5884-complexes_sdf/6BKW-FPZ/2024-09-17-14-21-01/
     RDKit          3D

 32 37  0  0  0  0  0  0  0  0999 V2000
   -7.9040    3.9820   27.1177 C   0  0  0  0  0  0  0  0  0  0  0  0
   -7.8663    4.8694   27.9238 C   0  0  0  0  0  0  0  0  0  0  0  0
   -7.4547    2.7080   27.4594 C   0  0  0  0  0  0  0  0  0  0  0  0
   -7.9337    1.5946   26.8372 C   0  0  0  0  0  0  0  0  0  0  0  0
   -8.9603    1.7678   26.1391 C   0  0  0  0  0  0  0  0  0  0  0  0
   -9.5151    2.9338   25.7451 C   0  0  0  0  0  0  0  0  0  0  0  0
   -9.0514    3.9881   26.3110 C   0  0  0  0  0  0  0  0  0  0  0  0
   -8.2265    6.2342   27.6090 N   0  0  0  0  0  0  0  0  0  0  0  0
   -9.1501    6.4850   26.6405 C   0  0  0  0  0  0  0  0  0  0  0  0
   -9.6105    5.3481   25.9969 C   0  0  0  0  0  0  0  0  0  0  0  0
   -7.2879    0.2773   27.2277 C   0  0  0  0  0  0  0  0  0  0  0  0
   -7.9791   -0.8957   27.2545 C   0  0  2  0  0  0  0  0  0  0  0  0
   -9.4090   -0.8066   27.1109 C   0  0  0  0  0  0  0  0  0  0  0  0
   -9.8886    0.4813   26.0599 C   0  0  2  0  0  0  0  0  0  0  0  0
   -9.8026   -0.2801   24.7073 C   0  0  0  0  0  0  0  0  0  0  0  0
  -10.9143    0.1913   24.0005 C   0  0  0  0  0  0  0  0  0  0  0  0
  -10.8062    0.1356   22.6268 C   0  0  0  0  0  0  0  0  0  0  0  0
  -11.7391    0.7271   21.7218 C   0  0  0  0  0  0  0  0  0  0  0  0
  -12.8284    1.3345   22.2801 C   0  0  0  0  0  0  0  0  0  0  0  0
  -12.9586    1.4429   23.6211 C   0  0  0  0  0  0  0  0  0  0  0  0
  -11.9980    0.9568   24.4695 C   0  0  0  0  0  0  0  0  0  0  0  0
  -11.3020    0.5605   26.4417 C   0  0  2  0  0  0  0  0  0  0  0  0
  -11.5376    0.9943   28.0902 Cl  0  0  0  0  0  0  0  0  0  0  0  0
  -12.3416    0.2670   25.8398 C   0  0  0  0  0  0  0  0  0  0  0  0
   -7.4124   -2.1142   27.6572 C   0  0  0  0  0  0  0  0  0  0  0  0
   -7.9397   -2.9939   28.0318 N   0  0  0  0  0  0  0  0  0  0  0  0
   -8.9986   -3.0608   28.6024 C   0  0  0  0  0  0  0  0  0  0  0  0
   -9.5379   -4.2953   29.2022 C   0  0  0  0  0  0  0  0  0  0  0  0
   -8.8252   -4.9666   29.6693 C   0  0  0  0  0  0  0  0  0  0  0  0
   -7.4418   -5.1389   29.2742 C   0  0  0  0  0  0  0  0  0  0  0  0
   -6.9412   -4.1256   28.4399 C   0  0  0  0  0  0  0  0  0  0  0  0
   -6.0908   -1.8946   27.7336 O   0  0  0  0  0  0  0  0  0  0  0  0
  4 11  1  0
 12 13  1  0
  5 14  1  0
 14 13  1  1
 14 15  1  0
 15 16  1  0
 14 22  1  0
 22 23  1  1
 21 24  1  0
 22 24  1  0
 12 25  1  1
 25 26  1  0
 26 27  1  0
 28 29  1  0
 26 31  1  0
 30 31  1  0
 25 32  2  0
 27 28  1  0
 29 30  1  0
 11 12  1  0
  1  2  2  0
  2  8  1  0
  8  9  2  0
  9 10  1  0
 10  7  2  0
  1  3  1  0
  3  4  2  0
  4  5  1  0
  5  6  2  0
  6  7  1  0
  7  1  1  0
 16 17  2  0
 17 18  1  0
 18 19  2  0
 19 20  1  0
 20 21  2  0
 21 16  1  0
M  END
$$$$
