No_588-complexes_sdf/6BKW-FPZ/2024-09-17-14-21-01/
     RDKit          3D

 15 16  0  0  0  0  0  0  0  0999 V2000
   -7.7129    4.2099   27.0854 C   0  0  0  0  0  0  0  0  0  0  0  0
   -8.9133    4.4736   27.0998 C   0  0  0  0  0  0  0  0  0  0  0  0
   -9.7135    3.9633   26.0300 C   0  0  0  0  0  0  0  0  0  0  0  0
   -7.1708    2.9509   26.6517 C   0  0  0  0  0  0  0  0  0  0  0  0
   -8.1422    2.1350   26.0104 C   0  0  0  0  0  0  0  0  0  0  0  0
   -9.3363    2.7131   25.6563 C   0  0  0  0  0  0  0  0  0  0  0  0
   -9.0660    6.0184   27.4103 C   0  0  0  0  0  0  0  0  0  0  0  0
   -7.7642    0.7776   25.6547 C   0  0  0  0  0  0  0  0  0  0  0  0
   -6.7561    0.3249   26.0956 F   0  0  0  0  0  0  0  0  0  0  0  0
   -7.8381    0.6620   24.3012 F   0  0  0  0  0  0  0  0  0  0  0  0
   -8.8332   -0.0280   26.0994 F   0  0  0  0  0  0  0  0  0  0  0  0
   -8.0940    6.8148   27.6176 N   0  0  0  0  0  0  0  0  0  0  0  0
  -10.2697    6.3714   27.7523 O   0  0  0  0  0  0  0  0  0  0  0  0
   -6.8718    6.6086   27.3197 C   0  0  0  0  0  0  0  0  0  0  0  0
   -6.5953    5.1509   27.3657 N   0  0  0  0  0  0  0  0  0  0  0  0
  2  7  1  0
  5  8  1  0
  8  9  1  0
  8 10  1  0
  8 11  1  0
  7 12  1  0
  7 13  2  0
 12 14  1  0
  1 15  1  0
 14 15  1  0
  1  2  1  0
  2  3  2  0
  3  6  1  0
  6  5  2  0
  5  4  1  0
  4  1  2  0
M  END
$$$$
