No_5585-complexes_sdf/6BKW-FPZ/2024-09-17-14-21-01/
     RDKit          3D

 21 23  0  0  0  0  0  0  0  0999 V2000
   -7.7129    4.2099   27.0854 C   0  0  0  0  0  0  0  0  0  0  0  0
   -7.7814    5.1722   27.8972 C   0  0  0  0  0  0  0  0  0  0  0  0
   -8.8255    3.2789   27.1191 C   0  0  0  0  0  0  0  0  0  0  0  0
   -9.9209    3.4734   27.9101 C   0  0  0  0  0  0  0  0  0  0  0  0
  -10.0316    4.7089   28.6463 C   0  0  0  0  0  0  0  0  0  0  0  0
   -8.9258    5.5669   28.6427 C   0  0  0  0  0  0  0  0  0  0  0  0
   -8.6994    1.9948   26.3493 C   0  0  0  0  0  0  0  0  0  0  0  0
   -9.1697    1.9656   25.0734 C   0  0  0  0  0  0  0  0  0  0  0  0
   -8.0336    0.8873   26.9109 C   0  0  0  0  0  0  0  0  0  0  0  0
   -7.9697   -0.2989   26.3387 C   0  0  0  0  0  0  0  0  0  0  0  0
   -9.1461    0.7648   24.3545 C   0  0  0  0  0  0  0  0  0  0  0  0
   -8.5081   -0.3237   24.9700 C   0  0  0  0  0  0  0  0  0  0  0  0
  -11.0624    2.5838   27.9420 C   0  0  0  0  0  0  0  0  0  0  0  0
  -11.1000    1.3984   27.9183 C   0  0  0  0  0  0  0  0  0  0  0  0
  -12.2161    0.5094   28.0851 C   0  0  0  0  0  0  0  0  0  0  0  0
  -13.4118    1.1186   28.2324 C   0  0  0  0  0  0  0  0  0  0  0  0
  -12.4430    3.2363   28.1866 C   0  0  0  0  0  0  0  0  0  0  0  0
  -13.5282    2.4811   28.3422 C   0  0  0  0  0  0  0  0  0  0  0  0
   -9.8236    3.1231   24.4304 C   0  0  0  0  0  0  0  0  0  0  0  0
   -9.9538    4.3805   25.0290 C   0  0  0  0  0  0  0  0  0  0  0  0
  -10.5508    5.3110   24.0459 C   0  0  0  0  0  0  0  0  0  0  0  0
  3  7  1  0
  4 13  1  0
  8 19  1  0
 19 20  2  3
 20 21  1  0
  1  2  2  0
  2  6  1  0
  6  5  2  0
  5  4  1  0
  4  3  2  0
  3  1  1  0
  7  8  2  0
  8 11  1  0
 11 12  2  0
 12 10  1  0
 10  9  2  0
  9  7  1  0
 13 14  2  0
 14 15  1  0
 15 16  2  0
 16 18  1  0
 18 17  2  0
 17 13  1  0
M  END
$$$$
