No_5025-complexes_sdf/6BKW-FPZ/2024-09-17-14-21-01/
     RDKit          3D

 17 18  0  0  0  0  0  0  0  0999 V2000
   -7.9040    3.9820   27.1177 C   0  0  0  0  0  0  0  0  0  0  0  0
   -8.2057    2.8231   26.8733 C   0  0  0  0  0  0  0  0  0  0  0  0
   -9.2962    2.4021   26.1155 C   0  0  0  0  0  0  0  0  0  0  0  0
   -8.7358    5.0662   26.5917 C   0  0  0  0  0  0  0  0  0  0  0  0
   -9.7618    4.7023   25.7546 C   0  0  0  0  0  0  0  0  0  0  0  0
  -10.0066    3.4105   25.4922 C   0  0  0  0  0  0  0  0  0  0  0  0
   -8.3936    6.4769   26.8843 C   0  0  2  0  0  0  0  0  0  0  0  0
   -8.0307    6.8601   28.0802 N   0  0  0  0  0  0  0  0  0  0  0  0
   -8.7105    7.3112   25.9801 F   0  0  0  0  0  0  0  0  0  0  0  0
   -7.3469    1.6775   27.5045 C   0  0  0  0  0  0  0  0  0  0  0  0
   -6.4804    0.9621   26.7180 C   0  0  0  0  0  0  0  0  0  0  0  0
   -5.4424    0.3375   27.5154 C   0  0  0  0  0  0  0  0  0  0  0  0
   -4.2646    0.1587   26.9333 C   0  0  0  0  0  0  0  0  0  0  0  0
   -3.2693   -0.6815   27.5669 C   0  0  0  0  0  0  0  0  0  0  0  0
   -3.3840   -0.9959   28.9428 C   0  0  0  0  0  0  0  0  0  0  0  0
   -4.6408   -0.7003   29.5548 C   0  0  0  0  0  0  0  0  0  0  0  0
   -5.5858    0.0350   28.8423 C   0  0  0  0  0  0  0  0  0  0  0  0
  4  7  1  0
  7  8  1  1
  7  9  1  0
  2 10  1  0
 10 11  1  0
 11 12  1  0
 12 13  2  0
 13 14  1  0
 14 15  2  0
 15 16  1  0
 16 17  2  0
 17 12  1  0
  1  2  2  0
  2  3  1  0
  3  6  2  0
  6  5  1  0
  5  4  2  0
  4  1  1  0
M  END
$$$$
