No_516-complexes_sdf/6BKW-FPZ/2024-09-17-14-21-01/
     RDKit          3D

 23 25  0  0  0  0  0  0  0  0999 V2000
   -7.9040    3.9820   27.1177 C   0  0  0  0  0  0  0  0  0  0  0  0
   -8.2057    2.8231   26.8733 C   0  0  0  0  0  0  0  0  0  0  0  0
   -7.4766    1.7477   27.4593 C   0  0  0  0  0  0  0  0  0  0  0  0
   -8.7468    5.1251   26.6967 C   0  0  0  0  0  0  0  0  0  0  0  0
   -9.7234    4.8589   25.8202 C   0  0  0  0  0  0  0  0  0  0  0  0
   -9.9711    3.5858   25.4266 C   0  0  0  0  0  0  0  0  0  0  0  0
   -9.2266    2.4957   25.9600 C   0  0  0  0  0  0  0  0  0  0  0  0
   -7.8305    0.3697   27.3235 C   0  0  0  0  0  0  0  0  0  0  0  0
   -7.0984   -0.5913   27.8882 C   0  0  0  0  0  0  0  0  0  0  0  0
   -7.5976   -1.9063   27.9905 C   0  0  0  0  0  0  0  0  0  0  0  0
   -8.8807   -2.1115   27.4416 C   0  0  0  0  0  0  0  0  0  0  0  0
   -9.6305   -1.1474   26.9160 C   0  0  0  0  0  0  0  0  0  0  0  0
  -10.9097   -1.3678   26.4477 C   0  0  0  0  0  0  0  0  0  0  0  0
   -9.1072    0.1184   26.8846 C   0  0  0  0  0  0  0  0  0  0  0  0
   -9.8314    1.2341   26.1657 C   0  0  0  0  0  0  0  0  0  0  0  0
   -8.3209    6.5456   26.9986 C   0  0  0  0  0  0  0  0  0  0  0  0
   -8.1307    7.5963   27.0445 N   0  0  0  0  0  0  0  0  0  0  0  0
  -11.2234   -1.6998   25.2625 C   0  0  0  0  0  0  0  0  0  0  0  0
  -10.4467   -2.1649   24.4581 C   0  0  0  0  0  0  0  0  0  0  0  0
  -10.2873   -2.2761   23.3754 C   0  0  0  0  0  0  0  0  0  0  0  0
   -9.2066   -2.8905   22.5394 C   0  0  0  0  0  0  0  0  0  0  0  0
   -8.3310   -3.0567   23.0108 C   0  0  0  0  0  0  0  0  0  0  0  0
   -7.9780   -2.9253   24.3670 C   0  0  0  0  0  0  0  0  0  0  0  0
 12 13  1  0
  4 16  1  0
 16 17  3  0
 13 18  1  0
 18 19  2  3
 19 20  1  0
 20 21  2  3
 21 22  1  0
 22 23  2  0
  1  2  2  0
  7  6  2  0
  6  5  1  0
  5  4  2  0
  4  1  1  0
  8  9  1  0
  9 10  2  0
 10 11  1  0
 11 12  2  0
 12 14  1  0
  2  3  1  0
  3  8  2  0
  8 14  1  0
 14 15  2  0
 15  7  1  0
  7  2  1  0
M  END
$$$$
