No_5289-complexes_sdf/6BKW-FPZ/2024-09-17-14-21-01/
     RDKit          3D

 14 14  0  0  0  0  0  0  0  0999 V2000
   -7.7129    4.2099   27.0854 C   0  0  0  0  0  0  0  0  0  0  0  0
   -8.2112    3.0637   26.9225 C   0  0  0  0  0  0  0  0  0  0  0  0
   -8.5108    5.3904   26.9436 C   0  0  0  0  0  0  0  0  0  0  0  0
   -9.7256    5.1955   26.3518 C   0  0  0  0  0  0  0  0  0  0  0  0
   -9.4995    2.8258   26.4878 C   0  0  0  0  0  0  0  0  0  0  0  0
  -10.2542    3.9691   26.2055 C   0  0  0  0  0  0  0  0  0  0  0  0
   -7.6461    6.8595   27.1892 Cl  0  0  0  0  0  0  0  0  0  0  0  0
   -7.4440    1.9368   27.2616 F   0  0  0  0  0  0  0  0  0  0  0  0
   -9.9965    1.4607   26.2659 C   0  0  0  0  0  0  0  0  0  0  0  0
   -9.1265    0.4542   25.8460 C   0  0  0  0  0  0  0  0  0  0  0  0
   -9.3285   -0.4166   25.2305 C   0  0  0  0  0  0  0  0  0  0  0  0
   -8.3235   -1.4174   24.7337 C   0  0  0  0  0  0  0  0  0  0  0  0
   -6.9725   -1.1900   25.0277 C   0  0  0  0  0  0  0  0  0  0  0  0
   -6.6702   -0.1197   25.8574 C   0  0  0  0  0  0  0  0  0  0  0  0
  3  7  1  0
  2  8  1  0
  5  9  1  0
  9 10  1  0
 10 11  2  3
 11 12  1  0
 12 13  2  3
 13 14  1  0
  1  2  2  0
  2  5  1  0
  5  6  2  0
  6  4  1  0
  4  3  2  0
  3  1  1  0
M  END
$$$$
