No_5316-complexes_sdf/6BKW-FPZ/2024-09-17-14-21-01/
     RDKit          3D

 14 15  0  0  0  0  0  0  0  0999 V2000
   -7.9040    3.9820   27.1177 C   0  0  0  0  0  0  0  0  0  0  0  0
   -9.0711    4.3164   27.0630 C   0  0  0  0  0  0  0  0  0  0  0  0
   -9.5294    5.4517   27.7215 C   0  0  0  0  0  0  0  0  0  0  0  0
   -6.9328    4.7309   27.8881 C   0  0  0  0  0  0  0  0  0  0  0  0
   -7.3377    5.8421   28.5537 C   0  0  0  0  0  0  0  0  0  0  0  0
   -8.6411    6.2609   28.3972 C   0  0  0  0  0  0  0  0  0  0  0  0
  -10.0493    3.4953   26.2711 C   0  0  0  0  0  0  0  0  0  0  0  0
   -9.6113    2.6330   25.5011 N   0  0  0  0  0  0  0  0  0  0  0  0
   -8.8445    1.7662   25.7409 C   0  0  0  0  0  0  0  0  0  0  0  0
   -9.9756    2.6517   24.0579 C   0  0  0  0  0  0  0  0  0  0  0  0
   -8.6026    0.5884   24.9491 C   0  0  0  0  0  0  0  0  0  0  0  0
   -9.8273    1.5965   23.2608 C   0  0  0  0  0  0  0  0  0  0  0  0
   -8.9757    0.6230   23.6606 C   0  0  0  0  0  0  0  0  0  0  0  0
  -11.2797    3.8100   26.2984 O   0  0  0  0  0  0  0  0  0  0  0  0
  2  7  1  0
  7  8  1  0
  8  9  1  0
  8 10  1  0
 11 13  1  0
 12 13  1  0
  7 14  2  0
  9 11  1  0
 12 10  1  0
  1  2  2  0
  2  3  1  0
  3  6  2  0
  6  5  1  0
  5  4  2  0
  4  1  1  0
M  END
$$$$
