No_5393-complexes_sdf/6BKW-FPZ/2024-09-17-14-21-01/
     RDKit          3D

 20 22  0  0  0  0  0  0  0  0999 V2000
   -7.7129    4.2099   27.0854 C   0  0  0  0  0  0  0  0  0  0  0  0
   -7.7814    5.1722   27.8972 C   0  0  0  0  0  0  0  0  0  0  0  0
   -8.8776    3.8408   26.3416 C   0  0  0  0  0  0  0  0  0  0  0  0
   -9.7970    4.1983   26.5823 C   0  0  0  0  0  0  0  0  0  0  0  0
  -10.0504    5.3580   27.4349 C   0  0  0  0  0  0  0  0  0  0  0  0
   -8.9636    5.8730   28.0996 C   0  0  0  0  0  0  0  0  0  0  0  0
  -11.1049    3.8253   25.8006 C   0  0  0  0  0  0  0  0  0  0  0  0
  -12.1842    3.3686   26.1266 C   0  0  0  0  0  0  0  0  0  0  0  0
  -13.2881    3.0293   25.3323 C   0  0  0  0  0  0  0  0  0  0  0  0
  -13.0914    3.1805   23.9477 C   0  0  0  0  0  0  0  0  0  0  0  0
  -11.0100    3.9683   24.2567 C   0  0  0  0  0  0  0  0  0  0  0  0
  -11.9137    3.7097   23.4784 C   0  0  0  0  0  0  0  0  0  0  0  0
   -6.7072    5.6239   28.6570 O   0  0  0  0  0  0  0  0  0  0  0  0
  -11.6816    3.9213   21.7606 S   0  0  0  0  0  0  0  0  0  0  0  0
  -10.6491    2.6442   21.3584 C   0  0  0  0  0  0  0  0  0  0  0  0
  -11.1907    1.6987   20.5986 C   0  0  0  0  0  0  0  0  0  0  0  0
  -10.5962    0.3775   20.7308 C   0  0  0  0  0  0  0  0  0  0  0  0
   -9.3692    0.1789   21.4231 C   0  0  0  0  0  0  0  0  0  0  0  0
   -8.8612    1.2458   22.1955 C   0  0  0  0  0  0  0  0  0  0  0  0
   -9.5329    2.3961   22.2311 C   0  0  0  0  0  0  0  0  0  0  0  0
  4  7  1  0
  2 13  1  0
 12 14  1  0
 14 15  1  0
  7  8  2  0
  8  9  1  0
  9 10  2  0
 10 12  1  0
 12 11  2  0
 11  7  1  0
  1  2  2  0
  2  6  1  0
  6  5  2  0
  5  4  1  0
  4  3  2  0
  3  1  1  0
 15 16  2  0
 16 17  1  0
 17 18  2  0
 18 19  1  0
 19 20  2  0
 20 15  1  0
M  END
$$$$
