No_5903-complexes_sdf/6BKW-FPZ/2024-09-17-14-21-01/
     RDKit          3D

 32 36  0  0  0  0  0  0  0  0999 V2000
   -7.9040    3.9820   27.1177 C   0  0  0  0  0  0  0  0  0  0  0  0
   -7.8663    4.8694   27.9238 C   0  0  0  0  0  0  0  0  0  0  0  0
   -7.4698    2.6989   27.4277 C   0  0  0  0  0  0  0  0  0  0  0  0
   -7.9683    1.5964   26.8266 C   0  0  1  0  0  0  0  0  0  0  0  0
   -8.9447    1.7923   25.8533 C   0  0  0  0  0  0  0  0  0  0  0  0
   -9.4405    2.9988   25.5757 C   0  0  2  0  0  0  0  0  0  0  0  0
  -10.4397    3.2630   24.6146 C   0  0  0  0  0  0  0  0  0  0  0  0
   -8.9100    4.1245   26.1959 C   0  0  0  0  0  0  0  0  0  0  0  0
   -8.1235    6.3364   27.6582 C   0  0  0  0  0  0  0  0  0  0  0  0
  -11.3755    2.8820   24.3131 C   0  0  0  0  0  0  0  0  0  0  0  0
  -12.2941    3.2707   23.2379 C   0  0  0  0  0  0  0  0  0  0  0  0
  -11.8482    4.3628   22.4502 C   0  0  0  0  0  0  0  0  0  0  0  0
  -10.6476    4.9639   22.7230 C   0  0  0  0  0  0  0  0  0  0  0  0
   -9.9085    4.5903   23.7514 C   0  0  0  0  0  0  0  0  0  0  0  0
   -9.0674    6.6436   26.6424 C   0  0  0  0  0  0  0  0  0  0  0  0
   -9.4483    5.4188   25.9272 C   0  0  0  0  0  0  0  0  0  0  0  0
   -7.4190    0.2263   27.0514 C   0  0  0  0  0  0  0  0  0  0  0  0
   -6.0898    0.1154   27.5148 C   0  0  0  0  0  0  0  0  0  0  0  0
   -5.5639   -1.1114   27.8849 C   0  0  0  0  0  0  0  0  0  0  0  0
   -6.3313   -2.1902   27.7419 C   0  0  0  0  0  0  0  0  0  0  0  0
   -8.1147   -0.9224   27.0174 C   0  0  0  0  0  0  0  0  0  0  0  0
   -7.6351   -2.1241   27.3774 C   0  0  0  0  0  0  0  0  0  0  0  0
   -4.1446   -1.1204   28.3819 C   0  0  0  0  0  0  0  0  0  0  0  0
   -3.3227   -0.1255   27.9791 C   0  0  0  0  0  0  0  0  0  0  0  0
   -3.9026    1.1231   27.5769 C   0  0  0  0  0  0  0  0  0  0  0  0
   -5.1698    1.2445   27.3128 C   0  0  0  0  0  0  0  0  0  0  0  0
   -8.5306   -3.2914   27.3498 C   0  0  0  0  0  0  0  0  0  0  0  0
   -9.6616   -3.1723   27.0526 C   0  0  0  0  0  0  0  0  0  0  0  0
  -10.5577   -4.2268   27.0101 C   0  0  0  0  0  0  0  0  0  0  0  0
  -11.9531   -4.0324   26.6823 C   0  0  0  0  0  0  0  0  0  0  0  0
  -12.3559   -2.7511   26.3443 C   0  0  0  0  0  0  0  0  0  0  0  0
  -11.5175   -1.6807   26.3235 C   0  0  0  0  0  0  0  0  0  0  0  0
  1  3  1  0
  3  4  1  0
  4  5  1  0
  5  6  1  0
  6  7  1  6
  6  8  1  0
  4 17  1  6
 22 27  1  0
 27 28  2  3
 28 29  1  0
 29 30  2  3
 30 31  1  0
 31 32  2  0
  7 10  2  0
 10 11  1  0
 11 12  2  0
 12 13  1  0
 13 14  2  0
 14  7  1  0
 17 18  2  0
 19 20  2  0
 20 22  1  0
 22 21  2  0
 21 17  1  0
  1  2  2  0
  2  9  1  0
  9 15  2  0
 15 16  1  0
 16  8  2  0
  8  1  1  0
 18 19  1  0
 19 23  1  0
 23 24  2  0
 24 25  1  0
 25 26  2  0
 26 18  1  0
M  END
$$$$
