No_5124-complexes_sdf/6BKW-FPZ/2024-09-17-14-21-01/
     RDKit          3D

 13 13  0  0  0  0  0  0  0  0999 V2000
   -7.9040    3.9820   27.1177 C   0  0  0  0  0  0  0  0  0  0  0  0
   -9.0711    4.3164   27.0630 C   0  0  0  0  0  0  0  0  0  0  0  0
   -9.5294    5.4517   27.7215 C   0  0  0  0  0  0  0  0  0  0  0  0
   -6.9328    4.7309   27.8881 C   0  0  0  0  0  0  0  0  0  0  0  0
   -7.3666    5.8455   28.5488 C   0  0  0  0  0  0  0  0  0  0  0  0
   -8.6669    6.2428   28.4199 C   0  0  0  0  0  0  0  0  0  0  0  0
  -10.0479    3.5083   26.2510 C   0  0  0  0  0  0  0  0  0  0  0  0
   -9.8840    3.3418   24.5410 Cl  0  0  0  0  0  0  0  0  0  0  0  0
  -11.1423    2.8523   26.8306 C   0  0  0  0  0  0  0  0  0  0  0  0
  -11.3967    2.7059   28.0209 C   0  0  0  0  0  0  0  0  0  0  0  0
  -12.2848    2.0475   28.6811 C   0  0  0  0  0  0  0  0  0  0  0  0
  -13.2690    1.4107   27.9140 C   0  0  0  0  0  0  0  0  0  0  0  0
  -13.1579    1.5502   26.5252 C   0  0  0  0  0  0  0  0  0  0  0  0
  2  7  1  0
  7  8  1  0
  7  9  1  0
  9 10  2  3
 10 11  1  0
 11 12  2  3
 12 13  1  0
  1  2  2  0
  2  3  1  0
  3  6  2  0
  6  5  1  0
  5  4  2  0
  4  1  1  0
M  END
$$$$
