No_5073-complexes_sdf/6BKW-FPZ/2024-09-17-14-21-01/
     RDKit          3D

 18 20  0  0  0  0  0  0  0  0999 V2000
   -7.2496    3.8871   27.4508 C   0  0  0  0  0  0  0  0  0  0  0  0
   -7.6161    2.7143   27.1523 C   0  0  0  0  0  0  0  0  0  0  0  0
   -7.1618    1.8631   27.5232 C   0  0  0  0  0  0  0  0  0  0  0  0
   -8.0036    5.1085   27.2100 C   0  0  2  0  0  0  0  0  0  0  0  0
   -9.0765    5.1561   26.4023 C   0  0  0  0  0  0  0  0  0  0  0  0
   -9.5423    3.9741   25.8512 C   0  0  0  0  0  0  0  0  0  0  0  0
   -8.9083    2.8788   26.2032 C   0  0  0  0  0  0  0  0  0  0  0  0
   -7.6105    0.4381   27.4271 C   0  0  0  0  0  0  0  0  0  0  0  0
   -8.8963    0.3059   26.9311 C   0  0  0  0  0  0  0  0  0  0  0  0
   -9.5395    1.5099   26.0891 C   0  0  0  0  0  0  0  0  0  0  0  0
   -7.3125    6.6101   27.9140 Cl  0  0  0  0  0  0  0  0  0  0  0  0
  -10.6406    1.2808   25.3015 C   0  0  0  0  0  0  0  0  0  0  0  0
  -10.4866    1.1798   24.0507 C   0  0  0  0  0  0  0  0  0  0  0  0
   -9.2140    0.9397   23.4201 C   0  0  0  0  0  0  0  0  0  0  0  0
   -9.0354    0.8205   22.0007 C   0  0  0  0  0  0  0  0  0  0  0  0
  -10.1401    0.9670   21.1770 C   0  0  0  0  0  0  0  0  0  0  0  0
  -11.3870    1.2153   21.6796 C   0  0  0  0  0  0  0  0  0  0  0  0
  -11.5403    1.3407   23.0356 C   0  0  0  0  0  0  0  0  0  0  0  0
  1  2  1  0
  1  4  1  0
  4  5  1  0
  5  6  1  0
  6  7  1  0
  4 11  1  6
 10 12  1  0
 12 13  1  0
 13 14  2  0
 14 15  1  0
 15 16  2  0
 16 17  1  0
 17 18  2  0
 18 13  1  0
  2  3  2  0
  3  8  1  0
  8  9  2  0
  9 10  1  0
 10  7  2  0
  7  2  1  0
M  END
$$$$
