No_5120-complexes_sdf/6BKW-FPZ/2024-09-17-14-21-01/
     RDKit          3D

 12 13  0  0  0  0  0  0  0  0999 V2000
   -7.7129    4.2099   27.0854 C   0  0  0  0  0  0  0  0  0  0  0  0
   -8.2112    3.0637   26.9225 C   0  0  0  0  0  0  0  0  0  0  0  0
   -7.5138    1.9223   27.4249 C   0  0  0  0  0  0  0  0  0  0  0  0
   -8.5309    5.4147   26.8151 C   0  0  0  0  0  0  0  0  0  0  0  0
   -8.1184    6.7672   27.1362 C   0  0  0  0  0  0  0  0  0  0  0  0
   -7.9453    0.5891   27.2424 C   0  0  0  0  0  0  0  0  0  0  0  0
   -9.2846    0.4513   26.8076 C   0  0  0  0  0  0  0  0  0  0  0  0
  -10.0204    1.5585   26.4266 C   0  0  0  0  0  0  0  0  0  0  0  0
   -9.4894    2.8275   26.5368 C   0  0  0  0  0  0  0  0  0  0  0  0
   -9.7781    5.2183   26.1775 C   0  0  0  0  0  0  0  0  0  0  0  0
  -10.2833    3.9369   26.0765 C   0  0  0  0  0  0  0  0  0  0  0  0
   -8.7868    7.8393   26.7401 N   0  0  0  0  0  0  0  0  0  0  0  0
  5 12  1  0
  5  4  1  0
  1  2  2  0
  9 11  2  0
 11 10  1  0
 10  4  2  0
  4  1  1  0
  2  3  1  0
  3  6  2  0
  6  7  1  0
  7  8  2  0
  8  9  1  0
  9  2  1  0
M  END
$$$$
