No_5715-complexes_sdf/6BKW-FPZ/2024-09-17-14-21-01/
     RDKit          3D

 12 13  0  0  0  0  0  0  0  0999 V2000
   -7.2496    3.8871   27.4508 C   0  0  0  0  0  0  0  0  0  0  0  0
   -7.6161    2.7143   27.1523 C   0  0  0  0  0  0  0  0  0  0  0  0
   -8.8302    2.4659   26.5056 C   0  0  0  0  0  0  0  0  0  0  0  0
   -8.1584    5.0090   27.3234 C   0  0  0  0  0  0  0  0  0  0  0  0
   -9.3788    4.7965   26.7695 C   0  0  0  0  0  0  0  0  0  0  0  0
   -9.7028    3.5649   26.3276 C   0  0  0  0  0  0  0  0  0  0  0  0
   -6.7803    1.6411   27.3559 N   0  0  0  0  0  0  0  0  0  0  0  0
   -7.0291    0.3561   27.0278 C   0  0  0  0  0  0  0  0  0  0  0  0
   -6.1246   -0.6083   27.4832 C   0  0  0  0  0  0  0  0  0  0  0  0
   -5.5459    1.8001   27.9962 C   0  0  0  0  0  0  0  0  0  0  0  0
   -4.7516    0.7322   28.2675 C   0  0  0  0  0  0  0  0  0  0  0  0
   -5.0230   -0.4722   28.0716 C   0  0  0  0  0  0  0  0  0  0  0  0
  2  7  1  0
  7  8  1  0
  7 10  1  0
  9 12  1  0
 11 12  1  0
  8  9  1  0
 11 10  1  0
  1  2  2  0
  2  3  1  0
  3  6  2  0
  6  5  1  0
  5  4  2  0
  4  1  1  0
M  END
$$$$
