No_5169-complexes_sdf/6BKW-FPZ/2024-09-17-14-21-01/
     RDKit          3D

 18 19  0  0  0  0  0  0  0  0999 V2000
   -7.9040    3.9820   27.1177 C   0  0  0  0  0  0  0  0  0  0  0  0
   -8.2057    2.8231   26.8733 C   0  0  0  0  0  0  0  0  0  0  0  0
   -7.0130    4.3706   28.1140 C   0  0  0  0  0  0  0  0  0  0  0  0
   -7.4093    1.7370   27.3857 C   0  0  0  0  0  0  0  0  0  0  0  0
   -6.1943    2.1490   28.0403 C   0  0  0  0  0  0  0  0  0  0  0  0
   -5.9708    3.4680   28.3199 C   0  0  0  0  0  0  0  0  0  0  0  0
   -8.9987    4.9232   26.6648 C   0  0  2  0  0  0  0  0  0  0  0  0
   -9.5982    4.7639   25.5143 N   0  0  0  0  0  0  0  0  0  0  0  0
   -5.2265    1.0921   28.4497 C   0  0  0  0  0  0  0  0  0  0  0  0
   -3.9149    1.3856   28.7351 C   0  0  0  0  0  0  0  0  0  0  0  0
   -5.7569   -0.1788   28.9293 C   0  0  0  0  0  0  0  0  0  0  0  0
   -4.8511   -1.1464   29.3546 C   0  0  0  0  0  0  0  0  0  0  0  0
   -3.0523    0.4093   29.2261 C   0  0  0  0  0  0  0  0  0  0  0  0
   -3.5284   -0.8270   29.5616 C   0  0  0  0  0  0  0  0  0  0  0  0
   -8.9871    6.1765   27.0291 F   0  0  0  0  0  0  0  0  0  0  0  0
  -10.6338    3.9434   25.3024 C   0  0  0  0  0  0  0  0  0  0  0  0
  -11.3412    3.4941   26.2941 C   0  0  0  0  0  0  0  0  0  0  0  0
  -12.5585    2.7681   26.0379 C   0  0  0  0  0  0  0  0  0  0  0  0
  1  7  1  0
  7  8  1  0
  5  9  1  0
  7 15  1  6
  8 16  1  0
 16 17  2  3
 17 18  1  0
  1  2  2  0
  2  4  1  0
  4  5  2  0
  5  6  1  0
  6  3  2  0
  3  1  1  0
  9 10  2  0
 10 13  1  0
 13 14  2  0
 14 12  1  0
 12 11  2  0
 11  9  1  0
M  END
$$$$
