No_5071-complexes_sdf/6BKW-FPZ/2024-09-17-14-21-01/
     RDKit          3D

 20 21  0  0  0  0  0  0  0  0999 V2000
   -7.9040    3.9820   27.1177 C   0  0  0  0  0  0  0  0  0  0  0  0
   -8.2057    2.8231   26.8733 C   0  0  0  0  0  0  0  0  0  0  0  0
   -7.4766    1.7477   27.4593 C   0  0  0  0  0  0  0  0  0  0  0  0
   -8.7468    5.1251   26.6967 C   0  0  0  0  0  0  0  0  0  0  0  0
   -9.7234    4.8589   25.8202 C   0  0  0  0  0  0  0  0  0  0  0  0
   -9.9711    3.5858   25.4266 C   0  0  0  0  0  0  0  0  0  0  0  0
   -9.2266    2.4957   25.9600 C   0  0  0  0  0  0  0  0  0  0  0  0
   -6.8155    0.8730   26.9394 N   0  0  0  0  0  0  0  0  0  0  0  0
   -5.9634    0.0823   27.6583 C   0  0  0  0  0  0  0  0  0  0  0  0
   -6.2291   -1.2148   27.8855 C   0  0  0  0  0  0  0  0  0  0  0  0
   -5.5938   -1.8616   28.8773 C   0  0  0  0  0  0  0  0  0  0  0  0
   -4.7439    0.7101   28.1353 C   0  0  0  0  0  0  0  0  0  0  0  0
   -3.9904    0.0338   29.1104 C   0  0  0  0  0  0  0  0  0  0  0  0
   -4.3035   -1.2460   29.4794 C   0  0  0  0  0  0  0  0  0  0  0  0
   -8.4420    6.5226   27.0979 C   0  0  0  0  0  0  0  0  0  0  0  0
   -7.9396    7.5949   26.9857 N   0  0  0  0  0  0  0  0  0  0  0  0
   -3.5251   -1.9591   30.4688 C   0  0  0  0  0  0  0  0  0  0  0  0
   -2.6025   -1.6041   30.6211 F   0  0  0  0  0  0  0  0  0  0  0  0
   -4.3264   -1.8791   31.6406 F   0  0  0  0  0  0  0  0  0  0  0  0
   -3.5317   -3.2440   30.0947 F   0  0  0  0  0  0  0  0  0  0  0  0
  2  3  1  0
  3  8  1  0
  8  9  1  0
  4 15  1  0
 15 16  3  0
 14 17  1  0
 17 18  1  0
 17 19  1  0
 17 20  1  0
  9 10  2  0
 10 11  1  0
 11 14  2  0
 14 13  1  0
 13 12  2  0
 12  9  1  0
  1  2  2  0
  2  7  1  0
  7  6  2  0
  6  5  1  0
  5  4  2  0
  4  1  1  0
M  END
$$$$
