No_5248-complexes_sdf/6BKW-FPZ/2024-09-17-14-21-01/
     RDKit          3D

 28 31  0  0  0  0  0  0  0  0999 V2000
   -7.9040    3.9820   27.1177 C   0  0  0  0  0  0  0  0  0  0  0  0
   -7.8663    4.8694   27.9238 C   0  0  0  0  0  0  0  0  0  0  0  0
   -9.0491    3.8523   26.2542 C   0  0  0  0  0  0  0  0  0  0  0  0
   -8.7661    5.9491   27.9690 C   0  0  0  0  0  0  0  0  0  0  0  0
   -9.9279    4.8544   26.1938 C   0  0  0  0  0  0  0  0  0  0  0  0
   -9.8044    5.9413   27.0782 C   0  0  0  0  0  0  0  0  0  0  0  0
   -9.0698    2.5304   25.1387 Cl  0  0  0  0  0  0  0  0  0  0  0  0
   -6.9498    2.8152   27.2014 C   0  0  0  0  0  0  0  0  0  0  0  0
   -7.3996    1.4783   26.8939 C   0  0  0  0  0  0  0  0  0  0  0  0
   -6.5497    0.4168   27.3027 C   0  0  0  0  0  0  0  0  0  0  0  0
   -5.3150    0.7866   27.9712 C   0  0  0  0  0  0  0  0  0  0  0  0
   -4.9748    2.1201   28.2400 C   0  0  0  0  0  0  0  0  0  0  0  0
   -5.7654    3.0365   27.9794 C   0  0  0  0  0  0  0  0  0  0  0  0
   -4.4312   -0.3628   28.3582 C   0  0  2  0  0  0  0  0  0  0  0  0
   -4.0645   -0.5273   29.5259 C   0  0  2  0  0  0  0  0  0  0  0  0
   -4.6240    0.0128   30.6877 C   0  0  0  0  0  0  0  0  0  0  0  0
   -4.0499   -0.1851   32.0075 C   0  0  0  0  0  0  0  0  0  0  0  0
   -2.6518   -0.9418   29.8957 C   0  0  2  0  0  0  0  0  0  0  0  0
   -1.8857   -1.4472   28.7181 C   0  0  0  0  0  0  0  0  0  0  0  0
   -2.2102   -1.0567   31.2065 C   0  0  0  0  0  0  0  0  0  0  0  0
   -2.8729   -0.6220   32.2397 C   0  0  0  0  0  0  0  0  0  0  0  0
   -3.3818   -0.4112   27.2579 C   0  0  0  0  0  0  0  0  0  0  0  0
   -2.2141   -1.0624   27.4786 C   0  0  0  0  0  0  0  0  0  0  0  0
   -5.3164   -1.7136   28.2051 C   0  0  0  0  0  0  0  0  0  0  0  0
   -4.6266   -1.4617   29.9720 F   0  0  0  0  0  0  0  0  0  0  0  0
   -4.3245    1.2768   30.7572 F   0  0  0  0  0  0  0  0  0  0  0  0
   -5.2134   -2.1558   26.7814 C   0  0  0  0  0  0  0  0  0  0  0  0
   -6.0956   -2.3171   28.9668 C   0  0  0  0  0  0  0  0  0  0  0  0
  3  7  1  0
  1  8  1  0
 11 14  1  0
 14 15  1  0
 15 16  1  0
 16 17  2  0
 15 18  1  0
 18 19  1  1
 18 20  1  0
 17 21  1  0
 20 21  2  0
 14 22  1  0
 14 24  1  6
 15 25  1  1
 16 26  1  0
 24 27  1  0
 24 28  1  0
 19 23  1  0
 23 22  1  0
  1  2  2  0
  2  4  1  0
  4  6  2  0
  6  5  1  0
  5  3  2  0
  3  1  1  0
  8  9  2  0
  9 10  1  0
 10 11  2  0
 11 12  1  0
 12 13  2  0
 13  8  1  0
M  END
$$$$
