No_5063-complexes_sdf/6BKW-FPZ/2024-09-17-14-21-01/
     RDKit          3D

 20 22  0  0  0  0  0  0  0  0999 V2000
   -7.7129    4.2099   27.0854 C   0  0  0  0  0  0  0  0  0  0  0  0
   -7.7814    5.1722   27.8972 C   0  0  0  0  0  0  0  0  0  0  0  0
   -8.7889    3.2468   27.2220 C   0  0  0  0  0  0  0  0  0  0  0  0
   -9.8927    3.4443   27.8449 C   0  0  0  0  0  0  0  0  0  0  0  0
   -9.0268    5.6720   28.5154 C   0  0  0  0  0  0  0  0  0  0  0  0
  -10.0572    4.7324   28.5632 C   0  0  0  0  0  0  0  0  0  0  0  0
   -8.7685    1.8417   26.6670 C   0  0  0  0  0  0  0  0  0  0  0  0
   -8.7753    1.7265   25.5848 N   0  0  0  0  0  0  0  0  0  0  0  0
   -9.4534    2.4899   24.7688 C   0  0  1  0  0  0  0  0  0  0  0  0
   -9.8920    2.0627   23.4579 C   0  0  1  0  0  0  0  0  0  0  0  0
   -8.2105    0.6220   24.8311 C   0  0  0  0  0  0  0  0  0  0  0  0
   -8.8021    0.0863   23.9980 C   0  0  0  0  0  0  0  0  0  0  0  0
  -10.6568    2.9740   22.6008 C   0  0  0  0  0  0  0  0  0  0  0  0
   -9.4410    0.8779   23.0224 C   0  0  0  0  0  0  0  0  0  0  0  0
  -11.0561    4.1514   23.1116 N   0  0  0  0  0  0  0  0  0  0  0  0
   -8.3435    0.9887   27.5286 O   0  0  0  0  0  0  0  0  0  0  0  0
  -10.5389    2.8793   21.4039 O   0  0  0  0  0  0  0  0  0  0  0  0
  -11.0875    4.5028   24.4995 C   0  0  0  0  0  0  0  0  0  0  0  0
  -10.2107    3.7698   25.1777 C   0  0  0  0  0  0  0  0  0  0  0  0
  -11.8449    5.0384   22.2023 C   0  0  0  0  0  0  0  0  0  0  0  0
  3  7  1  0
  7  8  1  0
  8  9  1  0
  8 11  1  0
 11 12  1  0
 10 13  1  0
 10 14  1  6
 12 14  1  0
 13 15  1  0
  7 16  2  0
 13 17  2  0
 15 18  1  0
  9 19  1  1
 15 20  1  0
  9 10  1  0
 19 18  1  0
  1  2  2  0
  2  5  1  0
  5  6  2  0
  6  4  1  0
  4  3  2  0
  3  1  1  0
M  END
$$$$
