No_5520-complexes_sdf/6BKW-FPZ/2024-09-17-14-21-01/
     RDKit          3D

 37 43  0  0  0  0  0  0  0  0999 V2000
   -7.9040    3.9820   27.1177 C   0  0  0  0  0  0  0  0  0  0  0  0
   -8.2057    2.8231   26.8733 C   0  0  0  0  0  0  0  0  0  0  0  0
   -8.7695    5.0740   26.7916 C   0  0  0  0  0  0  0  0  0  0  0  0
   -9.9618    4.7598   26.1630 C   0  0  0  0  0  0  0  0  0  0  0  0
   -9.4200    2.4524   26.2849 C   0  0  0  0  0  0  0  0  0  0  0  0
  -10.2590    3.4815   25.9250 C   0  0  0  0  0  0  0  0  0  0  0  0
   -8.3837    6.4702   27.0872 C   0  0  0  0  0  0  0  0  0  0  0  0
   -8.7793    7.4395   26.4317 N   0  0  0  0  0  0  0  0  0  0  0  0
   -7.5940    6.5997   28.1413 O   0  0  0  0  0  0  0  0  0  0  0  0
   -7.2719    1.6626   27.2677 C   0  0  0  0  0  0  0  0  0  0  0  0
   -7.5828    0.3920   27.1146 N   0  0  0  0  0  0  0  0  0  0  0  0
   -7.0054   -0.3641   26.5137 C   0  0  0  0  0  0  0  0  0  0  0  0
   -7.5009   -1.7241   26.4051 C   0  0  0  0  0  0  0  0  0  0  0  0
   -6.1344    2.0408   27.7643 O   0  0  0  0  0  0  0  0  0  0  0  0
   -7.0724   -2.5630   25.6143 C   0  0  0  0  0  0  0  0  0  0  0  0
   -6.2504   -2.2355   24.7349 C   0  0  0  0  0  0  0  0  0  0  0  0
   -5.6414   -0.9288   24.6124 C   0  0  0  0  0  0  0  0  0  0  0  0
   -6.0811    0.0069   25.4967 C   0  0  0  0  0  0  0  0  0  0  0  0
  -11.5026    3.1860   25.1613 C   0  0  0  0  0  0  0  0  0  0  0  0
  -11.5791    3.6270   23.9126 C   0  0  0  0  0  0  0  0  0  0  0  0
  -12.7020    3.6266   23.1457 C   0  0  0  0  0  0  0  0  0  0  0  0
  -12.7116    3.1074   25.8106 C   0  0  0  0  0  0  0  0  0  0  0  0
  -13.9066    3.0386   25.1650 C   0  0  0  0  0  0  0  0  0  0  0  0
  -13.9012    3.3873   23.8024 C   0  0  0  0  0  0  0  0  0  0  0  0
  -10.2783    3.9977   23.1396 C   0  0  0  0  0  0  0  0  0  0  0  0
  -10.3954    3.9606   21.7539 C   0  0  0  0  0  0  0  0  0  0  0  0
  -11.5234    4.0389   21.0704 C   0  0  0  0  0  0  0  0  0  0  0  0
  -12.7748    3.8634   21.7187 C   0  0  0  0  0  0  0  0  0  0  0  0
  -15.2152    3.4506   23.0682 C   0  0  2  0  0  0  0  0  0  0  0  0
  -16.1155    2.9907   23.4720 N   0  0  0  0  0  0  0  0  0  0  0  0
  -16.4076    2.4424   24.4365 C   0  0  0  0  0  0  0  0  0  0  0  0
  -15.2803    2.4922   25.4852 C   0  0  0  0  0  0  0  0  0  0  0  0
  -17.4340    3.0591   22.4957 C   0  0  0  0  0  0  0  0  0  0  0  0
  -17.1860    3.4214   21.3277 C   0  0  0  0  0  0  0  0  0  0  0  0
  -16.0309    4.0785   20.9675 C   0  0  0  0  0  0  0  0  0  0  0  0
  -14.9739    4.0878   21.7595 C   0  0  2  0  0  0  0  0  0  0  0  0
  -13.7131    4.3436   21.2153 C   0  0  0  0  0  0  0  0  0  0  0  0
  3  7  1  0
  7  8  1  0
  7  9  2  0
  2 10  1  0
 10 11  1  0
 11 12  1  0
 10 14  2  0
  6 19  1  0
 24 29  1  0
 29 30  1  6
 30 31  1  0
 23 32  1  0
 30 33  1  0
 33 34  1  0
 29 36  1  0
 36 35  1  6
 28 37  1  0
 36 37  1  0
 32 31  1  0
 35 34  1  0
 12 13  2  0
 13 15  1  0
 15 16  2  0
 16 17  1  0
 17 18  2  0
 18 12  1  0
 21 28  1  0
 28 27  2  0
 27 26  1  0
 26 25  2  0
 25 20  1  0
 19 20  2  0
 20 21  1  0
 21 24  2  0
 24 23  1  0
 23 22  2  0
 22 19  1  0
  1  2  2  0
  2  5  1  0
  5  6  2  0
  6  4  1  0
  4  3  2  0
  3  1  1  0
M  END
$$$$
