No_5641-complexes_sdf/6BKW-FPZ/2024-09-17-14-21-01/
     RDKit          3D

 27 30  0  0  0  0  0  0  0  0999 V2000
   -7.7129    4.2099   27.0854 C   0  0  0  0  0  0  0  0  0  0  0  0
   -7.7814    5.1722   27.8972 C   0  0  0  0  0  0  0  0  0  0  0  0
   -8.8255    3.2789   27.1191 C   0  0  0  0  0  0  0  0  0  0  0  0
   -8.7530    2.0643   26.3119 C   0  0  0  0  0  0  0  0  0  0  0  0
   -9.8958    1.4957   25.8527 C   0  0  0  0  0  0  0  0  0  0  0  0
   -9.0297    5.7889   28.3205 C   0  0  0  0  0  0  0  0  0  0  0  0
   -9.9688    3.7914   27.6534 C   0  0  0  0  0  0  0  0  0  0  0  0
  -10.0811    4.9544   28.3297 C   0  0  0  0  0  0  0  0  0  0  0  0
   -9.7660    0.2745   25.1578 C   0  0  0  0  0  0  0  0  0  0  0  0
   -8.4882   -0.2890   25.0016 C   0  0  0  0  0  0  0  0  0  0  0  0
   -7.3995    0.2904   25.5178 C   0  0  0  0  0  0  0  0  0  0  0  0
   -7.4500    1.4572   26.2617 C   0  0  0  0  0  0  0  0  0  0  0  0
  -11.4143    2.7504   27.6399 Cl  0  0  0  0  0  0  0  0  0  0  0  0
   -8.3904   -1.5860   24.2669 C   0  0  0  0  0  0  0  0  0  0  0  0
   -8.3379   -1.6652   23.0420 C   0  0  0  0  0  0  0  0  0  0  0  0
   -8.1268   -2.9065   22.2515 C   0  0  0  0  0  0  0  0  0  0  0  0
   -7.9064   -4.0298   23.0102 C   0  0  0  0  0  0  0  0  0  0  0  0
   -8.0222   -2.8543   24.9098 C   0  0  0  0  0  0  0  0  0  0  0  0
   -7.8336   -3.9626   24.3419 C   0  0  0  0  0  0  0  0  0  0  0  0
   -7.7028   -5.1725   22.2402 O   0  0  0  0  0  0  0  0  0  0  0  0
   -7.1950   -6.2074   22.7180 C   0  0  0  0  0  0  0  0  0  0  0  0
   -6.0718   -6.2933   23.1943 C   0  0  0  0  0  0  0  0  0  0  0  0
   -5.4595   -7.5099   23.7242 C   0  0  0  0  0  0  0  0  0  0  0  0
   -4.1982   -7.5333   24.3331 C   0  0  0  0  0  0  0  0  0  0  0  0
   -3.4494   -6.3390   24.4255 C   0  0  0  0  0  0  0  0  0  0  0  0
   -3.9570   -5.1069   23.9359 C   0  0  0  0  0  0  0  0  0  0  0  0
   -5.2086   -5.0830   23.3745 C   0  0  0  0  0  0  0  0  0  0  0  0
  3  4  1  0
  7 13  1  0
 10 14  1  0
 17 20  1  0
 20 21  1  0
 21 22  1  0
  4  5  2  0
  5  9  1  0
  9 10  2  0
 10 11  1  0
 11 12  2  0
 12  4  1  0
 14 15  2  0
 15 16  1  0
 16 17  2  0
 17 19  1  0
 19 18  2  0
 18 14  1  0
  1  2  2  0
  2  6  1  0
  6  8  2  0
  8  7  1  0
  7  3  2  0
  3  1  1  0
 22 23  2  0
 23 24  1  0
 24 25  2  0
 25 26  1  0
 26 27  2  0
 27 22  1  0
M  END
$$$$
