No_5193-complexes_sdf/6BKW-FPZ/2024-09-17-14-21-01/
     RDKit          3D

 24 25  0  0  0  0  0  0  0  0999 V2000
   -7.7129    4.2099   27.0854 C   0  0  0  0  0  0  0  0  0  0  0  0
   -8.9133    4.4736   27.0998 C   0  0  0  0  0  0  0  0  0  0  0  0
   -9.7135    3.9633   26.0300 C   0  0  0  0  0  0  0  0  0  0  0  0
   -6.8655    4.8824   28.1822 C   0  0  0  0  0  0  0  0  0  0  0  0
   -9.2221    2.8459   25.3619 C   0  0  0  0  0  0  0  0  0  0  0  0
   -8.0164    2.2957   25.7889 C   0  0  0  0  0  0  0  0  0  0  0  0
   -7.3052    2.9474   26.8072 C   0  0  0  0  0  0  0  0  0  0  0  0
  -10.0330    2.1843   24.3790 C   0  0  0  0  0  0  0  0  0  0  0  0
   -9.7030    1.0090   23.9743 C   0  0  0  0  0  0  0  0  0  0  0  0
  -10.3930    0.3968   22.8930 C   0  0  0  0  0  0  0  0  0  0  0  0
  -11.0306    0.9934   22.2750 C   0  0  0  0  0  0  0  0  0  0  0  0
  -10.8892    2.8223   23.4443 C   0  0  0  0  0  0  0  0  0  0  0  0
  -11.4405    2.3326   22.4221 C   0  0  0  0  0  0  0  0  0  0  0  0
   -9.2502    5.9241   27.5179 C   0  0  0  0  0  0  0  0  0  0  0  0
  -12.6830    3.2251   21.3404 Br  0  0  0  0  0  0  0  0  0  0  0  0
   -9.0229    7.0559   26.6480 C   0  0  0  0  0  0  0  0  0  0  0  0
   -8.0788    8.0375   27.2958 C   0  0  0  0  0  0  0  0  0  0  0  0
   -6.1811    2.3088   27.2483 O   0  0  0  0  0  0  0  0  0  0  0  0
   -6.1887    1.0223   27.7830 C   0  0  0  0  0  0  0  0  0  0  0  0
   -6.8122   -0.0182   27.5492 C   0  0  0  0  0  0  0  0  0  0  0  0
   -4.9230    0.8280   28.6328 C   0  0  2  0  0  0  0  0  0  0  0  0
   -3.8140    1.7013   28.6583 C   0  0  0  0  0  0  0  0  0  0  0  0
   -4.7670   -0.5257   29.1674 C   0  0  0  0  0  0  0  0  0  0  0  0
   -3.6688   -0.7216   30.0275 C   0  0  0  0  0  0  0  0  0  0  0  0
  1  4  1  0
  5  8  1  0
  2 14  1  0
 13 15  1  0
 14 16  1  0
 16 17  1  0
  7 18  1  0
 18 19  1  0
 19 20  2  0
 19 21  1  0
 21 22  1  6
 21 23  1  0
 23 24  1  0
  8  9  2  0
  9 10  1  0
 10 11  2  0
 11 13  1  0
 13 12  2  0
 12  8  1  0
  1  2  2  0
  2  3  1  0
  3  5  2  0
  5  6  1  0
  6  7  2  0
  7  1  1  0
M  END
$$$$
