No_5265-complexes_sdf/6BKW-FPZ/2024-09-17-14-21-01/
     RDKit          3D

 16 16  0  0  0  0  0  0  0  0999 V2000
   -7.7129    4.2099   27.0854 C   0  0  0  0  0  0  0  0  0  0  0  0
   -8.2112    3.0637   26.9225 C   0  0  0  0  0  0  0  0  0  0  0  0
   -9.4446    2.8304   26.1868 C   0  0  0  0  0  0  0  0  0  0  0  0
   -8.4697    5.3956   26.7238 C   0  0  0  0  0  0  0  0  0  0  0  0
   -9.6172    5.2111   25.9513 C   0  0  0  0  0  0  0  0  0  0  0  0
  -10.0424    3.9782   25.6873 C   0  0  0  0  0  0  0  0  0  0  0  0
   -7.9172    6.7181   27.0124 C   0  0  0  0  0  0  0  0  0  0  0  0
   -8.3485    7.7109   27.2025 N   0  0  0  0  0  0  0  0  0  0  0  0
   -6.8703    6.5408   27.9944 O   0  0  0  0  0  0  0  0  0  0  0  0
   -7.5023    1.7902   27.3580 C   0  0  0  0  0  0  0  0  0  0  0  0
   -6.8778    0.9747   26.5982 C   0  0  0  0  0  0  0  0  0  0  0  0
   -6.0745   -0.0172   27.2016 C   0  0  0  0  0  0  0  0  0  0  0  0
   -5.8684   -1.1913   26.8523 C   0  0  0  0  0  0  0  0  0  0  0  0
   -5.0060   -2.0703   27.5199 C   0  0  0  0  0  0  0  0  0  0  0  0
   -4.2910   -1.6299   28.6551 C   0  0  0  0  0  0  0  0  0  0  0  0
   -4.5082   -0.3209   29.1364 C   0  0  0  0  0  0  0  0  0  0  0  0
  4  7  1  0
  7  8  2  0
  7  9  1  0
  2 10  1  0
 10 11  1  0
 11 12  2  3
 12 13  1  0
 13 14  2  3
 14 15  1  0
 15 16  2  0
  1  2  2  0
  2  3  1  0
  3  6  2  0
  6  5  1  0
  5  4  2  0
  4  1  1  0
M  END
$$$$
