No_5018-complexes_sdf/6BKW-FPZ/2024-09-17-14-21-01/
     RDKit          3D

 12 13  0  0  0  0  0  0  0  0999 V2000
   -7.7129    4.2099   27.0854 C   0  0  0  0  0  0  0  0  0  0  0  0
   -7.7814    5.1722   27.8972 C   0  0  0  0  0  0  0  0  0  0  0  0
   -8.8776    3.8408   26.3416 C   0  0  0  0  0  0  0  0  0  0  0  0
   -8.9136    2.6330   25.5655 C   0  0  0  0  0  0  0  0  0  0  0  0
   -8.8361    6.1389   27.9032 C   0  0  0  0  0  0  0  0  0  0  0  0
  -10.0141    4.6007   26.4589 C   0  0  0  0  0  0  0  0  0  0  0  0
   -9.9695    5.8024   27.1801 C   0  0  0  0  0  0  0  0  0  0  0  0
   -9.7852    2.4569   24.5477 C   0  0  0  0  0  0  0  0  0  0  0  0
   -9.7974    1.3098   23.7692 C   0  0  0  0  0  0  0  0  0  0  0  0
   -8.8022    0.3012   24.0385 C   0  0  0  0  0  0  0  0  0  0  0  0
   -7.9477    0.4402   25.0870 C   0  0  0  0  0  0  0  0  0  0  0  0
   -7.9472    1.6021   25.8913 C   0  0  0  0  0  0  0  0  0  0  0  0
  3  4  1  0
  4  8  2  0
  8  9  1  0
  9 10  2  0
 10 11  1  0
 11 12  2  0
 12  4  1  0
  1  2  2  0
  2  5  1  0
  5  7  2  0
  7  6  1  0
  6  3  2  0
  3  1  1  0
M  END
$$$$
