No_5060-complexes_sdf/6BKW-FPZ/2024-09-17-14-21-01/
     RDKit          3D

 26 30  0  0  0  0  0  0  0  0999 V2000
   -7.9040    3.9820   27.1177 C   0  0  0  0  0  0  0  0  0  0  0  0
   -7.8663    4.8694   27.9238 C   0  0  0  0  0  0  0  0  0  0  0  0
   -9.0501    3.8017   26.2617 C   0  0  0  0  0  0  0  0  0  0  0  0
   -9.1826    2.7026   25.3575 C   0  0  0  0  0  0  0  0  0  0  0  0
   -8.6940    6.0131   27.8614 C   0  0  0  0  0  0  0  0  0  0  0  0
   -9.9755    4.8547   26.2361 C   0  0  0  0  0  0  0  0  0  0  0  0
   -9.7463    5.9398   27.0364 C   0  0  0  0  0  0  0  0  0  0  0  0
   -8.7079    1.4615   25.7719 C   0  0  0  0  0  0  0  0  0  0  0  0
   -9.8679    2.8075   24.1351 C   0  0  0  0  0  0  0  0  0  0  0  0
   -8.6966    0.3747   24.9258 C   0  0  0  0  0  0  0  0  0  0  0  0
   -9.9428    1.7154   23.3069 C   0  0  0  0  0  0  0  0  0  0  0  0
   -9.3407    0.5169   23.7054 C   0  0  0  0  0  0  0  0  0  0  0  0
   -9.4285   -0.6594   22.7561 C   0  0  0  0  0  0  0  0  0  0  0  0
  -10.3006   -1.6363   23.1517 C   0  0  0  0  0  0  0  0  0  0  0  0
  -10.3913   -2.6656   22.4162 C   0  0  0  0  0  0  0  0  0  0  0  0
   -9.9592   -2.8633   21.3925 C   0  0  0  0  0  0  0  0  0  0  0  0
   -9.0029   -1.8316   20.7809 C   0  0  0  0  0  0  0  0  0  0  0  0
   -8.7318   -0.6759   21.5391 C   0  0  0  0  0  0  0  0  0  0  0  0
   -8.0664   -0.8704   25.3321 C   0  0  0  0  0  0  0  0  0  0  0  0
   -7.2640   -0.8711   26.2188 C   0  0  0  0  0  0  0  0  0  0  0  0
   -6.5799   -2.0639   26.7213 C   0  0  0  0  0  0  0  0  0  0  0  0
   -6.8463   -3.1875   26.0539 C   0  0  0  0  0  0  0  0  0  0  0  0
   -7.7208   -3.2418   24.9841 C   0  0  0  0  0  0  0  0  0  0  0  0
   -8.2892   -2.0343   24.6206 C   0  0  0  0  0  0  0  0  0  0  0  0
   -9.2442   -2.1337   23.7064 O   0  0  0  0  0  0  0  0  0  0  0  0
  -11.2341   -3.8433   22.8902 C   0  0  0  0  0  0  0  0  0  0  0  0
  3  4  1  0
 12 13  1  0
 10 19  1  0
 14 25  1  0
 24 25  1  0
 15 26  1  0
 13 14  2  0
 14 15  1  0
 15 16  2  0
 16 17  1  0
 17 18  2  0
 18 13  1  0
  4  8  2  0
  8 10  1  0
 10 12  2  0
 12 11  1  0
 11  9  2  0
  9  4  1  0
 19 20  2  0
 20 21  1  0
 21 22  2  0
 22 23  1  0
 23 24  2  0
 24 19  1  0
  1  2  2  0
  2  5  1  0
  5  7  2  0
  7  6  1  0
  6  3  2  0
  3  1  1  0
M  END
$$$$
