No_5340-complexes_sdf/6BKW-FPZ/2024-09-17-14-21-01/
     RDKit          3D

 18 19  0  0  0  0  0  0  0  0999 V2000
   -7.7129    4.2099   27.0854 C   0  0  0  0  0  0  0  0  0  0  0  0
   -8.9133    4.4736   27.0998 C   0  0  0  0  0  0  0  0  0  0  0  0
   -9.8363    3.8127   27.2418 C   0  0  0  0  0  0  0  0  0  0  0  0
   -7.2995    2.8520   27.3808 C   0  0  0  0  0  0  0  0  0  0  0  0
   -5.9933    2.4049   27.5182 C   0  0  0  0  0  0  0  0  0  0  0  0
   -9.6474    2.3715   27.5497 C   0  0  0  0  0  0  0  0  0  0  0  0
   -8.3521    1.9371   27.6397 C   0  0  0  0  0  0  0  0  0  0  0  0
   -5.0473    3.1529   28.0080 N   0  0  0  0  0  0  0  0  0  0  0  0
   -5.7155    0.9887   27.3397 C   0  0  0  0  0  0  0  0  0  0  0  0
   -9.3975    5.9680   26.8457 C   0  0  0  0  0  0  0  0  0  0  0  0
  -10.0054    6.4313   27.7754 F   0  0  0  0  0  0  0  0  0  0  0  0
   -9.9197    6.0549   25.6196 F   0  0  0  0  0  0  0  0  0  0  0  0
   -8.2203    6.8664   26.7162 F   0  0  0  0  0  0  0  0  0  0  0  0
   -6.5222    0.0898   26.9190 C   0  0  0  0  0  0  0  0  0  0  0  0
   -6.2299   -1.2233   26.6312 C   0  0  0  0  0  0  0  0  0  0  0  0
   -8.0671    0.5014   27.4208 C   0  0  0  0  0  0  0  0  0  0  0  0
   -5.0327   -1.4377   26.4335 C   0  0  0  0  0  0  0  0  0  0  0  0
   -3.9223   -0.4986   26.7046 C   0  0  0  0  0  0  0  0  0  0  0  0
  5  8  1  0
  2 10  1  0
 10 11  1  0
 10 12  1  0
 10 13  1  0
 14 15  1  0
 15 17  2  3
 17 18  1  0
  1  2  2  0
  2  3  1  0
  3  6  2  0
  6  7  1  0
  4  1  1  0
  4  5  2  0
  5  9  1  0
  9 14  2  0
 14 16  1  0
 16  7  2  0
  7  4  1  0
M  END
$$$$
