No_5556-complexes_sdf/6BKW-FPZ/2024-09-17-14-21-01/
     RDKit          3D

 25 26  0  0  0  0  0  0  0  0999 V2000
   -7.7129    4.2099   27.0854 C   0  0  0  0  0  0  0  0  0  0  0  0
   -8.9133    4.4736   27.0998 C   0  0  0  0  0  0  0  0  0  0  0  0
   -9.7937    3.7367   26.2091 C   0  0  0  0  0  0  0  0  0  0  0  0
   -6.8266    5.0441   28.0594 C   0  0  0  0  0  0  0  0  0  0  0  0
   -9.2322    2.6276   25.6126 C   0  0  0  0  0  0  0  0  0  0  0  0
   -7.9794    2.1924   25.9863 C   0  0  0  0  0  0  0  0  0  0  0  0
   -7.2411    2.9387   26.9009 C   0  0  0  0  0  0  0  0  0  0  0  0
  -10.0894    1.7793   24.7540 C   0  0  0  0  0  0  0  0  0  0  0  0
  -10.0344    0.5790   24.7192 C   0  0  0  0  0  0  0  0  0  0  0  0
  -10.7963   -0.2560   23.7738 C   0  0  0  0  0  0  0  0  0  0  0  0
  -11.6026    0.4324   22.8291 C   0  0  0  0  0  0  0  0  0  0  0  0
  -10.8955    2.4674   23.7381 C   0  0  0  0  0  0  0  0  0  0  0  0
  -11.6023    1.8048   22.8528 C   0  0  0  0  0  0  0  0  0  0  0  0
   -9.4795    5.8338   27.5049 C   0  0  0  0  0  0  0  0  0  0  0  0
   -9.1954    6.9495   26.6456 C   0  0  0  0  0  0  0  0  0  0  0  0
   -8.3467    7.9977   27.3439 C   0  0  0  0  0  0  0  0  0  0  0  0
   -6.9797    8.0416   26.7285 C   0  0  0  0  0  0  0  0  0  0  0  0
  -10.8064   -1.5896   23.7463 O   0  0  0  0  0  0  0  0  0  0  0  0
  -10.8122   -2.3620   22.9426 C   0  0  0  0  0  0  0  0  0  0  0  0
  -12.0569   -3.1438   22.7302 C   0  0  0  0  0  0  0  0  0  0  0  0
  -12.2469   -3.5958   21.6153 F   0  0  0  0  0  0  0  0  0  0  0  0
  -11.9986   -4.1859   23.6253 F   0  0  0  0  0  0  0  0  0  0  0  0
  -13.1490   -2.3841   23.0152 F   0  0  0  0  0  0  0  0  0  0  0  0
  -10.5224   -1.6375   21.7275 F   0  0  0  0  0  0  0  0  0  0  0  0
   -9.7255   -3.2186   23.0154 F   0  0  0  0  0  0  0  0  0  0  0  0
  1  4  1  0
  5  8  1  0
  2 14  1  0
 14 15  1  0
 15 16  1  0
 16 17  1  0
 10 18  1  0
 18 19  1  0
 19 20  1  0
 20 21  1  0
 20 22  1  0
 20 23  1  0
 19 24  1  0
 19 25  1  0
  8  9  2  0
  9 10  1  0
 10 11  2  0
 11 13  1  0
 13 12  2  0
 12  8  1  0
  1  2  2  0
  2  3  1  0
  3  5  2  0
  5  6  1  0
  6  7  2  0
  7  1  1  0
M  END
$$$$
