No_5630-complexes_sdf/6BKW-FPZ/2024-09-17-14-21-01/
     RDKit          3D

 27 28  0  0  0  0  0  0  0  0999 V2000
   -7.2496    3.8871   27.4508 C   0  0  0  0  0  0  0  0  0  0  0  0
   -8.5096    4.0291   27.2770 C   0  0  0  0  0  0  0  0  0  0  0  0
   -9.3502    2.8685   26.8763 C   0  0  0  0  0  0  0  0  0  0  0  0
   -6.6288    2.5513   27.4938 C   0  0  0  0  0  0  0  0  0  0  0  0
   -7.4365    1.4714   27.2032 C   0  0  0  0  0  0  0  0  0  0  0  0
   -8.7772    1.6579   26.9338 C   0  0  0  0  0  0  0  0  0  0  0  0
   -9.1119    5.3743   27.2229 C   0  0  0  0  0  0  0  0  0  0  0  0
  -10.3508    5.4296   27.6019 F   0  0  0  0  0  0  0  0  0  0  0  0
   -9.0028    5.9609   25.9823 F   0  0  0  0  0  0  0  0  0  0  0  0
   -8.3639    6.3043   27.9758 F   0  0  0  0  0  0  0  0  0  0  0  0
   -6.7913    0.1899   27.1697 C   0  0  0  0  0  0  0  0  0  0  0  0
   -5.5840   -0.0564   27.8234 C   0  0  0  0  0  0  0  0  0  0  0  0
   -4.9623   -1.3201   27.8347 C   0  0  0  0  0  0  0  0  0  0  0  0
   -5.5738   -2.2887   27.0480 C   0  0  0  0  0  0  0  0  0  0  0  0
   -7.2208   -0.9437   26.5549 C   0  0  0  0  0  0  0  0  0  0  0  0
   -6.7017   -2.1155   26.4656 C   0  0  0  0  0  0  0  0  0  0  0  0
   -3.6657   -1.4598   28.5838 C   0  0  0  0  0  0  0  0  0  0  0  0
   -2.5898   -1.0384   27.9486 C   0  0  0  0  0  0  0  0  0  0  0  0
   -3.6300   -2.0028   29.8920 C   0  0  0  0  0  0  0  0  0  0  0  0
   -4.4785   -1.6695   30.8012 C   0  0  0  0  0  0  0  0  0  0  0  0
   -4.7661   -2.3579   31.8384 C   0  0  0  0  0  0  0  0  0  0  0  0
   -5.8328   -1.9701   32.8177 C   0  0  0  0  0  0  0  0  0  0  0  0
   -6.5507   -2.6748   33.4737 C   0  0  0  0  0  0  0  0  0  0  0  0
   -1.5379   -1.6272   27.9166 N   0  0  0  0  0  0  0  0  0  0  0  0
   -2.5691    0.2138   27.3594 O   0  0  0  0  0  0  0  0  0  0  0  0
   -6.1967   -4.0561   33.5799 C   0  0  0  0  0  0  0  0  0  0  0  0
   -5.1786   -4.5154   32.8327 C   0  0  0  0  0  0  0  0  0  0  0  0
  2  7  1  0
  7  8  1  0
  7  9  1  0
  7 10  1  0
  5 11  1  0
 13 17  1  0
 17 18  1  0
 17 19  1  0
 19 20  1  0
 20 21  2  3
 21 22  1  0
 22 23  2  3
 18 24  1  0
 18 25  2  0
 23 26  1  0
 26 27  2  0
  1  2  2  0
  2  3  1  0
  3  6  2  0
  6  5  1  0
  5  4  2  0
  4  1  1  0
 11 12  2  0
 12 13  1  0
 13 14  2  0
 14 16  1  0
 16 15  2  0
 15 11  1  0
M  END
$$$$
