No_5799-complexes_sdf/6BKW-FPZ/2024-09-17-14-21-01/
     RDKit          3D

 26 28  0  0  0  0  0  0  0  0999 V2000
   -7.2496    3.8871   27.4508 C   0  0  0  0  0  0  0  0  0  0  0  0
   -8.5096    4.0291   27.2770 C   0  0  0  0  0  0  0  0  0  0  0  0
   -9.3451    2.8786   26.9046 C   0  0  0  0  0  0  0  0  0  0  0  0
   -6.6065    2.5680   27.5073 C   0  0  0  0  0  0  0  0  0  0  0  0
   -7.4233    1.4858   27.2402 C   0  0  0  0  0  0  0  0  0  0  0  0
   -8.7362    1.6525   26.9989 C   0  0  0  0  0  0  0  0  0  0  0  0
   -9.0996    5.3741   27.2135 C   0  0  0  0  0  0  0  0  0  0  0  0
   -8.5722    6.4070   27.0335 C   0  0  0  0  0  0  0  0  0  0  0  0
   -9.1848    7.7690   27.0002 C   0  0  0  0  0  0  0  0  0  0  0  0
   -6.5966    0.2273   27.3049 C   0  0  0  0  0  0  0  0  0  0  0  0
   -5.4378    0.1471   27.7192 C   0  0  0  0  0  0  0  0  0  0  0  0
   -4.7229   -1.0873   27.8166 C   0  0  0  0  0  0  0  0  0  0  0  0
   -5.3106   -2.1709   27.2138 C   0  0  0  0  0  0  0  0  0  0  0  0
   -7.0673   -1.0046   26.8069 C   0  0  0  0  0  0  0  0  0  0  0  0
   -6.4987   -2.1197   26.7464 C   0  0  0  0  0  0  0  0  0  0  0  0
  -10.5588    5.3422   27.4881 C   0  0  0  0  0  0  0  0  0  0  0  0
   -3.3054   -1.0636   28.4145 C   0  0  2  0  0  0  0  0  0  0  0  0
   -3.0730   -1.1557   29.7239 C   0  0  0  0  0  0  0  0  0  0  0  0
   -3.8201   -1.5851   30.6666 C   0  0  0  0  0  0  0  0  0  0  0  0
   -3.5067   -1.4619   32.0860 C   0  0  0  0  0  0  0  0  0  0  0  0
   -2.4412   -0.7617   32.4225 C   0  0  0  0  0  0  0  0  0  0  0  0
   -1.6514   -0.0998   31.4890 C   0  0  0  0  0  0  0  0  0  0  0  0
   -1.9448   -0.2640   30.1629 C   0  0  0  0  0  0  0  0  0  0  0  0
   -2.4124   -0.7944   27.6654 C   0  0  0  0  0  0  0  0  0  0  0  0
   -2.1194   -0.5293   34.1500 Cl  0  0  0  0  0  0  0  0  0  0  0  0
   -2.1416    0.3558   27.0099 C   0  0  0  0  0  0  0  0  0  0  0  0
  2  7  1  0
  7  8  2  3
  8  9  1  0
  5 10  1  0
  7 16  1  0
 12 17  1  0
 17 18  1  0
 17 24  1  1
 21 25  1  0
 24 26  1  0
 18 19  2  0
 19 20  1  0
 20 21  2  0
 21 22  1  0
 22 23  2  0
 23 18  1  0
  1  2  2  0
  2  3  1  0
  3  6  2  0
  6  5  1  0
  5  4  2  0
  4  1  1  0
 10 11  2  0
 11 12  1  0
 12 13  2  0
 13 15  1  0
 15 14  2  0
 14 10  1  0
M  END
$$$$
