No_5471-complexes_sdf/6BKW-FPZ/2024-09-17-14-21-01/
     RDKit          3D

 24 26  0  0  0  0  0  0  0  0999 V2000
   -7.2496    3.8871   27.4508 C   0  0  0  0  0  0  0  0  0  0  0  0
   -7.6161    2.7143   27.1523 C   0  0  0  0  0  0  0  0  0  0  0  0
   -8.8302    2.4659   26.5056 C   0  0  0  0  0  0  0  0  0  0  0  0
   -8.1584    5.0090   27.3234 C   0  0  0  0  0  0  0  0  0  0  0  0
   -9.3788    4.7965   26.7695 C   0  0  0  0  0  0  0  0  0  0  0  0
   -9.7028    3.5649   26.3276 C   0  0  0  0  0  0  0  0  0  0  0  0
   -6.5671    1.3685   27.4084 Cl  0  0  0  0  0  0  0  0  0  0  0  0
   -7.7259    6.2172   27.7228 F   0  0  0  0  0  0  0  0  0  0  0  0
  -11.0181    3.3695   25.6745 C   0  0  0  0  0  0  0  0  0  0  0  0
  -11.2330    2.2517   25.0288 C   0  0  0  0  0  0  0  0  0  0  0  0
  -10.2611    1.2940   25.0008 C   0  0  0  0  0  0  0  0  0  0  0  0
   -9.1000    1.3132   25.7364 C   0  0  0  0  0  0  0  0  0  0  0  0
  -10.5596   -0.0662   24.3325 C   0  0  0  0  0  0  0  0  0  0  0  0
  -10.9988   -1.0700   24.9719 C   0  0  0  0  0  0  0  0  0  0  0  0
  -10.2882   -0.1247   22.9185 C   0  0  0  0  0  0  0  0  0  0  0  0
  -11.2527   -1.1600   26.2535 C   0  0  0  0  0  0  0  0  0  0  0  0
  -11.6902   -2.3186   26.9666 C   0  0  0  0  0  0  0  0  0  0  0  0
  -11.8218   -3.4177   26.1993 C   0  0  0  0  0  0  0  0  0  0  0  0
  -11.5884   -3.4324   24.8816 C   0  0  0  0  0  0  0  0  0  0  0  0
  -11.1435   -2.3131   24.2455 C   0  0  0  0  0  0  0  0  0  0  0  0
  -10.3027    0.5602   22.1693 C   0  0  0  0  0  0  0  0  0  0  0  0
   -9.9433    0.3807   20.7312 C   0  0  0  0  0  0  0  0  0  0  0  0
   -9.6591   -0.9443   20.4022 C   0  0  0  0  0  0  0  0  0  0  0  0
   -9.7161   -1.9053   21.3722 C   0  0  0  0  0  0  0  0  0  0  0  0
  2  7  1  0
  4  8  1  0
 11 13  1  0
 13 14  1  0
 13 15  1  0
 15 21  2  3
 21 22  1  0
 22 23  2  3
 23 24  1  0
 14 16  2  0
 16 17  1  0
 17 18  2  0
 18 19  1  0
 19 20  2  0
 20 14  1  0
  1  2  2  0
  2  3  1  0
  6  5  1  0
  5  4  2  0
  4  1  1  0
  3  6  2  0
  6  9  1  0
  9 10  2  0
 10 11  1  0
 11 12  2  0
 12  3  1  0
M  END
$$$$
