No_5519-complexes_sdf/6BKW-FPZ/2024-09-17-14-21-01/
     RDKit          3D

 21 25  0  0  0  0  0  0  0  0999 V2000
   -7.7129    4.2099   27.0854 C   0  0  0  0  0  0  0  0  0  0  0  0
   -7.7814    5.1722   27.8972 C   0  0  0  0  0  0  0  0  0  0  0  0
   -8.8998    3.8713   26.3707 C   0  0  0  0  0  0  0  0  0  0  0  0
   -8.9563    2.6796   25.5490 C   0  0  0  0  0  0  0  0  0  0  0  0
   -8.8131    6.1334   27.9344 C   0  0  0  0  0  0  0  0  0  0  0  0
   -9.9804    5.8121   27.1929 C   0  0  0  0  0  0  0  0  0  0  0  0
   -9.9861    4.6836   26.4532 C   0  0  0  0  0  0  0  0  0  0  0  0
   -8.3568    1.4858   26.0897 C   0  0  0  0  0  0  0  0  0  0  0  0
   -7.9145    1.4986   27.3503 C   0  0  0  0  0  0  0  0  0  0  0  0
   -8.3348    0.4213   25.1828 C   0  0  0  0  0  0  0  0  0  0  0  0
   -7.2962    0.1681   27.7629 C   0  0  0  0  0  0  0  0  0  0  0  0
   -8.8696    0.5308   23.9202 C   0  0  0  0  0  0  0  0  0  0  0  0
   -7.2993   -0.9008   26.9406 C   0  0  0  0  0  0  0  0  0  0  0  0
   -7.7712   -0.7636   25.6763 C   0  0  0  0  0  0  0  0  0  0  0  0
   -9.5509    2.7595   24.2979 C   0  0  0  0  0  0  0  0  0  0  0  0
   -9.5088    1.6859   23.4748 C   0  0  0  0  0  0  0  0  0  0  0  0
  -10.0855    1.7856   22.1468 C   0  0  0  0  0  0  0  0  0  0  0  0
  -10.3947    2.9911   21.7142 C   0  0  0  0  0  0  0  0  0  0  0  0
  -10.7820    4.0430   22.6071 C   0  0  0  0  0  0  0  0  0  0  0  0
  -10.2059    3.9793   23.8611 C   0  0  0  0  0  0  0  0  0  0  0  0
  -10.7620    4.6537   25.2324 N   0  0  0  0  0  0  0  0  0  0  0  0
  3  4  1  0
  7 21  1  0
 20 21  1  0
 16 17  2  0
 17 18  1  0
 18 19  2  0
 19 20  1  0
 20 15  2  0
  1  2  2  0
  2  5  1  0
  5  6  2  0
  6  7  1  0
  7  3  2  0
  3  1  1  0
  8  9  1  0
  9 11  2  0
 11 13  1  0
 13 14  2  0
 14 10  1  0
  4  8  2  0
  8 10  1  0
 10 12  2  0
 12 16  1  0
 16 15  1  0
 15  4  1  0
M  END
$$$$
