No_5478-complexes_sdf/6BKW-FPZ/2024-09-17-14-21-01/
     RDKit          3D

 40 44  0  0  0  0  0  0  0  0999 V2000
   -7.9040    3.9820   27.1177 C   0  0  0  0  0  0  0  0  0  0  0  0
   -7.8663    4.8694   27.9238 C   0  0  0  0  0  0  0  0  0  0  0  0
   -9.0491    3.8523   26.2542 C   0  0  0  0  0  0  0  0  0  0  0  0
   -8.7661    5.9491   27.9690 C   0  0  0  0  0  0  0  0  0  0  0  0
   -9.9279    4.8544   26.1938 C   0  0  0  0  0  0  0  0  0  0  0  0
   -9.8044    5.9413   27.0782 C   0  0  0  0  0  0  0  0  0  0  0  0
   -7.0257    2.8867   27.1969 N   0  0  0  0  0  0  0  0  0  0  0  0
   -7.2963    1.6007   26.7912 C   0  0  0  0  0  0  0  0  0  0  0  0
   -6.3154    0.6412   27.1692 C   0  0  0  0  0  0  0  0  0  0  0  0
   -5.1451    1.0755   27.8064 C   0  0  0  0  0  0  0  0  0  0  0  0
   -4.1568    0.1266   28.1656 C   0  0  0  0  0  0  0  0  0  0  0  0
   -4.3342   -1.1435   27.9130 C   0  0  0  0  0  0  0  0  0  0  0  0
   -5.4554   -1.5973   27.2385 C   0  0  0  0  0  0  0  0  0  0  0  0
   -6.4662   -0.6834   26.8977 C   0  0  0  0  0  0  0  0  0  0  0  0
   -8.2371    1.3208   26.1214 O   0  0  0  0  0  0  0  0  0  0  0  0
   -3.2447   -2.1042   28.3020 C   0  0  0  0  0  0  0  0  0  0  0  0
   -3.1466   -2.4380   29.5135 C   0  0  0  0  0  0  0  0  0  0  0  0
   -3.9411   -1.9164   30.4944 C   0  0  0  0  0  0  0  0  0  0  0  0
   -4.8880   -1.5271   30.6775 C   0  0  0  0  0  0  0  0  0  0  0  0
   -5.2761   -1.0285   32.1115 C   0  0  0  0  0  0  0  0  0  0  0  0
   -4.1990   -1.2034   32.8952 C   0  0  0  0  0  0  0  0  0  0  0  0
   -3.1582   -1.7516   31.9956 C   0  0  0  0  0  0  0  0  0  0  0  0
   -2.4976   -2.6329   27.1802 C   0  0  0  0  0  0  0  0  0  0  0  0
   -1.8940   -3.2838   29.8583 C   0  0  0  0  0  0  0  0  0  0  0  0
   -1.2633   -3.8773   28.7775 C   0  0  0  0  0  0  0  0  0  0  0  0
   -2.7373   -2.2032   25.7785 C   0  0  0  0  0  0  0  0  0  0  0  0
   -1.4350   -3.4946   27.4514 C   0  0  0  0  0  0  0  0  0  0  0  0
   -3.9552   -0.9173   34.2418 C   0  0  0  0  0  0  0  0  0  0  0  0
   -5.0109   -1.1461   35.1077 N   0  0  0  0  0  0  0  0  0  0  0  0
   -4.8317   -1.8769   36.2387 C   0  0  0  0  0  0  0  0  0  0  0  0
   -3.7769   -2.1531   36.6487 C   0  0  0  0  0  0  0  0  0  0  0  0
   -5.8594   -1.3600   37.2482 C   0  0  0  0  0  0  0  0  0  0  0  0
   -6.3291   -2.3728   38.1800 C   0  0  0  0  0  0  0  0  0  0  0  0
   -3.8242   -3.0085   37.9565 C   0  0  0  0  0  0  0  0  0  0  0  0
   -4.9723   -2.8872   38.8311 C   0  0  0  0  0  0  0  0  0  0  0  0
   -2.8409   -0.4917   34.6184 O   0  0  0  0  0  0  0  0  0  0  0  0
   -5.1183   -3.7539   39.9997 C   0  0  0  0  0  0  0  0  0  0  0  0
   -4.3812   -3.4187   40.9744 C   0  0  0  0  0  0  0  0  0  0  0  0
   -4.1756   -3.6828   42.0425 C   0  0  0  0  0  0  0  0  0  0  0  0
   -3.5290   -3.4665   43.0319 C   0  0  0  0  0  0  0  0  0  0  0  0
  1  7  1  0
  7  8  1  0
  8  9  1  0
  8 15  2  0
 12 16  1  0
 17 18  1  0
 18 19  2  0
 19 20  1  0
 20 21  2  0
 18 22  1  0
 21 22  1  0
 23 26  1  0
 21 28  1  0
 28 29  1  0
 29 30  1  0
 28 36  2  0
 35 37  1  0
 37 38  2  3
 38 39  1  0
 39 40  2  0
 30 31  2  0
 31 34  1  0
 34 35  2  0
 35 33  1  0
 33 32  2  0
 32 30  1  0
  1  2  2  0
  2  4  1  0
  4  6  2  0
  6  5  1  0
  5  3  2  0
  3  1  1  0
  9 10  2  0
 10 11  1  0
 11 12  2  0
 12 13  1  0
 13 14  2  0
 14  9  1  0
 16 17  2  0
 17 24  1  0
 24 25  2  0
 25 27  1  0
 27 23  2  0
 23 16  1  0
M  END
$$$$
