No_503-complexes_sdf/6BKW-FPZ/2024-09-17-14-21-01/
     RDKit          3D

 19 19  0  0  0  0  0  0  0  0999 V2000
   -7.2496    3.8871   27.4508 C   0  0  0  0  0  0  0  0  0  0  0  0
   -8.5096    4.0291   27.2770 C   0  0  0  0  0  0  0  0  0  0  0  0
   -9.3451    2.8786   26.9046 C   0  0  0  0  0  0  0  0  0  0  0  0
   -6.6065    2.5680   27.5073 C   0  0  0  0  0  0  0  0  0  0  0  0
   -7.3970    1.4834   27.2271 C   0  0  0  0  0  0  0  0  0  0  0  0
   -8.7029    1.6398   26.9934 C   0  0  0  0  0  0  0  0  0  0  0  0
   -9.1085    5.3654   27.2135 C   0  0  0  0  0  0  0  0  0  0  0  0
   -8.5196    6.2304   26.6508 F   0  0  0  0  0  0  0  0  0  0  0  0
  -10.3223    5.4978   27.5993 F   0  0  0  0  0  0  0  0  0  0  0  0
   -5.3107    2.4885   27.7765 O   0  0  0  0  0  0  0  0  0  0  0  0
   -6.7701    0.2679   27.2361 N   0  0  0  0  0  0  0  0  0  0  0  0
   -7.0385   -0.6525   26.6692 C   0  0  0  0  0  0  0  0  0  0  0  0
   -8.0959   -0.8609   26.0629 C   0  0  0  0  0  0  0  0  0  0  0  0
   -9.2296    0.0371   25.9926 C   0  0  2  0  0  0  0  0  0  0  0  0
   -9.2609    0.9263   28.0564 O   0  0  0  0  0  0  0  0  0  0  0  0
  -10.3351    0.2335   25.5283 C   0  0  0  0  0  0  0  0  0  0  0  0
   -8.5752    0.7756   25.0416 C   0  0  0  0  0  0  0  0  0  0  0  0
   -9.3205    1.3437   23.8029 C   0  0  0  0  0  0  0  0  0  0  0  0
   -7.3170    0.9997   24.7551 F   0  0  0  0  0  0  0  0  0  0  0  0
  2  7  1  0
  7  8  1  0
  7  9  1  0
  4 10  1  0
  5 11  1  0
 11 12  1  0
 12 13  2  3
 13 14  1  0
  6 15  1  0
 14 16  1  6
 14 17  1  0
 17 18  2  0
 17 19  1  0
  1  2  2  0
  2  3  1  0
  3  6  2  0
  6  5  1  0
  5  4  2  0
  4  1  1  0
M  END
$$$$
