No_5352-complexes_sdf/6BKW-FPZ/2024-09-17-14-21-01/
     RDKit          3D

 40 44  0  0  0  0  0  0  0  0999 V2000
   -7.9040    3.9820   27.1177 C   0  0  0  0  0  0  0  0  0  0  0  0
   -7.8663    4.8694   27.9238 C   0  0  0  0  0  0  0  0  0  0  0  0
   -9.0491    3.8523   26.2542 C   0  0  0  0  0  0  0  0  0  0  0  0
   -8.7661    5.9491   27.9690 C   0  0  0  0  0  0  0  0  0  0  0  0
   -9.9295    4.8502   26.2323 C   0  0  0  0  0  0  0  0  0  0  0  0
   -9.8077    5.9288   27.0933 C   0  0  0  0  0  0  0  0  0  0  0  0
   -7.0146    2.9513   27.1368 F   0  0  0  0  0  0  0  0  0  0  0  0
   -9.1015    2.7190   25.2776 C   0  0  0  0  0  0  0  0  0  0  0  0
   -8.7417    1.5910   25.6089 N   0  0  0  0  0  0  0  0  0  0  0  0
   -9.8125    2.8824   24.2577 O   0  0  0  0  0  0  0  0  0  0  0  0
   -8.7575    0.4189   24.7737 C   0  0  0  0  0  0  0  0  0  0  0  0
   -7.7135   -0.3922   24.8269 C   0  0  0  0  0  0  0  0  0  0  0  0
   -6.9183   -0.2544   25.9187 C   0  0  0  0  0  0  0  0  0  0  0  0
   -5.6486   -0.9733   25.9762 C   0  0  0  0  0  0  0  0  0  0  0  0
   -4.6971   -0.8150   27.0533 C   0  0  0  0  0  0  0  0  0  0  0  0
   -5.0650    0.1091   28.1046 C   0  0  0  0  0  0  0  0  0  0  0  0
   -6.3398    0.7222   28.0601 C   0  0  0  0  0  0  0  0  0  0  0  0
   -7.1212    0.5731   27.0127 C   0  0  0  0  0  0  0  0  0  0  0  0
   -8.1609    1.4392   26.8090 N   0  0  0  0  0  0  0  0  0  0  0  0
   -4.2075    0.2274   29.3430 C   0  0  0  0  0  0  0  0  0  0  0  0
   -3.0824   -0.0248   29.2691 O   0  0  0  0  0  0  0  0  0  0  0  0
   -4.8604    0.4263   30.5064 O   0  0  0  0  0  0  0  0  0  0  0  0
   -4.1436   -0.0313   31.6714 C   0  0  0  0  0  0  0  0  0  0  0  0
   -4.9256   -0.7338   32.6710 C   0  0  0  0  0  0  0  0  0  0  0  0
   -4.3999   -1.0280   33.8748 C   0  0  0  0  0  0  0  0  0  0  0  0
   -5.1319   -1.6618   34.9254 C   0  0  0  0  0  0  0  0  0  0  0  0
   -4.6932   -1.7466   36.2327 C   0  0  0  0  0  0  0  0  0  0  0  0
   -3.3451   -1.2948   36.4776 C   0  0  0  0  0  0  0  0  0  0  0  0
   -2.5940   -0.7569   35.4721 C   0  0  0  0  0  0  0  0  0  0  0  0
   -3.0777   -0.5615   34.2058 C   0  0  0  0  0  0  0  0  0  0  0  0
   -1.1675   -0.3016   35.7816 C   0  0  0  0  0  0  0  0  0  0  0  0
   -0.9144    0.2302   36.8048 O   0  0  0  0  0  0  0  0  0  0  0  0
   -0.3159   -0.4172   34.7944 O   0  0  0  0  0  0  0  0  0  0  0  0
   -5.4945   -2.2668   37.2999 C   0  0  0  0  0  0  0  0  0  0  0  0
   -6.5713   -2.7680   37.1506 N   0  0  0  0  0  0  0  0  0  0  0  0
   -6.8879   -3.5633   36.3708 C   0  0  0  0  0  0  0  0  0  0  0  0
   -8.2752   -3.8274   36.0075 C   0  0  0  0  0  0  0  0  0  0  0  0
   -7.6977   -2.2474   38.0216 C   0  0  0  0  0  0  0  0  0  0  0  0
   -8.9991   -2.5829   37.8100 C   0  0  0  0  0  0  0  0  0  0  0  0
   -9.2733   -3.4222   36.8010 C   0  0  0  0  0  0  0  0  0  0  0  0
  1  7  1  0
  3  8  1  0
  8  9  1  0
  8 10  2  0
  9 11  1  0
 11 12  1  0
 12 13  1  0
  9 19  1  0
 18 19  1  0
 16 20  1  0
 20 21  2  0
 20 22  1  0
 22 23  1  0
 23 24  1  0
 29 31  1  0
 31 32  2  0
 31 33  1  0
 27 34  1  0
 34 35  1  0
 35 36  1  0
 35 38  1  0
 37 40  1  0
 39 40  1  0
 24 25  1  0
 36 37  1  0
 39 38  1  0
 25 26  2  0
 26 27  1  0
 27 28  2  0
 28 29  1  0
 29 30  2  0
 30 25  1  0
 13 14  2  0
 14 15  1  0
 15 16  2  0
 16 17  1  0
 17 18  2  0
 18 13  1  0
  1  2  2  0
  2  4  1  0
  4  6  2  0
  6  5  1  0
  5  3  2  0
  3  1  1  0
M  END
$$$$
