No_511-complexes_sdf/6BKW-FPZ/2024-09-17-14-21-01/
     RDKit          3D

 19 20  0  0  0  0  0  0  0  0999 V2000
   -7.7129    4.2099   27.0854 C   0  0  0  0  0  0  0  0  0  0  0  0
   -7.7814    5.1722   27.8972 C   0  0  0  0  0  0  0  0  0  0  0  0
   -8.8776    3.8408   26.3416 C   0  0  0  0  0  0  0  0  0  0  0  0
   -9.9844    4.6492   26.4743 C   0  0  0  0  0  0  0  0  0  0  0  0
   -8.7830    6.1594   27.8870 C   0  0  0  0  0  0  0  0  0  0  0  0
   -9.9269    5.8191   27.1183 C   0  0  0  0  0  0  0  0  0  0  0  0
   -8.6731    2.5840   25.5890 C   0  0  0  0  0  0  0  0  0  0  0  0
   -9.4842    2.4553   24.5305 C   0  0  0  0  0  0  0  0  0  0  0  0
   -9.4814    1.2626   23.7551 C   0  0  0  0  0  0  0  0  0  0  0  0
   -8.5396    0.2552   24.1282 C   0  0  0  0  0  0  0  0  0  0  0  0
   -7.7999    0.3958   25.2717 C   0  0  0  0  0  0  0  0  0  0  0  0
   -7.8710    1.5706   26.0610 C   0  0  0  0  0  0  0  0  0  0  0  0
   -8.4508   -0.9650   23.3215 C   0  0  0  0  0  0  0  0  0  0  0  0
   -9.1732   -2.0470   23.7320 C   0  0  0  0  0  0  0  0  0  0  0  0
   -9.8033   -2.2761   24.5059 C   0  0  0  0  0  0  0  0  0  0  0  0
  -10.4714   -2.9509   25.1838 C   0  0  0  0  0  0  0  0  0  0  0  0
  -10.7544   -2.6142   26.5678 C   0  0  0  0  0  0  0  0  0  0  0  0
  -10.4739   -1.3824   27.1107 C   0  0  0  0  0  0  0  0  0  0  0  0
   -9.9085   -0.4071   26.4029 C   0  0  0  0  0  0  0  0  0  0  0  0
  3  7  1  0
 10 13  1  0
 13 14  1  0
 14 15  2  3
 15 16  1  0
 16 17  2  3
 17 18  1  0
 18 19  2  0
  1  2  2  0
  2  5  1  0
  5  6  2  0
  6  4  1  0
  4  3  2  0
  3  1  1  0
  7  8  2  0
  8  9  1  0
  9 10  2  0
 10 11  1  0
 11 12  2  0
 12  7  1  0
M  END
$$$$
