No_595-complexes_sdf/6BKW-FPZ/2024-09-17-14-21-01/
     RDKit          3D

 29 32  0  0  0  0  0  0  0  0999 V2000
   -7.7129    4.2099   27.0854 C   0  0  0  0  0  0  0  0  0  0  0  0
   -8.2112    3.0637   26.9225 C   0  0  0  0  0  0  0  0  0  0  0  0
   -8.5108    5.3904   26.9436 C   0  0  0  0  0  0  0  0  0  0  0  0
   -9.7256    5.1955   26.3518 C   0  0  0  0  0  0  0  0  0  0  0  0
   -9.4995    2.8258   26.4878 C   0  0  0  0  0  0  0  0  0  0  0  0
  -10.2542    3.9691   26.2055 C   0  0  0  0  0  0  0  0  0  0  0  0
   -7.8138    6.9227   27.2348 Cl  0  0  0  0  0  0  0  0  0  0  0  0
   -7.3640    1.8353   27.2492 C   0  0  0  0  0  0  0  0  0  0  0  0
   -6.1498    2.0141   27.7477 N   0  0  0  0  0  0  0  0  0  0  0  0
   -5.3821    0.8639   28.0195 C   0  0  0  0  0  0  0  0  0  0  0  0
   -5.9434   -0.3310   27.8731 C   0  0  0  0  0  0  0  0  0  0  0  0
   -7.6988    0.4714   27.1756 C   0  0  0  0  0  0  0  0  0  0  0  0
   -7.1062   -0.5260   27.4883 C   0  0  0  0  0  0  0  0  0  0  0  0
   -4.0749    1.1852   28.5034 N   0  0  0  0  0  0  0  0  0  0  0  0
  -11.5879    3.8326   25.6091 C   0  0  1  0  0  0  0  0  0  0  0  0
  -12.6617    3.8291   26.4388 C   0  0  0  0  0  0  0  0  0  0  0  0
  -12.5350    3.9055   27.7933 C   0  0  0  0  0  0  0  0  0  0  0  0
  -13.7034    3.9372   28.6894 C   0  0  0  0  0  0  0  0  0  0  0  0
  -14.9332    4.0182   28.1254 C   0  0  0  0  0  0  0  0  0  0  0  0
  -15.0710    4.0701   26.7651 C   0  0  0  0  0  0  0  0  0  0  0  0
  -13.9872    4.0344   25.9370 C   0  0  0  0  0  0  0  0  0  0  0  0
  -11.6985    4.1025   24.3301 C   0  0  0  0  0  0  0  0  0  0  0  0
  -11.3839    3.1676   23.4396 C   0  0  0  0  0  0  0  0  0  0  0  0
  -11.4606    1.9298   23.5648 C   0  0  0  0  0  0  0  0  0  0  0  0
  -11.0691    1.0953   22.9532 C   0  0  0  0  0  0  0  0  0  0  0  0
  -10.4280    1.4148   21.6518 C   0  0  0  0  0  0  0  0  0  0  0  0
  -10.2673    2.7178   21.3428 C   0  0  0  0  0  0  0  0  0  0  0  0
  -10.6636    3.6920   22.2059 C   0  0  0  0  0  0  0  0  0  0  0  0
  -10.4739    5.3629   21.8838 Cl  0  0  0  0  0  0  0  0  0  0  0  0
  3  7  1  0
  2  8  1  0
 10 14  1  0
  6 15  1  0
 15 16  1  0
 15 22  1  6
 22 23  1  0
 28 29  1  0
 23 24  2  0
 24 25  1  0
 25 26  2  0
 26 27  1  0
 27 28  2  0
 28 23  1  0
 16 17  2  0
 17 18  1  0
 18 19  2  0
 19 20  1  0
 20 21  2  0
 21 16  1  0
  1  2  2  0
  2  5  1  0
  5  6  2  0
  6  4  1  0
  4  3  2  0
  3  1  1  0
  8  9  2  0
  9 10  1  0
 10 11  2  0
 11 13  1  0
 13 12  2  0
 12  8  1  0
M  END
$$$$
