No_5729-complexes_sdf/6BKW-FPZ/2024-09-17-14-21-01/
     RDKit          3D

 10 10  0  0  0  0  0  0  0  0999 V2000
   -7.2496    3.8871   27.4508 C   0  0  0  0  0  0  0  0  0  0  0  0
   -7.6161    2.7143   27.1523 C   0  0  0  0  0  0  0  0  0  0  0  0
   -8.6212    2.2239   26.4074 C   0  0  0  0  0  0  0  0  0  0  0  0
   -8.2540    4.9237   27.1711 C   0  0  0  0  0  0  0  0  0  0  0  0
   -9.3709    4.6018   26.4511 C   0  0  0  0  0  0  0  0  0  0  0  0
   -9.5662    3.3088   26.1054 C   0  0  0  0  0  0  0  0  0  0  0  0
   -7.9209    6.2215   27.5423 O   0  0  0  0  0  0  0  0  0  0  0  0
   -8.8795    0.8996   26.0574 C   0  0  0  0  0  0  0  0  0  0  0  0
   -9.3294    0.5970   24.9741 C   0  0  0  0  0  0  0  0  0  0  0  0
   -9.5929   -0.7754   24.5584 C   0  0  0  0  0  0  0  0  0  0  0  0
  4  7  1  0
  3  8  1  0
  8  9  2  3
  9 10  1  0
  1  2  2  0
  2  3  1  0
  3  6  2  0
  6  5  1  0
  5  4  2  0
  4  1  1  0
M  END
$$$$
