No_5359-complexes_sdf/6BKW-FPZ/2024-09-17-14-21-01/
     RDKit          3D

 16 17  0  0  0  0  0  0  0  0999 V2000
   -7.2496    3.8871   27.4508 C   0  0  0  0  0  0  0  0  0  0  0  0
   -7.9379    4.9063   27.8518 C   0  0  0  0  0  0  0  0  0  0  0  0
   -7.5112    6.1898   27.6280 C   0  0  0  0  0  0  0  0  0  0  0  0
   -7.8078    2.6331   27.2522 C   0  0  2  0  0  0  0  0  0  0  0  0
   -9.1846    2.4724   27.5426 C   0  0  0  0  0  0  0  0  0  0  0  0
   -9.9168    3.5155   28.0405 C   0  0  0  0  0  0  0  0  0  0  0  0
  -11.2899    3.3804   28.4254 C   0  0  0  0  0  0  0  0  0  0  0  0
   -9.3394    4.7979   28.2358 C   0  0  0  0  0  0  0  0  0  0  0  0
  -12.1835    4.3513   28.5009 C   0  0  0  0  0  0  0  0  0  0  0  0
  -13.5491    4.2186   28.8424 C   0  0  0  0  0  0  0  0  0  0  0  0
  -13.9373    2.9566   29.2671 C   0  0  0  0  0  0  0  0  0  0  0  0
  -13.0776    1.8699   29.2546 C   0  0  0  0  0  0  0  0  0  0  0  0
  -11.7658    2.0643   28.8778 C   0  0  0  0  0  0  0  0  0  0  0  0
   -7.0645    1.4374   26.8503 C   0  0  0  0  0  0  0  0  0  0  0  0
   -5.9746    1.1637   27.4856 O   0  0  0  0  0  0  0  0  0  0  0  0
   -7.5410    0.6264   26.0255 O   0  0  0  0  0  0  0  0  0  0  0  0
  1  2  1  0
  2  3  2  0
  1  4  1  0
  4  5  1  0
  5  6  1  0
  2  8  1  0
  6  8  1  0
  4 14  1  1
 14 15  2  0
 14 16  1  0
  6  7  1  0
  7  9  2  0
  9 10  1  0
 10 11  2  0
 11 12  1  0
 12 13  2  0
 13  7  1  0
M  END
$$$$
