No_5117-complexes_sdf/6BKW-FPZ/2024-09-17-14-21-01/
     RDKit          3D

 15 15  0  0  0  0  0  0  0  0999 V2000
   -7.7129    4.2099   27.0854 C   0  0  0  0  0  0  0  0  0  0  0  0
   -8.2112    3.0637   26.9225 C   0  0  0  0  0  0  0  0  0  0  0  0
   -8.4224    5.2106   27.8516 C   0  0  0  0  0  0  0  0  0  0  0  0
   -9.5628    2.7160   27.4089 C   0  0  0  0  0  0  0  0  0  0  0  0
  -10.2639    3.7034   28.1156 C   0  0  0  0  0  0  0  0  0  0  0  0
   -9.7059    4.9514   28.3169 C   0  0  0  0  0  0  0  0  0  0  0  0
  -11.6346    3.5858   28.6624 C   0  0  0  0  0  0  0  0  0  0  0  0
  -12.6920    4.2026   28.1801 C   0  0  0  0  0  0  0  0  0  0  0  0
  -12.6865    4.6893   26.9391 C   0  0  0  0  0  0  0  0  0  0  0  0
  -13.8669    4.3682   29.0160 C   0  0  0  0  0  0  0  0  0  0  0  0
  -10.1123    1.3879   27.2592 C   0  0  0  0  0  0  0  0  0  0  0  0
  -10.1723    0.8640   26.0654 C   0  0  0  0  0  0  0  0  0  0  0  0
   -9.7559    1.3791   25.0261 C   0  0  0  0  0  0  0  0  0  0  0  0
  -10.0119    1.3868   24.0410 C   0  0  0  0  0  0  0  0  0  0  0  0
   -9.5501    2.3022   22.9461 C   0  0  0  0  0  0  0  0  0  0  0  0
  5  7  1  0
  7  8  1  0
  8  9  1  0
  8 10  1  0
  4 11  1  0
 11 12  1  0
 12 13  2  3
 13 14  1  0
 14 15  2  0
  1  2  2  0
  2  4  1  0
  4  5  2  0
  5  6  1  0
  6  3  2  0
  3  1  1  0
M  END
$$$$
