No_5024-complexes_sdf/6BKW-FPZ/2024-09-17-14-21-01/
     RDKit          3D

 19 21  0  0  0  0  0  0  0  0999 V2000
   -7.7129    4.2099   27.0854 C   0  0  0  0  0  0  0  0  0  0  0  0
   -8.9133    4.4736   27.0998 C   0  0  0  0  0  0  0  0  0  0  0  0
   -9.4643    5.5426   27.7628 C   0  0  0  0  0  0  0  0  0  0  0  0
   -9.8091    3.6358   26.2841 C   0  0  2  0  0  0  0  0  0  0  0  0
  -10.3717    2.5594   26.9241 C   0  0  0  0  0  0  0  0  0  0  0  0
  -10.9894    1.7053   26.4703 C   0  0  0  0  0  0  0  0  0  0  0  0
   -7.1293    4.1054   28.3748 C   0  0  0  0  0  0  0  0  0  0  0  0
   -7.1167    5.5238   28.9191 C   0  0  0  0  0  0  0  0  0  0  0  0
   -8.1652    6.3161   28.1750 C   0  0  0  0  0  0  0  0  0  0  0  0
   -9.3125    3.3114   24.9368 C   0  0  0  0  0  0  0  0  0  0  0  0
  -10.1454    2.4166   24.1602 C   0  0  0  0  0  0  0  0  0  0  0  0
  -11.0178    2.0548   24.5108 C   0  0  0  0  0  0  0  0  0  0  0  0
  -11.4965    0.7242   27.7569 C   0  0  0  0  0  0  0  0  0  0  0  0
  -11.3783    1.1866   25.5581 C   0  0  0  0  0  0  0  0  0  0  0  0
  -12.6962    0.2692   27.9495 C   0  0  0  0  0  0  0  0  0  0  0  0
  -13.0125   -0.5109   29.0516 C   0  0  0  0  0  0  0  0  0  0  0  0
  -12.0149   -1.2773   29.6276 C   0  0  0  0  0  0  0  0  0  0  0  0
  -10.6637   -1.0256   29.3134 C   0  0  0  0  0  0  0  0  0  0  0  0
  -10.3516   -0.0485   28.3678 C   0  0  0  0  0  0  0  0  0  0  0  0
  1  2  1  0
  2  3  1  0
  4  2  1  1
  4  5  1  0
  5  6  2  0
  1  7  1  0
  7  8  1  0
  3  9  1  0
  8  9  1  0
  4 10  1  0
 10 11  1  0
 11 12  2  0
  6 13  1  0
  6 14  1  0
 12 14  1  0
 13 15  2  0
 15 16  1  0
 16 17  2  0
 17 18  1  0
 18 19  2  0
 19 13  1  0
M  END
$$$$
