No_5469-complexes_sdf/6BKW-FPZ/2024-09-17-14-21-01/
     RDKit          3D

 23 25  0  0  0  0  0  0  0  0999 V2000
   -7.7129    4.2099   27.0854 C   0  0  0  0  0  0  0  0  0  0  0  0
   -8.9133    4.4736   27.0998 C   0  0  0  0  0  0  0  0  0  0  0  0
   -9.4643    5.5426   27.7628 C   0  0  0  0  0  0  0  0  0  0  0  0
   -6.8373    4.9942   27.9785 C   0  0  0  0  0  0  0  0  0  0  0  0
   -7.5385    5.9425   28.6052 C   0  0  0  0  0  0  0  0  0  0  0  0
   -8.8005    6.3235   28.4826 C   0  0  0  0  0  0  0  0  0  0  0  0
   -9.7923    3.5791   26.1737 C   0  0  0  0  0  0  0  0  0  0  0  0
  -10.5360    2.6161   26.6268 C   0  0  0  0  0  0  0  0  0  0  0  0
  -10.8300    2.3585   27.8087 C   0  0  0  0  0  0  0  0  0  0  0  0
  -11.6419    1.5424   28.2556 C   0  0  0  0  0  0  0  0  0  0  0  0
  -12.1870    0.5876   27.4488 C   0  0  0  0  0  0  0  0  0  0  0  0
  -11.9365    0.6782   26.1167 C   0  0  0  0  0  0  0  0  0  0  0  0
  -11.1517    1.7078   25.6783 C   0  0  0  0  0  0  0  0  0  0  0  0
   -9.6939    3.9393   24.9005 O   0  0  0  0  0  0  0  0  0  0  0  0
  -13.0522   -0.4275   27.9473 N   0  0  0  0  0  0  0  0  0  0  0  0
  -13.6387   -0.3790   28.9695 C   0  0  2  0  0  0  0  0  0  0  0  0
  -13.9723    0.6659   29.5855 C   0  0  0  0  0  0  0  0  0  0  0  0
  -14.6810    0.5713   30.8870 C   0  0  0  0  0  0  0  0  0  0  0  0
  -14.8652   -0.6542   31.4187 C   0  0  0  0  0  0  0  0  0  0  0  0
  -14.0368   -1.5435   29.8492 C   0  0  1  0  0  0  0  0  0  0  0  0
  -13.0578   -1.6893   27.1911 C   0  0  0  0  0  0  0  0  0  0  0  0
  -14.6112   -1.7648   30.7788 N   0  0  0  0  0  0  0  0  0  0  0  0
  -14.8664   -3.0420   31.3614 C   0  0  0  0  0  0  0  0  0  0  0  0
  2  7  1  0
  7  8  1  0
  7 14  2  0
 11 15  1  0
 16 15  1  1
 16 17  1  0
 17 18  2  0
 18 19  1  0
 16 20  1  0
 19 20  1  0
 15 21  1  0
 20 22  1  6
 22 23  1  0
  1  2  2  0
  2  3  1  0
  3  6  2  0
  6  5  1  0
  5  4  2  0
  4  1  1  0
  8  9  2  0
  9 10  1  0
 10 11  2  0
 11 12  1  0
 12 13  2  0
 13  8  1  0
M  END
$$$$
