No_5465-complexes_sdf/6BKW-FPZ/2024-09-17-14-21-01/
     RDKit          3D

 26 30  0  0  0  0  0  0  0  0999 V2000
   -7.9040    3.9820   27.1177 C   0  0  0  0  0  0  0  0  0  0  0  0
   -7.8663    4.8694   27.9238 C   0  0  0  0  0  0  0  0  0  0  0  0
   -7.4547    2.7080   27.4594 C   0  0  0  0  0  0  0  0  0  0  0  0
   -7.9337    1.5946   26.8372 C   0  0  0  0  0  0  0  0  0  0  0  0
   -8.9032    1.7881   25.8510 C   0  0  0  0  0  0  0  0  0  0  0  0
   -9.3787    2.9871   25.5530 C   0  0  0  0  0  0  0  0  0  0  0  0
   -8.9781    4.0300   26.2200 C   0  0  0  0  0  0  0  0  0  0  0  0
   -8.2132    6.2312   27.6173 N   0  0  0  0  0  0  0  0  0  0  0  0
   -9.1014    6.5119   26.6241 C   0  0  0  0  0  0  0  0  0  0  0  0
   -9.5143    5.3947   25.8857 C   0  0  0  0  0  0  0  0  0  0  0  0
   -7.4823    0.1874   27.0252 C   0  0  2  0  0  0  0  0  0  0  0  0
   -6.2230   -0.0094   27.6195 C   0  0  0  0  0  0  0  0  0  0  0  0
   -5.7872   -1.2720   28.0000 C   0  0  0  0  0  0  0  0  0  0  0  0
   -4.5259   -1.4359   28.6382 C   0  0  0  0  0  0  0  0  0  0  0  0
   -3.7300   -0.2799   28.9340 C   0  0  0  0  0  0  0  0  0  0  0  0
   -4.2206    0.9853   28.5572 C   0  0  0  0  0  0  0  0  0  0  0  0
   -5.4050    1.1169   27.9665 C   0  0  0  0  0  0  0  0  0  0  0  0
   -7.7405   -0.6214   25.8542 C   0  0  2  0  0  0  0  0  0  0  0  0
   -7.4907   -1.8263   25.9578 C   0  0  0  0  0  0  0  0  0  0  0  0
   -6.2555   -2.2886   26.8905 C   0  0  2  0  0  0  0  0  0  0  0  0
   -2.6459   -0.3828   29.7227 O   0  0  0  0  0  0  0  0  0  0  0  0
   -8.5569   -0.2464   28.1173 C   0  0  0  0  0  0  0  0  0  0  0  0
   -1.8017   -1.3223   29.3320 C   0  0  0  0  0  0  0  0  0  0  0  0
   -8.0575   -0.0642   24.5970 C   0  0  0  0  0  0  0  0  0  0  0  0
   -8.9591    0.8803   24.7060 C   0  0  0  0  0  0  0  0  0  0  0  0
   -5.7483   -3.5974   26.9717 C   0  0  0  0  0  0  0  0  0  0  0  0
  4 11  1  0
 11 12  1  0
 11 18  1  0
 13 20  1  0
 19 20  1  0
 15 21  1  0
 11 22  1  1
 21 23  1  0
 18 24  1  6
  5 25  1  0
 24 25  1  0
 20 26  1  1
 19 18  1  0
  1  2  2  0
  2  8  1  0
  8  9  2  0
  9 10  1  0
 10  7  2  0
  1  3  1  0
  3  4  2  0
  4  5  1  0
  5  6  2  0
  6  7  1  0
  7  1  1  0
 12 17  2  0
 17 16  1  0
 16 15  2  0
 15 14  1  0
 14 13  2  0
 13 12  1  0
M  END
$$$$
