No_5088-complexes_sdf/6BKW-FPZ/2024-09-17-14-21-01/
     RDKit          3D

 27 30  0  0  0  0  0  0  0  0999 V2000
   -7.7129    4.2099   27.0854 C   0  0  0  0  0  0  0  0  0  0  0  0
   -7.7814    5.1722   27.8972 C   0  0  0  0  0  0  0  0  0  0  0  0
   -7.3155    2.9699   27.6145 C   0  0  0  0  0  0  0  0  0  0  0  0
   -7.6814    1.8188   26.9581 C   0  0  0  0  0  0  0  0  0  0  0  0
   -8.6377    1.9131   25.9324 C   0  0  0  0  0  0  0  0  0  0  0  0
   -9.1866    3.0673   25.6037 C   0  0  0  0  0  0  0  0  0  0  0  0
   -8.8394    4.1752   26.2513 C   0  0  0  0  0  0  0  0  0  0  0  0
   -8.2486    6.4747   27.5719 N   0  0  0  0  0  0  0  0  0  0  0  0
   -9.1525    6.6854   26.5919 C   0  0  0  0  0  0  0  0  0  0  0  0
   -9.4607    5.4864   25.8772 C   0  0  0  0  0  0  0  0  0  0  0  0
   -7.0245    0.5340   27.2725 C   0  0  0  0  0  0  0  0  0  0  0  0
   -5.9049    0.4646   27.9517 N   0  0  0  0  0  0  0  0  0  0  0  0
   -5.3963   -0.7563   28.2849 C   0  0  0  0  0  0  0  0  0  0  0  0
   -6.1250   -1.8202   28.0352 C   0  0  0  0  0  0  0  0  0  0  0  0
   -7.5313   -0.7878   27.2339 C   0  0  2  0  0  0  0  0  0  0  0  0
   -4.0468   -0.8273   28.9743 C   0  0  0  0  0  0  0  0  0  0  0  0
   -3.4808   -1.6300   29.3072 N   0  0  0  0  0  0  0  0  0  0  0  0
   -3.5067    0.5519   29.1482 N   0  0  0  0  0  0  0  0  0  0  0  0
   -2.2750   -1.1988   29.8730 C   0  0  0  0  0  0  0  0  0  0  0  0
   -2.3426    0.0416   29.7925 N   0  0  0  0  0  0  0  0  0  0  0  0
   -8.5801   -1.4865   26.7838 C   0  0  2  0  0  0  0  0  0  0  0  0
   -8.7127   -1.7569   25.2535 Cl  0  0  0  0  0  0  0  0  0  0  0  0
   -9.6335   -1.7884   27.7204 C   0  0  0  0  0  0  0  0  0  0  0  0
   -9.6273   -2.4353   28.7727 C   0  0  0  0  0  0  0  0  0  0  0  0
  -10.7584   -2.6171   29.6621 C   0  0  0  0  0  0  0  0  0  0  0  0
  -11.9451   -1.9936   29.2875 C   0  0  0  0  0  0  0  0  0  0  0  0
  -12.0249   -1.2252   28.1755 C   0  0  0  0  0  0  0  0  0  0  0  0
  4 11  1  0
 11 12  2  0
 12 13  1  0
 13 14  2  0
 11 15  1  0
 15 14  1  6
 13 16  1  0
 16 17  2  0
 16 18  1  0
 17 19  1  0
 18 20  2  0
 19 20  1  0
 15 21  1  0
 21 22  1  6
 21 23  1  0
 23 24  2  3
 24 25  1  0
 25 26  2  3
 26 27  1  0
  1  2  2  0
  2  8  1  0
  8  9  2  0
  9 10  1  0
 10  7  2  0
  1  3  1  0
  3  4  2  0
  4  5  1  0
  5  6  2  0
  6  7  1  0
  7  1  1  0
M  END
$$$$
