No_5982-complexes_sdf/6BKW-FPZ/2024-09-17-14-21-01/
     RDKit          3D

 15 16  0  0  0  0  0  0  0  0999 V2000
   -7.9040    3.9820   27.1177 C   0  0  0  0  0  0  0  0  0  0  0  0
   -9.0711    4.3164   27.0630 C   0  0  0  0  0  0  0  0  0  0  0  0
   -9.8698    3.9665   25.9494 C   0  0  0  0  0  0  0  0  0  0  0  0
   -7.0332    4.5030   28.2025 C   0  0  2  0  0  0  0  0  0  0  0  0
   -9.4357    2.9501   25.1393 C   0  0  0  0  0  0  0  0  0  0  0  0
   -8.2567    2.3218   25.4797 C   0  0  0  0  0  0  0  0  0  0  0  0
   -7.5105    2.7966   26.5752 C   0  0  0  0  0  0  0  0  0  0  0  0
  -10.2472    2.5204   24.0264 C   0  0  0  0  0  0  0  0  0  0  0  0
  -10.1048    1.3095   23.5388 C   0  0  0  0  0  0  0  0  0  0  0  0
   -9.2773    0.4049   24.2514 C   0  0  0  0  0  0  0  0  0  0  0  0
   -8.1702    0.9378   25.0115 C   0  0  0  0  0  0  0  0  0  0  0  0
   -7.4353    5.6616   28.8163 N   0  0  0  0  0  0  0  0  0  0  0  0
   -5.2195    4.0417   28.1824 Br  0  0  0  0  0  0  0  0  0  0  0  0
  -11.1762    3.2992   23.5358 F   0  0  0  0  0  0  0  0  0  0  0  0
   -6.9903   -0.0901   25.6804 Cl  0  0  0  0  0  0  0  0  0  0  0  0
  1  4  1  0
  4 12  1  6
  4 13  1  0
  8 14  1  0
 11 15  1  0
  6 11  1  0
 11 10  2  0
 10  9  1  0
  9  8  2  0
  8  5  1  0
  1  2  2  0
  2  3  1  0
  3  5  2  0
  5  6  1  0
  6  7  2  0
  7  1  1  0
M  END
$$$$
