No_5858-complexes_sdf/6BKW-FPZ/2024-09-17-14-21-01/
     RDKit          3D

 11 11  0  0  0  0  0  0  0  0999 V2000
   -7.2496    3.8871   27.4508 C   0  0  0  0  0  0  0  0  0  0  0  0
   -7.6161    2.7143   27.1523 C   0  0  0  0  0  0  0  0  0  0  0  0
   -8.6212    2.2239   26.4073 C   0  0  0  0  0  0  0  0  0  0  0  0
   -8.2540    4.9237   27.1711 C   0  0  0  0  0  0  0  0  0  0  0  0
   -9.3709    4.6018   26.4511 C   0  0  0  0  0  0  0  0  0  0  0  0
   -9.5922    3.3274   26.0949 C   0  0  0  0  0  0  0  0  0  0  0  0
   -7.9189    6.3259   27.5672 C   0  0  0  0  0  0  0  0  0  0  0  0
   -8.2013    7.3456   26.9602 N   0  0  0  0  0  0  0  0  0  0  0  0
   -9.0883    0.9462   26.0474 C   0  0  0  0  0  0  0  0  0  0  0  0
   -9.4877    0.6536   25.0064 C   0  0  0  0  0  0  0  0  0  0  0  0
   -9.8461   -0.7160   24.5852 C   0  0  0  0  0  0  0  0  0  0  0  0
  4  7  1  0
  7  8  1  0
  3  9  1  0
  9 10  2  3
 10 11  1  0
  1  2  2  0
  2  3  1  0
  3  6  2  0
  6  5  1  0
  5  4  2  0
  4  1  1  0
M  END
$$$$
