No_5212-complexes_sdf/6BKW-FPZ/2024-09-17-14-21-01/
     RDKit          3D

 11 12  0  0  0  0  0  0  0  0999 V2000
   -7.7129    4.2099   27.0854 C   0  0  0  0  0  0  0  0  0  0  0  0
   -7.7814    5.1722   27.8972 C   0  0  0  0  0  0  0  0  0  0  0  0
   -8.8998    3.8713   26.3707 C   0  0  0  0  0  0  0  0  0  0  0  0
   -9.7416    3.2213   26.9591 C   0  0  0  0  0  0  0  0  0  0  0  0
  -10.4037    4.0341   28.0402 C   0  0  0  0  0  0  0  0  0  0  0  0
  -11.6019    3.3299   28.6669 C   0  0  0  0  0  0  0  0  0  0  0  0
   -8.6050    6.1194   27.8696 C   0  0  0  0  0  0  0  0  0  0  0  0
  -10.0250    5.7206   27.3645 C   0  0  0  0  0  0  0  0  0  0  0  0
  -10.1418    1.8759   26.9849 C   0  0  0  0  0  0  0  0  0  0  0  0
  -11.2964    1.4539   27.5664 C   0  0  0  0  0  0  0  0  0  0  0  0
  -11.8907    2.2159   28.5804 C   0  0  0  0  0  0  0  0  0  0  0  0
  1  2  1  0
  1  3  1  0
  3  4  1  0
  2  7  1  0
  5  8  1  0
  7  8  1  0
  4  5  2  0
  5  6  1  0
  6 11  2  0
 11 10  1  0
 10  9  2  0
  9  4  1  0
M  END
$$$$
