No_5609-complexes_sdf/6BKW-FPZ/2024-09-17-14-21-01/
     RDKit          3D

 22 25  0  0  0  0  0  0  0  0999 V2000
   -7.7129    4.2099   27.0854 C   0  0  0  0  0  0  0  0  0  0  0  0
   -8.2112    3.0637   26.9225 C   0  0  0  0  0  0  0  0  0  0  0  0
   -8.5108    5.3904   26.9436 C   0  0  0  0  0  0  0  0  0  0  0  0
   -9.7256    5.1955   26.3518 C   0  0  0  0  0  0  0  0  0  0  0  0
   -9.4995    2.8258   26.4878 C   0  0  0  0  0  0  0  0  0  0  0  0
  -10.2542    3.9691   26.2055 C   0  0  0  0  0  0  0  0  0  0  0  0
   -7.8138    6.9227   27.2348 Cl  0  0  0  0  0  0  0  0  0  0  0  0
   -7.3640    1.8353   27.2492 C   0  0  0  0  0  0  0  0  0  0  0  0
   -6.0673    2.0156   27.7743 C   0  0  0  0  0  0  0  0  0  0  0  0
   -5.2518    0.8629   28.0582 C   0  0  0  0  0  0  0  0  0  0  0  0
   -5.7527   -0.3956   27.9078 C   0  0  0  0  0  0  0  0  0  0  0  0
   -7.7877    0.5260   27.1169 C   0  0  0  0  0  0  0  0  0  0  0  0
   -9.1506    0.3786   26.6888 C   0  0  0  0  0  0  0  0  0  0  0  0
   -7.0296   -0.5413   27.4989 C   0  0  0  0  0  0  0  0  0  0  0  0
   -9.9716    1.5136   26.3171 C   0  0  0  0  0  0  0  0  0  0  0  0
   -3.8621    1.1749   28.5550 C   0  0  0  0  0  0  0  0  0  0  0  0
   -2.9498    0.2256   28.3345 N   0  0  0  0  0  0  0  0  0  0  0  0
   -2.2129    0.2000   27.0986 C   0  0  0  0  0  0  0  0  0  0  0  0
   -2.5820   -0.7558   29.2519 C   0  0  0  0  0  0  0  0  0  0  0  0
   -1.6023   -1.6466   29.0037 C   0  0  0  0  0  0  0  0  0  0  0  0
   -2.1802   -0.9104   26.5145 C   0  0  0  0  0  0  0  0  0  0  0  0
   -1.4075   -1.9498   27.4566 C   0  0  0  0  0  0  0  0  0  0  0  0
  3  7  1  0
 10 16  1  0
 16 17  1  0
 17 18  1  0
 17 19  1  0
 18 21  1  0
 20 22  1  0
 21 22  1  0
 20 19  1  0
  8  9  2  0
  9 10  1  0
 10 11  2  0
 11 14  1  0
 14 12  2  0
  1  2  2  0
  5  6  2  0
  6  4  1  0
  4  3  2  0
  3  1  1  0
  2  5  1  0
  5 15  1  0
 15 13  2  0
 13 12  1  0
 12  8  1  0
  8  2  1  0
M  END
$$$$
