No_5940-complexes_sdf/6BKW-FPZ/2024-09-17-14-21-01/
     RDKit          3D

 40 44  0  0  0  0  0  0  0  0999 V2000
   -7.9040    3.9820   27.1177 C   0  0  0  0  0  0  0  0  0  0  0  0
   -9.0711    4.3164   27.0630 C   0  0  0  0  0  0  0  0  0  0  0  0
  -10.0395    3.8218   27.1938 C   0  0  0  0  0  0  0  0  0  0  0  0
   -7.6424    2.5858   27.3610 C   0  0  0  0  0  0  0  0  0  0  0  0
   -8.7741    1.7889   27.4566 C   0  0  0  0  0  0  0  0  0  0  0  0
  -10.0155    2.3581   27.4300 C   0  0  0  0  0  0  0  0  0  0  0  0
   -9.1463    5.9504   26.8742 C   0  0  0  0  0  0  0  0  0  0  0  0
   -8.6590    6.5068   25.6590 C   0  0  0  0  0  0  0  0  0  0  0  0
   -6.4300    2.0743   27.3161 F   0  0  0  0  0  0  0  0  0  0  0  0
  -11.2198    1.5142   27.7406 C   0  0  0  0  0  0  0  0  0  0  0  0
  -11.0891    0.2563   27.8256 C   0  0  0  0  0  0  0  0  0  0  0  0
  -12.2190   -0.5404   28.3179 C   0  0  0  0  0  0  0  0  0  0  0  0
  -13.3955    0.1517   28.5971 C   0  0  0  0  0  0  0  0  0  0  0  0
  -13.4742    1.4929   28.5004 C   0  0  0  0  0  0  0  0  0  0  0  0
  -12.3694    2.2532   28.1843 C   0  0  0  0  0  0  0  0  0  0  0  0
   -9.4561    6.8016   27.9087 C   0  0  0  0  0  0  0  0  0  0  0  0
  -14.8961   -0.9259   29.1232 Br  0  0  0  0  0  0  0  0  0  0  0  0
  -14.7511    2.2095   28.9211 C   0  0  2  0  0  0  0  0  0  0  0  0
  -14.7718    2.8623   30.0839 C   0  0  0  0  0  0  0  0  0  0  0  0
  -13.8789    3.0343   30.9431 C   0  0  0  0  0  0  0  0  0  0  0  0
  -13.9279    3.8322   32.1849 C   0  0  0  0  0  0  0  0  0  0  0  0
  -14.9812    4.7448   32.2760 C   0  0  0  0  0  0  0  0  0  0  0  0
  -15.9462    4.7415   31.2766 C   0  0  0  0  0  0  0  0  0  0  0  0
  -15.8456    3.9245   30.2077 C   0  0  0  0  0  0  0  0  0  0  0  0
  -15.9968    2.0212   27.8584 Cl  0  0  0  0  0  0  0  0  0  0  0  0
  -15.0045    5.5514   33.3709 O   0  0  0  0  0  0  0  0  0  0  0  0
  -14.0541    5.3786   34.3644 C   0  0  0  0  0  0  0  0  0  0  0  0
  -14.5652    4.8820   35.5704 C   0  0  0  0  0  0  0  0  0  0  0  0
  -13.6218    4.5875   36.5800 C   0  0  0  0  0  0  0  0  0  0  0  0
  -12.2104    4.8315   36.4456 C   0  0  0  0  0  0  0  0  0  0  0  0
  -11.8218    5.3234   35.1569 C   0  0  0  0  0  0  0  0  0  0  0  0
  -12.7164    5.5316   34.1967 C   0  0  0  0  0  0  0  0  0  0  0  0
  -11.2350    4.6161   37.5006 C   0  0  0  0  0  0  0  0  0  0  0  0
  -11.4023    3.7955   38.4648 N   0  0  0  0  0  0  0  0  0  0  0  0
  -10.5103    3.6926   39.4779 C   0  0  1  0  0  0  0  0  0  0  0  0
  -10.4334    2.5723   40.3615 C   0  0  0  0  0  0  0  0  0  0  0  0
   -9.4451    4.7350   39.6290 C   0  0  0  0  0  0  0  0  0  0  0  0
  -11.3775    1.6818   40.3681 C   0  0  0  0  0  0  0  0  0  0  0  0
  -12.2761    1.7526   39.2971 C   0  0  0  0  0  0  0  0  0  0  0  0
  -12.2786    2.7284   38.3355 C   0  0  0  0  0  0  0  0  0  0  0  0
  2  7  1  0
  7  8  1  0
  4  9  1  0
  6 10  1  0
  7 16  1  0
 13 17  1  0
 14 18  1  0
 18 19  1  0
 18 25  1  1
 22 26  1  0
 26 27  1  0
 30 33  1  0
 33 34  1  0
 34 35  1  0
 35 37  1  6
 36 38  1  0
 34 40  1  0
 39 40  1  0
 35 36  1  0
 38 39  1  0
  1  2  2  0
  2  3  1  0
  3  6  2  0
  6  5  1  0
  5  4  2  0
  4  1  1  0
 19 20  2  0
 20 21  1  0
 21 22  2  0
 22 23  1  0
 23 24  2  0
 24 19  1  0
 27 28  2  0
 28 29  1  0
 29 30  2  0
 30 31  1  0
 31 32  2  0
 32 27  1  0
 10 11  2  0
 11 12  1  0
 12 13  2  0
 13 14  1  0
 14 15  2  0
 15 10  1  0
M  END
$$$$
