No_529-complexes_sdf/6BKW-FPZ/2024-09-17-14-21-01/
     RDKit          3D

 40 44  0  0  0  0  0  0  0  0999 V2000
   -7.9040    3.9820   27.1177 C   0  0  1  0  0  0  0  0  0  0  0  0
   -8.2057    2.8231   26.8733 C   0  0  0  0  0  0  0  0  0  0  0  0
   -7.4766    1.7477   27.4593 C   0  0  0  0  0  0  0  0  0  0  0  0
   -8.7468    5.1251   26.6967 C   0  0  0  0  0  0  0  0  0  0  0  0
   -8.4775    6.4967   27.1056 C   0  0  1  0  0  0  0  0  0  0  0  0
   -6.4045    1.4903   27.1923 C   0  0  0  0  0  0  0  0  0  0  0  0
   -5.4047    1.1816   27.9679 C   0  0  0  0  0  0  0  0  0  0  0  0
   -5.5064    0.7375   29.2799 C   0  0  0  0  0  0  0  0  0  0  0  0
   -7.3374    6.4971   27.9134 N   0  0  0  0  0  0  0  0  0  0  0  0
   -6.9994    4.7562   28.0364 C   0  0  0  0  0  0  0  0  0  0  0  0
   -4.3845    0.3180   30.0736 C   0  0  0  0  0  0  0  0  0  0  0  0
   -4.5288   -0.1950   31.3608 C   0  0  2  0  0  0  0  0  0  0  0  0
   -3.3710   -0.3487   32.1541 C   0  0  0  0  0  0  0  0  0  0  0  0
   -2.7591   -1.1959   32.5301 C   0  0  0  0  0  0  0  0  0  0  0  0
   -3.2199   -2.5280   32.2704 C   0  0  0  0  0  0  0  0  0  0  0  0
   -2.6064   -3.6269   32.7028 C   0  0  0  0  0  0  0  0  0  0  0  0
   -9.1646    2.5210   25.8937 C   0  0  0  0  0  0  0  0  0  0  0  0
   -9.6886    1.4106   25.6744 C   0  0  0  0  0  0  0  0  0  0  0  0
   -9.5421    0.3755   26.6354 C   0  0  0  0  0  0  0  0  0  0  0  0
   -8.4906    0.5972   27.4013 C   0  0  0  0  0  0  0  0  0  0  0  0
   -3.8952    1.2545   27.6047 C   0  0  0  0  0  0  0  0  0  0  0  0
   -2.8892    0.8286   28.2923 N   0  0  0  0  0  0  0  0  0  0  0  0
   -3.0727    0.3712   29.5356 C   0  0  0  0  0  0  0  0  0  0  0  0
   -1.4369   -3.4831   33.4931 C   0  0  0  0  0  0  0  0  0  0  0  0
   -0.8890   -2.2386   33.7940 C   0  0  0  0  0  0  0  0  0  0  0  0
   -1.4870   -1.1353   33.3867 C   0  0  0  0  0  0  0  0  0  0  0  0
   -8.9765    7.6007   26.7680 N   0  0  0  0  0  0  0  0  0  0  0  0
   -5.7042   -0.7707   31.8861 C   0  0  0  0  0  0  0  0  0  0  0  0
  -10.9082    1.2654   24.7847 C   0  0  0  0  0  0  0  0  0  0  0  0
  -10.5592    0.7749   23.5506 C   0  0  0  0  0  0  0  0  0  0  0  0
  -11.4098    0.9490   22.5352 C   0  0  0  0  0  0  0  0  0  0  0  0
  -10.9968    0.5078   21.1880 C   0  0  0  0  0  0  0  0  0  0  0  0
   -9.8704   -0.1645   21.2024 C   0  0  0  0  0  0  0  0  0  0  0  0
   -9.3210    0.0914   22.8792 C   0  0  2  0  0  0  0  0  0  0  0  0
  -12.0309    1.5148   25.0537 O   0  0  0  0  0  0  0  0  0  0  0  0
   -8.1645   -0.3735   23.3925 C   0  0  0  0  0  0  0  0  0  0  0  0
   -8.0349   -0.8369   24.6308 C   0  0  0  0  0  0  0  0  0  0  0  0
   -6.8018   -1.4827   25.0649 C   0  0  0  0  0  0  0  0  0  0  0  0
   -6.9509   -0.3414   22.5861 C   0  0  0  0  0  0  0  0  0  0  0  0
   -5.7217   -0.8680   23.0659 C   0  0  0  0  0  0  0  0  0  0  0  0
  1  4  1  0
  4  5  1  0
  6  7  1  0
  5  9  1  0
  1 10  1  0
  9 10  2  0
 12 13  1  0
  5 27  1  6
 12 28  1  6
 18 29  1  0
 29 30  1  0
 30 31  2  0
 31 32  1  0
 32 33  2  0
 30 34  1  0
 33 34  1  0
 29 35  2  0
 34 36  1  1
 36 37  1  0
 37 38  2  0
 36 39  1  0
 39 40  1  0
  1  2  1  1
 12 11  1  0
 13 14  1  0
  6  3  1  0
  2  3  2  0
  3 20  1  0
 20 19  2  0
 19 18  1  0
 18 17  2  0
 17  2  1  0
  7  8  2  0
  8 11  1  0
 11 23  2  0
 23 22  1  0
 22 21  2  0
 21  7  1  0
 14 15  2  0
 15 16  1  0
 16 24  2  0
 24 25  1  0
 25 26  2  0
 26 14  1  0
M  END
$$$$
