No_5576-complexes_sdf/6BKW-FPZ/2024-09-17-14-21-01/
     RDKit          3D

 40 44  0  0  0  0  0  0  0  0999 V2000
   -7.7129    4.2099   27.0854 C   0  0  0  0  0  0  0  0  0  0  0  0
   -7.7814    5.1722   27.8972 C   0  0  0  0  0  0  0  0  0  0  0  0
   -7.2983    2.9533   27.5684 C   0  0  0  0  0  0  0  0  0  0  0  0
   -7.6908    1.8111   26.9553 C   0  0  0  0  0  0  0  0  0  0  0  0
   -7.2237    0.5782   27.3450 C   0  0  0  0  0  0  0  0  0  0  0  0
   -7.9192   -0.5866   27.0520 C   0  0  0  0  0  0  0  0  0  0  0  0
   -7.5882   -1.7802   27.5935 C   0  0  0  0  0  0  0  0  0  0  0  0
   -6.4870   -1.7936   28.4961 C   0  0  0  0  0  0  0  0  0  0  0  0
   -5.7294   -0.6899   28.7372 C   0  0  0  0  0  0  0  0  0  0  0  0
   -6.0679    0.5344   28.2263 C   0  0  0  0  0  0  0  0  0  0  0  0
   -8.5063    6.3398   27.5434 C   0  0  0  0  0  0  0  0  0  0  0  0
   -8.6357    1.8702   25.9146 C   0  0  0  0  0  0  0  0  0  0  0  0
   -9.4420    3.0284   25.6720 C   0  0  0  0  0  0  0  0  0  0  0  0
   -8.9346    4.1580   26.3057 C   0  0  0  0  0  0  0  0  0  0  0  0
   -9.5668    5.3975   26.0759 C   0  0  0  0  0  0  0  0  0  0  0  0
   -9.0651    6.2341   26.4429 C   0  0  0  0  0  0  0  0  0  0  0  0
   -4.5613   -0.9675   29.6205 C   0  0  0  0  0  0  0  0  0  0  0  0
   -3.5914   -0.1226   29.5435 O   0  0  0  0  0  0  0  0  0  0  0  0
   -4.3903   -2.0428   30.2950 N   0  0  0  0  0  0  0  0  0  0  0  0
   -3.4683   -2.0714   31.2388 C   0  0  0  0  0  0  0  0  0  0  0  0
   -3.6056   -1.1881   32.2825 C   0  0  0  0  0  0  0  0  0  0  0  0
   -2.5174   -0.8485   33.0144 C   0  0  0  0  0  0  0  0  0  0  0  0
   -1.3986   -1.6499   33.0802 C   0  0  0  0  0  0  0  0  0  0  0  0
   -1.2746   -2.6233   32.0850 C   0  0  0  0  0  0  0  0  0  0  0  0
   -2.3118   -2.7697   31.1773 C   0  0  0  0  0  0  0  0  0  0  0  0
   -0.3210   -1.3487   34.0802 C   0  0  0  0  0  0  0  0  0  0  0  0
   -0.3976   -1.9960   35.1126 O   0  0  0  0  0  0  0  0  0  0  0  0
    0.5300   -0.4036   33.8755 O   0  0  0  0  0  0  0  0  0  0  0  0
  -10.3589    2.9791   24.6280 C   0  0  0  0  0  0  0  0  0  0  0  0
  -10.0485    2.5781   23.3582 C   0  0  0  0  0  0  0  0  0  0  0  0
  -10.9635    2.5837   22.3123 C   0  0  0  0  0  0  0  0  0  0  0  0
  -12.1553    3.2170   22.4421 C   0  0  0  0  0  0  0  0  0  0  0  0
  -11.7009    3.4742   24.8452 C   0  0  0  0  0  0  0  0  0  0  0  0
  -12.5807    3.6362   23.7588 C   0  0  0  0  0  0  0  0  0  0  0  0
   -2.0937   -3.7562   30.0981 C   0  0  0  0  0  0  0  0  0  0  0  0
   -1.5794   -3.3767   28.9959 C   0  0  0  0  0  0  0  0  0  0  0  0
   -1.3409   -3.7036   27.9977 C   0  0  0  0  0  0  0  0  0  0  0  0
   -0.7837   -3.0184   26.7747 C   0  0  0  0  0  0  0  0  0  0  0  0
   -0.6467   -3.5495   25.5296 C   0  0  0  0  0  0  0  0  0  0  0  0
   -0.2194   -2.7770   24.4213 C   0  0  0  0  0  0  0  0  0  0  0  0
  4  5  1  0
  9 17  1  0
 17 18  2  0
 17 19  1  0
 19 20  1  0
 23 26  1  0
 26 27  2  0
 26 28  1  0
 13 29  1  0
 25 35  1  0
 35 36  2  3
 36 37  1  0
 37 38  2  3
 38 39  1  0
 39 40  2  0
  5  6  2  0
  6  7  1  0
  7  8  2  0
  8  9  1  0
  9 10  2  0
 10  5  1  0
  1  3  1  0
  3  4  2  0
  4 12  1  0
 12 13  2  0
 13 14  1  0
 29 30  2  0
 30 31  1  0
 31 32  2  0
 32 34  1  0
 34 33  2  0
 33 29  1  0
  1  2  2  0
  2 11  1  0
 11 16  2  0
 16 15  1  0
 15 14  2  0
 14  1  1  0
 20 21  2  0
 21 22  1  0
 22 23  2  0
 23 24  1  0
 24 25  2  0
 25 20  1  0
M  END
$$$$
