No_5363-complexes_sdf/6BKW-FPZ/2024-09-17-14-21-01/
     RDKit          3D

 12 13  0  0  0  0  0  0  0  0999 V2000
   -7.7129    4.2099   27.0854 C   0  0  0  0  0  0  0  0  0  0  0  0
   -8.2112    3.0637   26.9225 C   0  0  0  0  0  0  0  0  0  0  0  0
   -8.4224    5.2106   27.8516 C   0  0  0  0  0  0  0  0  0  0  0  0
   -9.5628    2.7160   27.4089 C   0  0  0  0  0  0  0  0  0  0  0  0
  -10.0598    1.3992   27.3077 C   0  0  0  0  0  0  0  0  0  0  0  0
   -9.7708    4.9875   28.2192 C   0  0  0  0  0  0  0  0  0  0  0  0
  -10.2729    3.7070   28.0678 C   0  0  0  0  0  0  0  0  0  0  0  0
   -9.1603    0.4332   27.1458 C   0  0  0  0  0  0  0  0  0  0  0  0
  -11.3937    1.1175   27.5808 C   0  0  0  0  0  0  0  0  0  0  0  0
   -9.4723   -0.9538   27.4085 C   0  0  0  0  0  0  0  0  0  0  0  0
  -11.7830   -0.2426   27.8338 C   0  0  0  0  0  0  0  0  0  0  0  0
  -10.8242   -1.2106   27.6910 C   0  0  0  0  0  0  0  0  0  0  0  0
  4  5  1  0
  1  2  2  0
  2  4  1  0
  4  7  2  0
  7  6  1  0
  6  3  2  0
  3  1  1  0
  5  8  2  0
  8 10  1  0
 10 12  2  0
 12 11  1  0
 11  9  2  0
  9  5  1  0
M  END
$$$$
