No_5867-complexes_sdf/6BKW-FPZ/2024-09-17-14-21-01/
     RDKit          3D

 23 25  0  0  0  0  0  0  0  0999 V2000
   -7.9040    3.9820   27.1177 C   0  0  0  0  0  0  0  0  0  0  0  0
   -7.8663    4.8694   27.9238 C   0  0  0  0  0  0  0  0  0  0  0  0
   -9.0501    3.8017   26.2617 C   0  0  0  0  0  0  0  0  0  0  0  0
   -9.1826    2.7026   25.3575 C   0  0  0  0  0  0  0  0  0  0  0  0
   -8.6940    6.0131   27.8614 C   0  0  0  0  0  0  0  0  0  0  0  0
   -9.9755    4.8547   26.2361 C   0  0  0  0  0  0  0  0  0  0  0  0
   -9.7463    5.9398   27.0364 C   0  0  0  0  0  0  0  0  0  0  0  0
   -8.6456    1.6397   25.6710 O   0  0  0  0  0  0  0  0  0  0  0  0
  -10.0385    2.7496   24.3756 O   0  0  0  0  0  0  0  0  0  0  0  0
  -10.7024    1.7551   23.9865 C   0  0  2  0  0  0  0  0  0  0  0  0
  -10.3940    1.1820   22.7752 C   0  0  0  0  0  0  0  0  0  0  0  0
  -10.0117    2.0942   21.7439 C   0  0  0  0  0  0  0  0  0  0  0  0
  -10.2888   -0.1598   22.4395 C   0  0  0  0  0  0  0  0  0  0  0  0
  -10.0837   -0.6483   21.1988 C   0  0  0  0  0  0  0  0  0  0  0  0
   -9.7266    1.6224   20.3984 C   0  0  0  0  0  0  0  0  0  0  0  0
   -9.7499    0.2865   20.1937 C   0  0  0  0  0  0  0  0  0  0  0  0
  -12.0806    1.4435   24.3366 C   0  0  0  0  0  0  0  0  0  0  0  0
  -12.9832    2.4040   24.0778 C   0  0  0  0  0  0  0  0  0  0  0  0
  -14.2885    2.2243   24.5045 C   0  0  0  0  0  0  0  0  0  0  0  0
  -12.2495    0.8416   25.6076 C   0  0  0  0  0  0  0  0  0  0  0  0
  -13.4926    0.6023   26.1773 C   0  0  0  0  0  0  0  0  0  0  0  0
  -14.5093    1.5161   25.7001 C   0  0  0  0  0  0  0  0  0  0  0  0
  -15.7832    1.4003   26.2030 O   0  0  0  0  0  0  0  0  0  0  0  0
  3  4  1  0
  4  8  2  0
  4  9  1  0
 10  9  1  6
 10 11  1  0
 10 17  1  0
 22 23  1  0
 11 12  2  0
 12 15  1  0
 15 16  2  0
 16 14  1  0
 14 13  2  0
 13 11  1  0
 17 18  2  0
 18 19  1  0
 19 22  2  0
 22 21  1  0
 21 20  2  0
 20 17  1  0
  1  2  2  0
  2  5  1  0
  5  7  2  0
  7  6  1  0
  6  3  2  0
  3  1  1  0
M  END
$$$$
