No_5768-complexes_sdf/6BKW-FPZ/2024-09-17-14-21-01/
     RDKit          3D

 32 35  0  0  0  0  0  0  0  0999 V2000
   -7.9040    3.9820   27.1177 C   0  0  0  0  0  0  0  0  0  0  0  0
   -8.2057    2.8231   26.8733 C   0  0  0  0  0  0  0  0  0  0  0  0
   -7.4766    1.7477   27.4593 C   0  0  0  0  0  0  0  0  0  0  0  0
   -8.7468    5.1251   26.6967 C   0  0  0  0  0  0  0  0  0  0  0  0
   -9.6471    4.9075   26.0510 C   0  0  0  0  0  0  0  0  0  0  0  0
  -10.0309    3.6580   25.5399 C   0  0  0  0  0  0  0  0  0  0  0  0
   -9.2845    2.5302   26.0222 C   0  0  0  0  0  0  0  0  0  0  0  0
   -6.6762    0.8978   26.7274 C   0  0  0  0  0  0  0  0  0  0  0  0
   -6.4944   -0.0838   27.2248 C   0  0  0  0  0  0  0  0  0  0  0  0
   -6.7339   -0.5537   28.3800 C   0  0  0  0  0  0  0  0  0  0  0  0
   -6.2538   -1.8120   28.9724 C   0  0  0  0  0  0  0  0  0  0  0  0
   -5.4499   -2.5420   28.1256 C   0  0  0  0  0  0  0  0  0  0  0  0
   -5.5013   -1.1574   26.6525 C   0  0  0  0  0  0  0  0  0  0  0  0
   -5.1389   -0.6528   25.2119 C   0  0  0  0  0  0  0  0  0  0  0  0
   -5.0345   -2.3121   27.0385 C   0  0  0  0  0  0  0  0  0  0  0  0
   -8.5723    6.5529   27.1301 C   0  0  0  0  0  0  0  0  0  0  0  0
   -8.7586    7.4449   26.4426 F   0  0  0  0  0  0  0  0  0  0  0  0
   -9.2668    6.6127   28.3543 F   0  0  0  0  0  0  0  0  0  0  0  0
   -7.2087    6.6997   27.6874 F   0  0  0  0  0  0  0  0  0  0  0  0
   -5.9598   -0.8134   24.2448 O   0  0  0  0  0  0  0  0  0  0  0  0
   -6.9771   -1.2872   24.3472 C   0  0  0  0  0  0  0  0  0  0  0  0
   -7.9262   -0.6139   23.4770 C   0  0  0  0  0  0  0  0  0  0  0  0
   -9.3355   -0.7480   23.8114 C   0  0  0  0  0  0  0  0  0  0  0  0
   -9.6330   -1.5885   24.8007 C   0  0  0  0  0  0  0  0  0  0  0  0
   -8.7184   -2.3111   25.5931 C   0  0  0  0  0  0  0  0  0  0  0  0
   -7.4517   -2.0900   25.3627 C   0  0  0  0  0  0  0  0  0  0  0  0
   -6.8655   -3.5589   25.0717 C   0  0  0  0  0  0  0  0  0  0  0  0
   -7.5025   -4.5928   25.5397 C   0  0  0  0  0  0  0  0  0  0  0  0
   -6.9052   -5.8394   25.4261 C   0  0  0  0  0  0  0  0  0  0  0  0
   -5.6948   -5.9942   24.7908 C   0  0  0  0  0  0  0  0  0  0  0  0
   -5.0152   -4.9096   24.2947 C   0  0  0  0  0  0  0  0  0  0  0  0
   -5.5703   -3.6823   24.4619 C   0  0  0  0  0  0  0  0  0  0  0  0
  2  3  1  0
  3  8  1  0
  8  9  1  0
 13 14  1  0
  4 16  1  0
 16 17  1  0
 16 18  1  0
 16 19  1  0
 14 20  1  0
 20 21  1  0
 26 27  1  0
  9 10  2  0
 10 11  1  0
 11 12  2  0
 12 15  1  0
 15 13  2  0
 13  9  1  0
 27 28  2  0
 28 29  1  0
 29 30  2  0
 30 31  1  0
 31 32  2  0
 32 27  1  0
  1  2  2  0
  2  7  1  0
  7  6  2  0
  6  5  1  0
  5  4  2  0
  4  1  1  0
 21 22  2  0
 22 23  1  0
 23 24  2  0
 24 25  1  0
 25 26  2  0
 26 21  1  0
M  END
$$$$
