No_5767-complexes_sdf/6BKW-FPZ/2024-09-17-14-21-01/
     RDKit          3D

 26 28  0  0  0  0  0  0  0  0999 V2000
   -7.7129    4.2099   27.0854 C   0  0  0  0  0  0  0  0  0  0  0  0
   -7.7814    5.1722   27.8972 C   0  0  0  0  0  0  0  0  0  0  0  0
   -7.3155    2.9699   27.6145 C   0  0  0  0  0  0  0  0  0  0  0  0
   -7.6814    1.8188   26.9581 C   0  0  0  0  0  0  0  0  0  0  0  0
   -8.6377    1.9131   25.9324 C   0  0  0  0  0  0  0  0  0  0  0  0
   -9.1866    3.0673   25.6037 C   0  0  0  0  0  0  0  0  0  0  0  0
   -8.8394    4.1752   26.2513 C   0  0  0  0  0  0  0  0  0  0  0  0
   -7.0681    5.2861   29.0037 N   0  0  0  0  0  0  0  0  0  0  0  0
   -8.3510    6.4681   27.6356 N   0  0  0  0  0  0  0  0  0  0  0  0
  -10.1579    2.8797   24.5165 C   0  0  0  0  0  0  0  0  0  0  0  0
  -10.8924    4.0581   24.1497 C   0  0  0  0  0  0  0  0  0  0  0  0
  -11.8128    4.0623   23.0844 C   0  0  0  0  0  0  0  0  0  0  0  0
  -11.8706    2.9462   22.2851 C   0  0  0  0  0  0  0  0  0  0  0  0
  -10.3129    1.8896   23.6245 C   0  0  0  0  0  0  0  0  0  0  0  0
  -11.1032    1.8780   22.5511 C   0  0  0  0  0  0  0  0  0  0  0  0
   -6.8858    0.6404   27.4096 C   0  0  0  0  0  0  0  0  0  0  0  0
   -7.6621   -0.5448   27.6315 C   0  0  0  0  0  0  0  0  0  0  0  0
   -8.9235   -0.6600   27.4652 C   0  0  0  0  0  0  0  0  0  0  0  0
   -9.6077   -1.4752   27.9871 C   0  0  0  0  0  0  0  0  0  0  0  0
   -9.0384   -2.6129   28.6380 C   0  0  0  0  0  0  0  0  0  0  0  0
   -7.7111   -2.6434   28.8201 C   0  0  0  0  0  0  0  0  0  0  0  0
   -6.9632   -1.5361   28.4653 C   0  0  0  0  0  0  0  0  0  0  0  0
   -5.6690    0.7484   27.5348 F   0  0  0  0  0  0  0  0  0  0  0  0
   -7.7175    7.4621   27.2814 C   0  0  0  0  0  0  0  0  0  0  0  0
   -9.7389    6.6323   27.8400 C   0  0  0  0  0  0  0  0  0  0  0  0
   -8.3381    8.5798   26.6894 N   0  0  0  0  0  0  0  0  0  0  0  0
  1  2  1  0
  2  8  2  0
  2  9  1  0
  6 10  1  0
  4 16  1  0
 16 17  1  0
 16 23  1  0
  9 24  1  0
  9 25  1  0
 24 26  1  0
 17 18  2  0
 18 19  1  0
 19 20  2  0
 20 21  1  0
 21 22  2  0
 22 17  1  0
 10 11  2  0
 11 12  1  0
 12 13  2  0
 13 15  1  0
 15 14  2  0
 14 10  1  0
  1  3  2  0
  3  4  1  0
  4  5  2  0
  5  6  1  0
  6  7  2  0
  7  1  1  0
M  END
$$$$
