No_5417-complexes_sdf/6BKW-FPZ/2024-09-17-14-21-01/
     RDKit          3D

 21 23  0  0  0  0  0  0  0  0999 V2000
   -7.7129    4.2099   27.0854 C   0  0  0  0  0  0  0  0  0  0  0  0
   -8.9133    4.4736   27.0998 C   0  0  0  0  0  0  0  0  0  0  0  0
   -9.4643    5.5426   27.7628 C   0  0  0  0  0  0  0  0  0  0  0  0
   -7.2009    2.9448   26.6134 C   0  0  0  0  0  0  0  0  0  0  0  0
   -8.1365    1.9533   26.2981 C   0  0  0  0  0  0  0  0  0  0  0  0
   -9.4501    2.2651   26.2497 C   0  0  0  0  0  0  0  0  0  0  0  0
   -9.8615    3.4703   26.6763 C   0  0  0  0  0  0  0  0  0  0  0  0
   -7.5002    0.4413   25.8299 Cl  0  0  0  0  0  0  0  0  0  0  0  0
  -10.3787    1.2468   25.7712 C   0  0  0  0  0  0  0  0  0  0  0  0
  -10.7820    0.2032   26.4504 C   0  0  0  0  0  0  0  0  0  0  0  0
  -10.9071    0.2911   27.7611 C   0  0  0  0  0  0  0  0  0  0  0  0
  -11.6728   -0.0166   28.3485 C   0  0  0  0  0  0  0  0  0  0  0  0
  -12.5550   -1.0935   27.9738 C   0  0  0  0  0  0  0  0  0  0  0  0
  -12.5077   -1.3799   26.6172 C   0  0  0  0  0  0  0  0  0  0  0  0
  -11.6580   -0.6703   25.8131 C   0  0  0  0  0  0  0  0  0  0  0  0
   -9.9376    0.8852   24.3050 C   0  0  0  0  0  0  0  0  0  0  0  0
  -10.9829    1.2039   23.4100 C   0  0  0  0  0  0  0  0  0  0  0  0
  -10.7188    0.8308   22.1152 C   0  0  0  0  0  0  0  0  0  0  0  0
   -9.4193    0.2972   21.7079 C   0  0  0  0  0  0  0  0  0  0  0  0
   -8.4386    0.1158   22.6449 C   0  0  0  0  0  0  0  0  0  0  0  0
   -8.7339    0.3890   23.9578 C   0  0  0  0  0  0  0  0  0  0  0  0
  5  8  1  0
  6  9  1  0
  9 10  1  0
  9 16  1  0
  3  2  1  0
  1  2  2  0
  2  7  1  0
  7  6  2  0
  6  5  1  0
  5  4  2  0
  4  1  1  0
 10 11  2  0
 11 12  1  0
 12 13  2  0
 13 14  1  0
 14 15  2  0
 15 10  1  0
 16 17  2  0
 17 18  1  0
 18 19  2  0
 19 20  1  0
 20 21  2  0
 21 16  1  0
M  END
$$$$
