No_578-complexes_sdf/6BKW-FPZ/2024-09-17-14-21-01/
     RDKit          3D

 24 26  0  0  0  0  0  0  0  0999 V2000
   -7.9040    3.9820   27.1177 C   0  0  0  0  0  0  0  0  0  0  0  0
   -7.8663    4.8694   27.9238 C   0  0  0  0  0  0  0  0  0  0  0  0
   -9.0501    3.8017   26.2617 C   0  0  0  0  0  0  0  0  0  0  0  0
  -10.0189    4.7608   26.3707 C   0  0  0  0  0  0  0  0  0  0  0  0
   -8.6973    5.9722   27.8968 C   0  0  0  0  0  0  0  0  0  0  0  0
   -9.8216    5.8946   27.1241 C   0  0  0  0  0  0  0  0  0  0  0  0
   -8.9544    2.5594   25.4484 C   0  0  0  0  0  0  0  0  0  0  0  0
   -9.6764    2.5304   24.3915 N   0  0  0  0  0  0  0  0  0  0  0  0
   -9.7020    1.4764   23.5334 C   0  0  0  0  0  0  0  0  0  0  0  0
   -8.0589    1.7711   25.6487 O   0  0  0  0  0  0  0  0  0  0  0  0
  -10.9009    0.7420   23.5080 C   0  0  0  0  0  0  0  0  0  0  0  0
  -10.9533   -0.3581   22.7510 C   0  0  0  0  0  0  0  0  0  0  0  0
   -9.8506   -0.7495   21.8670 C   0  0  0  0  0  0  0  0  0  0  0  0
   -8.6947    0.0345   21.8902 C   0  0  0  0  0  0  0  0  0  0  0  0
   -8.5901    1.1270   22.7340 C   0  0  0  0  0  0  0  0  0  0  0  0
   -9.8913   -1.8833   20.9608 C   0  0  1  0  0  0  0  0  0  0  0  0
   -8.7638   -3.0231   20.9129 Cl  0  0  0  0  0  0  0  0  0  0  0  0
  -11.1967   -2.3800   20.9400 C   0  0  0  0  0  0  0  0  0  0  0  0
  -11.8799   -2.2571   19.9559 N   0  0  0  0  0  0  0  0  0  0  0  0
  -13.1535   -2.3677   19.7617 C   0  0  0  0  0  0  0  0  0  0  0  0
  -13.7493   -2.1258   18.5144 C   0  0  0  0  0  0  0  0  0  0  0  0
  -11.3377   -1.5631   18.7318 C   0  0  0  0  0  0  0  0  0  0  0  0
  -11.8689   -1.3193   17.5526 C   0  0  0  0  0  0  0  0  0  0  0  0
  -13.1946   -1.5566   17.4860 C   0  0  0  0  0  0  0  0  0  0  0  0
  3  7  1  0
  7  8  1  0
  8  9  1  0
  7 10  2  0
 13 16  1  0
 16 17  1  1
 16 18  1  0
 18 19  1  0
 19 20  1  0
 19 22  1  0
 21 24  1  0
 23 24  1  0
 20 21  1  0
 23 22  1  0
  1  2  2  0
  2  5  1  0
  5  6  2  0
  6  4  1  0
  4  3  2  0
  3  1  1  0
  9 11  2  0
 11 12  1  0
 12 13  2  0
 13 14  1  0
 14 15  2  0
 15  9  1  0
M  END
$$$$
