No_5785-complexes_sdf/6BKW-FPZ/2024-09-17-14-21-01/
     RDKit          3D

 18 20  0  0  0  0  0  0  0  0999 V2000
   -7.7129    4.2099   27.0854 C   0  0  0  0  0  0  0  0  0  0  0  0
   -8.2112    3.0637   26.9225 C   0  0  0  0  0  0  0  0  0  0  0  0
   -7.0021    4.5281   28.2396 C   0  0  0  0  0  0  0  0  0  0  0  0
   -7.5497    1.9016   27.4549 C   0  0  0  0  0  0  0  0  0  0  0  0
   -8.0831    0.6050   27.2852 C   0  0  0  0  0  0  0  0  0  0  0  0
   -9.3847    0.5379   26.8015 C   0  0  0  0  0  0  0  0  0  0  0  0
  -10.0898    1.6195   26.3689 C   0  0  0  0  0  0  0  0  0  0  0  0
   -9.4935    2.8855   26.3990 C   0  0  0  0  0  0  0  0  0  0  0  0
   -8.4282    5.3501   26.4864 C   0  0  0  0  0  0  0  0  0  0  0  0
   -8.1324    6.7275   26.9078 C   0  0  0  0  0  0  0  0  0  0  0  0
   -6.8072    5.9069   28.7250 C   0  0  0  0  0  0  0  0  0  0  0  0
   -7.3323    6.9157   28.0107 C   0  0  0  0  0  0  0  0  0  0  0  0
  -11.7935    1.3539   25.6018 Br  0  0  0  0  0  0  0  0  0  0  0  0
   -7.2636   -0.6987   27.9651 Cl  0  0  0  0  0  0  0  0  0  0  0  0
   -8.7042    7.7018   26.2733 F   0  0  0  0  0  0  0  0  0  0  0  0
   -9.2080    5.2074   25.4902 O   0  0  0  0  0  0  0  0  0  0  0  0
   -9.8629    3.9167   25.4207 C   0  0  0  0  0  0  0  0  0  0  0  0
  -10.7655    3.8457   24.5832 O   0  0  0  0  0  0  0  0  0  0  0  0
  1  2  1  0
  7 13  1  0
  5 14  1  0
 10 15  1  0
  9 16  1  0
  8 17  1  0
 16 17  1  0
 17 18  2  0
  1  3  2  0
  3 11  1  0
 11 12  2  0
 12 10  1  0
 10  9  2  0
  9  1  1  0
  2  4  2  0
  4  5  1  0
  5  6  2  0
  6  7  1  0
  7  8  2  0
  8  2  1  0
M  END
$$$$
