No_5315-complexes_sdf/6BKW-FPZ/2024-09-17-14-21-01/
     RDKit          3D

 13 13  0  0  0  0  0  0  0  0999 V2000
   -7.7129    4.2099   27.0854 C   0  0  0  0  0  0  0  0  0  0  0  0
   -8.9133    4.4736   27.0998 C   0  0  0  0  0  0  0  0  0  0  0  0
   -9.4643    5.5426   27.7628 C   0  0  0  0  0  0  0  0  0  0  0  0
   -9.8091    3.6358   26.2841 C   0  0  0  0  0  0  0  0  0  0  0  0
  -10.5514    4.0993   25.5100 C   0  0  0  0  0  0  0  0  0  0  0  0
   -6.9699    4.5961   28.3750 C   0  0  0  0  0  0  0  0  0  0  0  0
  -10.6055    3.8467   24.3313 C   0  0  0  0  0  0  0  0  0  0  0  0
  -11.4525    4.5421   23.3102 C   0  0  0  0  0  0  0  0  0  0  0  0
   -7.2533    5.9392   28.7727 C   0  0  0  0  0  0  0  0  0  0  0  0
   -8.6668    6.3027   28.6237 C   0  0  0  0  0  0  0  0  0  0  0  0
   -9.5983    2.2335   26.2804 C   0  0  0  0  0  0  0  0  0  0  0  0
   -9.6499    1.5897   25.0020 C   0  0  0  0  0  0  0  0  0  0  0  0
   -9.3316    0.2821   24.7926 C   0  0  0  0  0  0  0  0  0  0  0  0
  2  4  1  0
  4  5  1  0
  5  7  2  3
  7  8  1  0
  4 11  1  0
 11 12  2  3
 12 13  1  0
  1  2  2  0
  2  3  1  0
  3 10  2  0
 10  9  1  0
  9  6  2  0
  6  1  1  0
M  END
$$$$
