No_521-complexes_sdf/6BKW-FPZ/2024-09-17-14-21-01/
     RDKit          3D

  9  9  0  0  0  0  0  0  0  0999 V2000
   -7.7129    4.2099   27.0854 C   0  0  0  0  0  0  0  0  0  0  0  0
   -7.7814    5.1722   27.8972 C   0  0  0  0  0  0  0  0  0  0  0  0
   -8.8998    3.8713   26.3707 C   0  0  0  0  0  0  0  0  0  0  0  0
   -9.1401    2.5906   25.9433 C   0  0  0  0  0  0  0  0  0  0  0  0
   -8.7502    6.2483   27.7275 C   0  0  0  0  0  0  0  0  0  0  0  0
   -8.4757    1.5199   26.5917 C   0  0  0  0  0  0  0  0  0  0  0  0
   -8.6643    0.1960   26.1541 C   0  0  0  0  0  0  0  0  0  0  0  0
   -9.8872    5.9880   26.9437 C   0  0  0  0  0  0  0  0  0  0  0  0
   -9.9641    4.7780   26.2803 C   0  0  0  0  0  0  0  0  0  0  0  0
  3  4  1  0
  4  6  2  3
  6  7  1  0
  1  2  2  0
  2  5  1  0
  5  8  2  0
  8  9  1  0
  9  3  2  0
  3  1  1  0
M  END
$$$$
