No_5944-complexes_sdf/6BKW-FPZ/2024-09-17-14-21-01/
     RDKit          3D

 14 15  0  0  0  0  0  0  0  0999 V2000
   -7.7129    4.2099   27.0854 C   0  0  0  0  0  0  0  0  0  0  0  0
   -8.9133    4.4736   27.0998 C   0  0  0  0  0  0  0  0  0  0  0  0
   -9.7134    3.9633   26.0300 C   0  0  0  0  0  0  0  0  0  0  0  0
   -7.2726    3.1259   27.1802 C   0  0  0  0  0  0  0  0  0  0  0  0
   -8.0645    2.0767   26.4520 C   0  0  0  0  0  0  0  0  0  0  0  0
   -9.2637    2.5587   25.9425 C   0  0  0  0  0  0  0  0  0  0  0  0
   -5.7598    2.5246   27.7923 Cl  0  0  0  0  0  0  0  0  0  0  0  0
  -10.0752    1.5559   25.1971 C   0  0  0  0  0  0  0  0  0  0  0  0
   -9.6058    0.5208   24.8656 C   0  0  0  0  0  0  0  0  0  0  0  0
  -10.3297   -0.4428   24.1727 C   0  0  0  0  0  0  0  0  0  0  0  0
  -11.6082   -0.0808   23.6824 C   0  0  0  0  0  0  0  0  0  0  0  0
  -11.3778    1.9321   24.6893 C   0  0  0  0  0  0  0  0  0  0  0  0
  -12.1425    1.0857   24.0007 C   0  0  0  0  0  0  0  0  0  0  0  0
   -9.1208    6.2001   27.1567 C   0  0  0  0  0  0  0  0  0  0  0  0
  4  7  1  0
  6  8  1  0
  2 14  1  0
  1  2  2  0
  2  3  1  0
  3  6  2  0
  6  5  1  0
  5  4  2  0
  4  1  1  0
  8  9  2  0
  9 10  1  0
 10 11  2  0
 11 13  1  0
 13 12  2  0
 12  8  1  0
M  END
$$$$
