No_5710-complexes_sdf/6BKW-FPZ/2024-09-17-14-21-01/
     RDKit          3D

  9  9  0  0  0  0  0  0  0  0999 V2000
   -7.2496    3.8871   27.4508 C   0  0  0  0  0  0  0  0  0  0  0  0
   -8.5096    4.0291   27.2770 C   0  0  0  0  0  0  0  0  0  0  0  0
   -9.3451    2.8786   26.9046 C   0  0  0  0  0  0  0  0  0  0  0  0
   -6.7783    2.5578   27.6995 C   0  0  0  0  0  0  0  0  0  0  0  0
   -7.4604    1.4534   27.3217 C   0  0  0  0  0  0  0  0  0  0  0  0
  -10.7045    3.0469   26.5924 C   0  0  0  0  0  0  0  0  0  0  0  0
   -8.7830    1.6698   27.0230 C   0  0  0  0  0  0  0  0  0  0  0  0
  -11.3891    4.0840   26.6544 C   0  0  0  0  0  0  0  0  0  0  0  0
  -12.7772    4.2212   26.4084 C   0  0  0  0  0  0  0  0  0  0  0  0
  3  6  1  0
  6  8  2  3
  8  9  1  0
  1  2  2  0
  2  3  1  0
  3  7  2  0
  7  5  1  0
  5  4  2  0
  4  1  1  0
M  END
$$$$
