No_5749-complexes_sdf/6BKW-FPZ/2024-09-17-14-21-01/
     RDKit          3D

 34 37  0  0  0  0  0  0  0  0999 V2000
   -7.9040    3.9820   27.1177 C   0  0  0  0  0  0  0  0  0  0  0  0
   -7.8663    4.8694   27.9238 C   0  0  0  0  0  0  0  0  0  0  0  0
   -9.0501    3.8017   26.2617 C   0  0  0  0  0  0  0  0  0  0  0  0
   -9.1826    2.7026   25.3575 C   0  0  0  0  0  0  0  0  0  0  0  0
   -8.6940    6.0131   27.8614 C   0  0  0  0  0  0  0  0  0  0  0  0
   -9.9755    4.8547   26.2361 C   0  0  0  0  0  0  0  0  0  0  0  0
   -9.7463    5.9398   27.0365 C   0  0  0  0  0  0  0  0  0  0  0  0
   -8.7003    1.4603   25.7662 C   0  0  0  0  0  0  0  0  0  0  0  0
   -9.8809    2.8005   24.1386 C   0  0  0  0  0  0  0  0  0  0  0  0
   -8.6915    0.3746   24.9240 C   0  0  0  0  0  0  0  0  0  0  0  0
   -9.9405    1.7036   23.3139 C   0  0  0  0  0  0  0  0  0  0  0  0
   -9.3303    0.5136   23.7037 C   0  0  0  0  0  0  0  0  0  0  0  0
   -9.4172   -0.6576   22.7555 C   0  0  0  0  0  0  0  0  0  0  0  0
  -10.1253   -0.5995   21.6558 C   0  0  0  0  0  0  0  0  0  0  0  0
  -10.2128   -1.6903   20.7957 C   0  0  0  0  0  0  0  0  0  0  0  0
   -9.4107   -2.7939   21.0242 C   0  0  0  0  0  0  0  0  0  0  0  0
   -8.6066   -1.8547   22.9012 C   0  0  0  0  0  0  0  0  0  0  0  0
   -8.6258   -2.8558   22.0907 C   0  0  0  0  0  0  0  0  0  0  0  0
   -9.5712   -3.8240   20.0898 O   0  0  0  0  0  0  0  0  0  0  0  0
   -9.9358   -3.8322   19.0205 C   0  0  0  0  0  0  0  0  0  0  0  0
   -9.3362   -3.3351   18.0200 C   0  0  0  0  0  0  0  0  0  0  0  0
   -9.8187   -3.1822   16.6633 C   0  0  0  0  0  0  0  0  0  0  0  0
  -11.0541   -3.7255   16.4481 C   0  0  0  0  0  0  0  0  0  0  0  0
  -11.2215   -4.3231   18.6658 C   0  0  0  0  0  0  0  0  0  0  0  0
  -11.7404   -4.2849   17.4502 C   0  0  0  0  0  0  0  0  0  0  0  0
  -11.6699   -3.7098   14.8300 Cl  0  0  0  0  0  0  0  0  0  0  0  0
   -7.0462    2.9479   27.2313 F   0  0  0  0  0  0  0  0  0  0  0  0
  -12.9439   -4.8284   17.1321 O   0  0  0  0  0  0  0  0  0  0  0  0
  -13.8509   -5.1069   17.9823 C   0  0  0  0  0  0  0  0  0  0  0  0
  -13.8907   -6.4611   18.4479 C   0  0  0  0  0  0  0  0  0  0  0  0
  -13.3331   -7.4287   17.8337 C   0  0  0  0  0  0  0  0  0  0  0  0
  -13.3424   -8.7917   18.3190 C   0  0  0  0  0  0  0  0  0  0  0  0
  -14.0629   -8.9974   19.5150 C   0  0  0  0  0  0  0  0  0  0  0  0
  -14.6748   -8.0200   20.1815 C   0  0  0  0  0  0  0  0  0  0  0  0
  3  4  1  0
 12 13  1  0
 16 19  1  0
 19 20  1  0
 23 26  1  0
  1 27  1  0
 25 28  1  0
 28 29  1  0
 29 30  2  3
 30 31  1  0
 31 32  2  3
 32 33  1  0
 33 34  2  0
 20 21  2  0
 21 22  1  0
 22 23  2  0
 23 25  1  0
 25 24  2  0
 24 20  1  0
  4  8  2  0
  8 10  1  0
 10 12  2  0
 12 11  1  0
 11  9  2  0
  9  4  1  0
 13 14  2  0
 14 15  1  0
 15 16  2  0
 16 18  1  0
 18 17  2  0
 17 13  1  0
  1  2  2  0
  2  5  1  0
  5  7  2  0
  7  6  1  0
  6  3  2  0
  3  1  1  0
M  END
$$$$
