No_5052-complexes_sdf/6BKW-FPZ/2024-09-17-14-21-01/
     RDKit          3D

 16 17  0  0  0  0  0  0  0  0999 V2000
   -7.7129    4.2099   27.0854 C   0  0  0  0  0  0  0  0  0  0  0  0
   -7.7814    5.1722   27.8972 C   0  0  0  0  0  0  0  0  0  0  0  0
   -8.8776    3.8408   26.3416 C   0  0  0  0  0  0  0  0  0  0  0  0
   -9.9844    4.6492   26.4743 C   0  0  0  0  0  0  0  0  0  0  0  0
   -8.8033    6.1375   27.8728 C   0  0  0  0  0  0  0  0  0  0  0  0
   -9.9554    5.8280   27.1736 C   0  0  0  0  0  0  0  0  0  0  0  0
   -9.0965    2.6519   25.5788 C   0  0  0  0  0  0  0  0  0  0  0  0
   -8.4143    1.4797   26.0376 C   0  0  0  0  0  0  0  0  0  0  0  0
   -8.3832    0.3429   25.2764 C   0  0  0  0  0  0  0  0  0  0  0  0
   -9.0494    0.3963   24.0432 C   0  0  0  0  0  0  0  0  0  0  0  0
   -9.6222    2.5870   24.3410 C   0  0  0  0  0  0  0  0  0  0  0  0
   -9.6219    1.5426   23.5818 C   0  0  0  0  0  0  0  0  0  0  0  0
   -9.0168   -0.8463   23.1768 C   0  0  0  0  0  0  0  0  0  0  0  0
   -9.8318   -1.7278   23.5337 N   0  0  0  0  0  0  0  0  0  0  0  0
  -10.1695   -2.7524   23.0115 C   0  0  0  0  0  0  0  0  0  0  0  0
  -11.0716   -3.6721   23.5027 C   0  0  0  0  0  0  0  0  0  0  0  0
  3  7  1  0
 10 13  1  0
 13 14  1  0
 14 15  1  0
 15 16  2  0
  7  8  2  0
  8  9  1  0
  9 10  2  0
 10 12  1  0
 12 11  2  0
 11  7  1  0
  1  2  2  0
  2  5  1  0
  5  6  2  0
  6  4  1  0
  4  3  2  0
  3  1  1  0
M  END
$$$$
