No_5978-complexes_sdf/6BKW-FPZ/2024-09-17-14-21-01/
     RDKit          3D

 14 16  0  0  0  0  0  0  0  0999 V2000
   -7.9040    3.9820   27.1177 C   0  0  0  0  0  0  0  0  0  0  0  0
   -7.8663    4.8694   27.9238 C   0  0  0  0  0  0  0  0  0  0  0  0
   -9.0806    3.1428   27.1220 C   0  0  0  0  0  0  0  0  0  0  0  0
   -8.9544    1.8782   26.5467 C   0  0  0  0  0  0  0  0  0  0  0  0
   -8.9948    5.7403   28.1705 C   0  0  0  0  0  0  0  0  0  0  0  0
   -7.8336    1.3009   26.2700 C   0  0  0  0  0  0  0  0  0  0  0  0
  -10.2425    5.0867   27.9491 C   0  0  0  0  0  0  0  0  0  0  0  0
  -10.2488    3.7682   27.4018 C   0  0  0  0  0  0  0  0  0  0  0  0
  -10.1565    1.1490   26.3440 C   0  0  0  0  0  0  0  0  0  0  0  0
   -7.7406   -0.0101   25.7953 C   0  0  0  0  0  0  0  0  0  0  0  0
  -10.0746   -0.1735   25.8575 C   0  0  0  0  0  0  0  0  0  0  0  0
   -8.8520   -0.7262   25.6122 C   0  0  0  0  0  0  0  0  0  0  0  0
  -11.5234    3.1066   27.2545 C   0  0  0  0  0  0  0  0  0  0  0  0
  -11.4384    1.7213   26.8130 C   0  0  0  0  0  0  0  0  0  0  0  0
  4  6  1  0
  6 10  2  0
 10 12  1  0
 12 11  2  0
 11  9  1  0
  1  2  2  0
  2  5  1  0
  5  7  2  0
  7  8  1  0
  3  1  1  0
  3  4  2  0
  4  9  1  0
  9 14  2  0
 14 13  1  0
 13  8  2  0
  8  3  1  0
M  END
$$$$
