No_5542-complexes_sdf/6BKW-FPZ/2024-09-17-14-21-01/
     RDKit          3D

 12 12  0  0  0  0  0  0  0  0999 V2000
   -7.2496    3.8871   27.4508 C   0  0  0  0  0  0  0  0  0  0  0  0
   -7.9379    4.9063   27.8518 C   0  0  0  0  0  0  0  0  0  0  0  0
   -9.3376    4.8647   27.7795 C   0  0  0  0  0  0  0  0  0  0  0  0
   -7.8544    2.6294   27.0414 C   0  0  0  0  0  0  0  0  0  0  0  0
   -9.2852    2.6570   27.0666 C   0  0  0  0  0  0  0  0  0  0  0  0
  -10.1181    6.0955   28.1802 C   0  0  0  0  0  0  0  0  0  0  0  0
  -10.0705    3.7682   27.4229 C   0  0  0  0  0  0  0  0  0  0  0  0
   -7.1200    1.5040   26.7244 C   0  0  0  0  0  0  0  0  0  0  0  0
   -7.3213    0.4767   27.3268 O   0  0  0  0  0  0  0  0  0  0  0  0
   -6.0509    1.5750   26.0812 O   0  0  0  0  0  0  0  0  0  0  0  0
   -5.1374    0.5362   26.2493 C   0  0  0  0  0  0  0  0  0  0  0  0
   -5.7618   -0.7138   25.7669 C   0  0  0  0  0  0  0  0  0  0  0  0
  3  6  1  0
  4  8  1  0
  8  9  2  0
  8 10  1  0
 10 11  1  0
 11 12  1  0
  1  2  2  0
  2  3  1  0
  3  7  2  0
  7  5  1  0
  5  4  2  0
  4  1  1  0
M  END
$$$$
