No_5587-complexes_sdf/6BKW-FPZ/2024-09-17-14-21-01/
     RDKit          3D

 33 36  0  0  0  0  0  0  0  0999 V2000
   -7.2496    3.8871   27.4508 C   0  0  0  0  0  0  0  0  0  0  0  0
   -7.9379    4.9063   27.8518 C   0  0  0  0  0  0  0  0  0  0  0  0
   -9.3376    4.8647   27.7795 C   0  0  0  0  0  0  0  0  0  0  0  0
   -7.8544    2.6294   27.0414 C   0  0  0  0  0  0  0  0  0  0  0  0
   -9.2665    2.6175   27.0340 C   0  0  0  0  0  0  0  0  0  0  0  0
   -9.9836    3.7042   27.4150 C   0  0  0  0  0  0  0  0  0  0  0  0
   -9.9053    1.3367   26.6546 C   0  0  0  0  0  0  0  0  0  0  0  0
  -10.5453    0.7121   27.6210 C   0  0  0  0  0  0  0  0  0  0  0  0
  -10.9793   -0.6129   27.5217 C   0  0  0  0  0  0  0  0  0  0  0  0
  -10.7455   -1.2324   26.3464 C   0  0  0  0  0  0  0  0  0  0  0  0
   -9.4914    0.6641   25.5077 C   0  0  0  0  0  0  0  0  0  0  0  0
   -9.9788   -0.6374   25.3283 C   0  0  0  0  0  0  0  0  0  0  0  0
  -11.4456    3.6350   27.4952 C   0  0  0  0  0  0  0  0  0  0  0  0
  -12.1052    4.0755   26.4242 C   0  0  0  0  0  0  0  0  0  0  0  0
  -12.1395    3.3913   28.7289 C   0  0  0  0  0  0  0  0  0  0  0  0
  -13.2289    3.3155   28.9608 C   0  0  0  0  0  0  0  0  0  0  0  0
  -13.9040    3.0343   30.2161 C   0  0  0  0  0  0  0  0  0  0  0  0
  -13.5827    4.0593   26.6016 C   0  0  0  0  0  0  0  0  0  0  0  0
  -14.1237    3.7686   27.8591 C   0  0  0  0  0  0  0  0  0  0  0  0
  -13.7260    3.8040   31.2660 C   0  0  0  0  0  0  0  0  0  0  0  0
  -14.1453    3.5399   32.6269 C   0  0  0  0  0  0  0  0  0  0  0  0
  -14.7538    2.3321   32.8464 C   0  0  0  0  0  0  0  0  0  0  0  0
  -14.2732    1.7267   30.5859 C   0  0  0  0  0  0  0  0  0  0  0  0
  -14.7992    1.3740   31.8181 C   0  0  0  0  0  0  0  0  0  0  0  0
   -7.4156    6.0584   28.4133 N   0  0  0  0  0  0  0  0  0  0  0  0
  -11.2545   -2.5836   26.0961 C   0  0  0  0  0  0  0  0  0  0  0  0
  -11.0687   -3.5325   26.7437 O   0  0  0  0  0  0  0  0  0  0  0  0
  -12.0963   -2.7385   25.0331 O   0  0  0  0  0  0  0  0  0  0  0  0
  -14.0290    4.5978   33.6740 C   0  0  0  0  0  0  0  0  0  0  0  0
  -12.9840    5.1364   33.5733 F   0  0  0  0  0  0  0  0  0  0  0  0
  -14.0921    3.9426   34.8553 F   0  0  0  0  0  0  0  0  0  0  0  0
  -15.0490    5.4250   33.5109 F   0  0  0  0  0  0  0  0  0  0  0  0
  -14.3857    0.8507   29.5854 F   0  0  0  0  0  0  0  0  0  0  0  0
  5  7  1  0
  6 13  1  0
 16 17  1  0
  2 25  1  0
 10 26  1  0
 26 27  2  0
 26 28  1  0
 21 29  1  0
 29 30  1  0
 29 31  1  0
 29 32  1  0
 23 33  1  0
  7  8  2  0
  8  9  1  0
  9 10  2  0
 10 12  1  0
 12 11  2  0
 11  7  1  0
 17 20  2  0
 20 21  1  0
 21 22  2  0
 22 24  1  0
 24 23  2  0
 23 17  1  0
  1  2  2  0
  2  3  1  0
  3  6  2  0
  6  5  1  0
  5  4  2  0
  4  1  1  0
 13 14  2  0
 14 18  1  0
 18 19  2  0
 19 16  1  0
 16 15  2  0
 15 13  1  0
M  END
$$$$
