No_5243-complexes_sdf/6BKW-FPZ/2024-09-17-14-21-01/
     RDKit          3D

 22 24  0  0  0  0  0  0  0  0999 V2000
   -7.9040    3.9820   27.1177 C   0  0  0  0  0  0  0  0  0  0  0  0
   -9.0711    4.3164   27.0630 C   0  0  0  0  0  0  0  0  0  0  0  0
   -9.5294    5.4517   27.7215 C   0  0  0  0  0  0  0  0  0  0  0  0
   -7.4336    2.7132   26.5681 C   0  0  0  0  0  0  0  0  0  0  0  0
   -8.3353    1.8569   26.0442 C   0  0  0  0  0  0  0  0  0  0  0  0
   -9.6477    2.2853   25.9146 C   0  0  0  0  0  0  0  0  0  0  0  0
  -10.0346    3.4497   26.4483 C   0  0  0  0  0  0  0  0  0  0  0  0
   -7.8608    0.5626   25.5840 C   0  0  0  0  0  0  0  0  0  0  0  0
   -8.3357    0.1574   24.4374 N   0  0  0  0  0  0  0  0  0  0  0  0
   -9.0252    0.7745   23.6109 C   0  0  0  0  0  0  0  0  0  0  0  0
   -7.5375   -0.9265   23.8092 C   0  0  0  0  0  0  0  0  0  0  0  0
   -9.3228    0.3526   22.2847 C   0  0  0  0  0  0  0  0  0  0  0  0
   -7.8072   -1.4517   22.5615 C   0  0  0  0  0  0  0  0  0  0  0  0
   -8.6919   -0.7527   21.7868 C   0  0  0  0  0  0  0  0  0  0  0  0
   -6.6268    4.8408   28.0495 Cl  0  0  0  0  0  0  0  0  0  0  0  0
  -10.3113    1.0559   21.4249 C   0  0  0  0  0  0  0  0  0  0  0  0
  -10.4329    2.4416   21.5779 C   0  0  0  0  0  0  0  0  0  0  0  0
  -11.2801    3.1771   20.7534 C   0  0  0  0  0  0  0  0  0  0  0  0
  -12.0268    2.4818   19.7565 C   0  0  0  0  0  0  0  0  0  0  0  0
  -10.9841    0.4730   20.4374 C   0  0  0  0  0  0  0  0  0  0  0  0
  -11.8475    1.1494   19.6104 C   0  0  0  0  0  0  0  0  0  0  0  0
   -7.1426   -0.0777   26.4151 O   0  0  0  0  0  0  0  0  0  0  0  0
  5  8  1  0
  8  9  1  0
  9 10  1  0
  9 11  1  0
 12 14  1  0
 13 14  1  0
  1 15  1  0
 12 16  1  0
  8 22  2  0
  3  2  1  0
 10 12  1  0
 13 11  1  0
  1  2  2  0
  2  7  1  0
  7  6  2  0
  6  5  1  0
  5  4  2  0
  4  1  1  0
 16 17  2  0
 17 18  1  0
 18 19  2  0
 19 21  1  0
 21 20  2  0
 20 16  1  0
M  END
$$$$
