No_5546-complexes_sdf/6BKW-FPZ/2024-09-17-14-21-01/
     RDKit          3D

 23 26  0  0  0  0  0  0  0  0999 V2000
   -7.9040    3.9820   27.1177 C   0  0  0  0  0  0  0  0  0  0  0  0
   -9.0711    4.3164   27.0630 C   0  0  0  0  0  0  0  0  0  0  0  0
   -9.8698    3.9665   25.9495 C   0  0  0  0  0  0  0  0  0  0  0  0
   -7.0332    4.5030   28.2025 C   0  0  0  0  0  0  0  0  0  0  0  0
  -10.9909    4.7237   25.5958 C   0  0  0  0  0  0  0  0  0  0  0  0
   -7.5840    5.4918   28.9036 N   0  0  0  0  0  0  0  0  0  0  0  0
  -11.6517    5.1679   26.7607 C   0  0  0  0  0  0  0  0  0  0  0  0
  -11.0925    5.2111   28.0330 C   0  0  0  0  0  0  0  0  0  0  0  0
   -9.7770    4.8942   28.1775 C   0  0  0  0  0  0  0  0  0  0  0  0
   -8.9699    5.5858   28.9821 C   0  0  0  0  0  0  0  0  0  0  0  0
   -5.7788    4.3246   28.2128 F   0  0  0  0  0  0  0  0  0  0  0  0
  -11.7095    4.3716   24.3844 C   0  0  0  0  0  0  0  0  0  0  0  0
  -10.9855    4.6791   23.1520 C   0  0  0  0  0  0  0  0  0  0  0  0
  -11.5648    4.4649   21.8763 C   0  0  0  0  0  0  0  0  0  0  0  0
  -12.8614    3.9599   21.8240 C   0  0  0  0  0  0  0  0  0  0  0  0
  -12.9268    3.9811   24.1627 C   0  0  0  0  0  0  0  0  0  0  0  0
  -13.5654    3.8350   22.9693 C   0  0  0  0  0  0  0  0  0  0  0  0
  -14.9795    3.3845   22.8473 C   0  0  0  0  0  0  0  0  0  0  0  0
  -15.6221    2.8083   23.8313 C   0  0  0  0  0  0  0  0  0  0  0  0
  -16.9666    2.4167   23.7177 C   0  0  0  0  0  0  0  0  0  0  0  0
  -17.5807    2.6067   22.4961 C   0  0  0  0  0  0  0  0  0  0  0  0
  -16.9386    3.2015   21.4679 C   0  0  0  0  0  0  0  0  0  0  0  0
  -15.6144    3.6691   21.5993 C   0  0  0  0  0  0  0  0  0  0  0  0
  4 11  1  0
  5 12  1  0
 17 18  1  0
 12 13  2  0
 13 14  1  0
 14 15  2  0
 15 17  1  0
 17 16  2  0
 16 12  1  0
  2  3  1  0
  3  5  2  0
  5  7  1  0
  7  8  2  0
  8  9  1  0
 18 19  2  0
 19 20  1  0
 20 21  2  0
 21 22  1  0
 22 23  2  0
 23 18  1  0
  1  2  2  0
  2  9  1  0
  9 10  2  0
 10  6  1  0
  6  4  2  0
  4  1  1  0
M  END
$$$$
