No_5153-complexes_sdf/6BKW-FPZ/2024-09-17-14-21-01/
     RDKit          3D

 40 45  0  0  0  0  0  0  0  0999 V2000
   -7.9040    3.9820   27.1177 C   0  0  0  0  0  0  0  0  0  0  0  0
   -9.0711    4.3164   27.0630 C   0  0  0  0  0  0  0  0  0  0  0  0
   -9.5182    5.5541   27.5777 C   0  0  0  0  0  0  0  0  0  0  0  0
   -6.9424    4.7983   27.8424 C   0  0  0  0  0  0  0  0  0  0  0  0
   -7.3526    5.9739   28.3909 C   0  0  0  0  0  0  0  0  0  0  0  0
   -8.6479    6.3742   28.2169 C   0  0  0  0  0  0  0  0  0  0  0  0
  -10.0793    3.4689   26.3368 C   0  0  0  0  0  0  0  0  0  0  0  0
   -9.6567    2.5965   25.4484 C   0  0  0  0  0  0  0  0  0  0  0  0
   -8.2649    2.4937   25.2884 C   0  0  0  0  0  0  0  0  0  0  0  0
   -7.9021    1.4103   24.5833 C   0  0  0  0  0  0  0  0  0  0  0  0
   -7.3912    2.9552   26.3082 N   0  0  0  0  0  0  0  0  0  0  0  0
   -8.2899    0.3125   24.4595 N   0  0  0  0  0  0  0  0  0  0  0  0
   -7.7493   -0.6080   23.6113 C   0  0  0  0  0  0  0  0  0  0  0  0
   -8.1021   -0.9622   22.4604 C   0  0  0  0  0  0  0  0  0  0  0  0
   -9.2166   -0.4111   21.9077 C   0  0  0  0  0  0  0  0  0  0  0  0
  -10.3577   -0.9287   21.8212 C   0  0  0  0  0  0  0  0  0  0  0  0
  -11.5320   -0.2652   21.2370 C   0  0  0  0  0  0  0  0  0  0  0  0
  -11.3580    1.0473   20.8032 C   0  0  0  0  0  0  0  0  0  0  0  0
  -10.1584    1.7037   20.9313 C   0  0  0  0  0  0  0  0  0  0  0  0
   -9.0981    1.0955   21.4833 C   0  0  0  0  0  0  0  0  0  0  0  0
   -9.4501   -0.2896   25.1640 C   0  0  0  0  0  0  0  0  0  0  0  0
   -6.4617   -1.2136   24.2117 C   0  0  0  0  0  0  0  0  0  0  0  0
   -5.7442   -0.5939   25.0245 N   0  0  0  0  0  0  0  0  0  0  0  0
   -6.0761   -2.3831   23.6957 N   0  0  0  0  0  0  0  0  0  0  0  0
   -4.6349   -1.2745   25.5573 C   0  0  0  0  0  0  0  0  0  0  0  0
   -6.7702   -3.1242   22.7736 C   0  0  0  0  0  0  0  0  0  0  0  0
   -7.6774   -2.2654   21.8423 C   0  0  0  0  0  0  0  0  0  0  0  0
   -4.0313   -0.4789   26.6429 C   0  0  0  0  0  0  0  0  0  0  0  0
   -2.7184   -0.2657   26.6687 C   0  0  0  0  0  0  0  0  0  0  0  0
   -2.0895    0.5976   27.6092 C   0  0  0  0  0  0  0  0  0  0  0  0
   -2.9539    0.6509   28.7913 C   0  0  0  0  0  0  0  0  0  0  0  0
   -4.2903    0.3618   28.8492 C   0  0  0  0  0  0  0  0  0  0  0  0
   -4.7817   -0.2363   27.7625 C   0  0  0  0  0  0  0  0  0  0  0  0
  -10.6056   -0.6163   24.6508 C   0  0  0  0  0  0  0  0  0  0  0  0
  -11.7319   -0.9894   25.4358 C   0  0  0  0  0  0  0  0  0  0  0  0
  -12.9733   -1.2995   24.8415 C   0  0  0  0  0  0  0  0  0  0  0  0
  -11.6260   -0.9774   26.8694 C   0  0  0  0  0  0  0  0  0  0  0  0
  -12.6179   -1.1161   27.7171 C   0  0  0  0  0  0  0  0  0  0  0  0
  -14.0942   -1.5196   25.7370 C   0  0  0  0  0  0  0  0  0  0  0  0
  -13.9160   -1.4513   27.1292 C   0  0  0  0  0  0  0  0  0  0  0  0
  9 10  1  0
 10 12  1  0
 12 13  1  0
 14 15  1  0
 12 21  1  0
 22 23  1  0
 23 25  2  3
 25 28  1  0
 21 34  2  3
 34 35  1  0
 15 16  2  0
 16 17  1  0
 17 18  2  0
 18 19  1  0
 19 20  2  0
 20 15  1  0
  2  3  2  0
  3  6  1  0
  6  5  2  0
  5  4  1  0
  4  1  2  0
 35 36  2  0
 36 39  1  0
 39 40  2  0
 40 38  1  0
 38 37  2  0
 37 35  1  0
 13 14  1  0
 14 27  2  0
 27 26  1  0
 26 24  2  0
 24 22  1  0
 22 13  2  0
 28 29  2  0
 29 30  1  0
 30 31  2  0
 31 32  1  0
 32 33  2  0
 33 28  1  0
  1  2  1  0
  2  7  1  0
  7  8  2  0
  8  9  1  0
  9 11  2  0
 11  1  1  0
M  END
$$$$
