No_5420-complexes_sdf/6BKW-FPZ/2024-09-17-14-21-01/
     RDKit          3D

 40 44  0  0  0  0  0  0  0  0999 V2000
   -7.9040    3.9820   27.1177 C   0  0  0  0  0  0  0  0  0  0  0  0
   -7.8663    4.8694   27.9238 C   0  0  0  0  0  0  0  0  0  0  0  0
   -9.0501    3.8017   26.2617 C   0  0  0  0  0  0  0  0  0  0  0  0
   -9.1826    2.7026   25.3575 C   0  0  0  0  0  0  0  0  0  0  0  0
   -8.6940    6.0131   27.8614 C   0  0  0  0  0  0  0  0  0  0  0  0
   -9.9755    4.8547   26.2361 C   0  0  0  0  0  0  0  0  0  0  0  0
   -9.7463    5.9398   27.0364 C   0  0  0  0  0  0  0  0  0  0  0  0
  -10.1068    2.7543   24.3357 C   0  0  0  0  0  0  0  0  0  0  0  0
  -10.2724    1.6570   23.4902 C   0  0  0  0  0  0  0  0  0  0  0  0
   -9.3561    0.5430   23.6390 C   0  0  0  0  0  0  0  0  0  0  0  0
   -8.3767    1.5070   25.4460 C   0  0  0  0  0  0  0  0  0  0  0  0
   -8.4591    0.5113   24.6225 C   0  0  0  0  0  0  0  0  0  0  0  0
   -9.3994   -0.6591   22.7517 C   0  0  0  0  0  0  0  0  0  0  0  0
   -9.9344   -0.7318   21.6762 C   0  0  0  0  0  0  0  0  0  0  0  0
  -10.7208    0.4095   21.1590 C   0  0  0  0  0  0  0  0  0  0  0  0
  -10.8442    1.5618   22.0698 C   0  0  0  0  0  0  0  0  0  0  0  0
  -11.6573    2.7211   21.6486 C   0  0  0  0  0  0  0  0  0  0  0  0
  -12.6664    2.7402   22.1115 C   0  0  0  0  0  0  0  0  0  0  0  0
  -11.0281    3.6222   20.7561 C   0  0  0  0  0  0  0  0  0  0  0  0
  -13.6382    3.8202   21.7454 C   0  0  0  0  0  0  0  0  0  0  0  0
  -13.2689    1.9679   23.0143 F   0  0  0  0  0  0  0  0  0  0  0  0
  -14.8024    4.0596   22.5014 C   0  0  2  0  0  0  0  0  0  0  0  0
  -14.6322    4.3013   23.8155 C   0  0  0  0  0  0  0  0  0  0  0  0
  -14.9706    3.9651   24.7131 C   0  0  0  0  0  0  0  0  0  0  0  0
  -14.6247    4.3798   26.1569 C   0  0  0  0  0  0  0  0  0  0  0  0
  -14.1198    3.7620   27.1971 C   0  0  0  0  0  0  0  0  0  0  0  0
  -13.6575    4.3845   28.3608 C   0  0  0  0  0  0  0  0  0  0  0  0
  -12.9846    3.7028   29.3845 C   0  0  0  0  0  0  0  0  0  0  0  0
  -12.5999    2.3514   29.1551 C   0  0  0  0  0  0  0  0  0  0  0  0
  -12.9157    1.7405   27.9830 C   0  0  0  0  0  0  0  0  0  0  0  0
  -13.2969    2.6104   26.9473 C   0  0  0  0  0  0  0  0  0  0  0  0
  -15.9691    2.8550   24.8934 C   0  0  0  0  0  0  0  0  0  0  0  0
  -15.9496    1.9729   25.4807 C   0  0  0  0  0  0  0  0  0  0  0  0
  -17.0017    0.9161   25.5086 C   0  0  0  0  0  0  0  0  0  0  0  0
  -17.9424    1.1340   24.5964 C   0  0  0  0  0  0  0  0  0  0  0  0
  -17.9620    2.1942   23.7633 C   0  0  0  0  0  0  0  0  0  0  0  0
  -17.0239    3.0815   23.9141 C   0  0  0  0  0  0  0  0  0  0  0  0
  -16.0159    3.6863   21.9496 C   0  0  0  0  0  0  0  0  0  0  0  0
  -16.2642    3.7681   20.5840 C   0  0  0  0  0  0  0  0  0  0  0  0
  -17.6840    4.1645   23.7984 F   0  0  0  0  0  0  0  0  0  0  0  0
  3  4  1  0
 16 17  1  0
 17 18  1  0
 17 19  1  0
 18 20  1  0
 18 21  1  0
 22 20  1  1
 22 23  1  0
 23 24  2  3
 24 25  1  0
 25 26  1  0
 24 32  1  0
 22 38  1  0
 38 39  1  0
 37 40  1  0
 10 13  2  0
 13 14  1  0
 14 15  2  0
 15 16  1  0
 16  9  2  0
 32 33  2  0
 33 34  1  0
 34 35  2  0
 35 36  1  0
 36 37  2  0
 37 32  1  0
  4  8  2  0
  8  9  1  0
  9 10  1  0
 10 12  1  0
 12 11  2  0
 11  4  1  0
 26 27  2  0
 27 28  1  0
 28 29  2  0
 29 30  1  0
 30 31  2  0
 31 26  1  0
  1  2  2  0
  2  5  1  0
  5  7  2  0
  7  6  1  0
  6  3  2  0
  3  1  1  0
M  END
$$$$
