No_5838-complexes_sdf/6BKW-FPZ/2024-09-17-14-21-01/
     RDKit          3D

 36 40  0  0  0  0  0  0  0  0999 V2000
   -7.9040    3.9820   27.1177 C   0  0  0  0  0  0  0  0  0  0  0  0
   -8.2057    2.8231   26.8733 C   0  0  0  0  0  0  0  0  0  0  0  0
   -7.0130    4.3706   28.1140 C   0  0  0  0  0  0  0  0  0  0  0  0
   -9.3829    2.4374   26.1668 C   0  0  0  0  0  0  0  0  0  0  0  0
  -10.0975    3.4171   25.5988 C   0  0  0  0  0  0  0  0  0  0  0  0
   -9.7335    4.7745   25.7705 C   0  0  0  0  0  0  0  0  0  0  0  0
   -8.7317    5.1107   26.5933 C   0  0  0  0  0  0  0  0  0  0  0  0
   -8.3983    6.4679   26.8933 C   0  0  0  0  0  0  0  0  0  0  0  0
   -7.3346    6.7850   27.7126 C   0  0  0  0  0  0  0  0  0  0  0  0
   -6.7763    5.7820   28.3880 C   0  0  0  0  0  0  0  0  0  0  0  0
   -7.4283    1.6440   27.4607 C   0  0  0  0  0  0  0  0  0  0  0  0
   -6.0458    1.7685   27.6513 C   0  0  0  0  0  0  0  0  0  0  0  0
   -5.2968    0.6829   28.1524 C   0  0  0  0  0  0  0  0  0  0  0  0
   -3.9461    0.8539   28.5759 C   0  0  0  0  0  0  0  0  0  0  0  0
   -5.7314   -0.6525   27.8071 C   0  0  0  0  0  0  0  0  0  0  0  0
   -3.2166   -0.1519   29.1945 C   0  0  0  0  0  0  0  0  0  0  0  0
   -6.9339   -0.8693   27.3164 C   0  0  0  0  0  0  0  0  0  0  0  0
   -7.9093    0.2631   27.1612 C   0  0  0  0  0  0  0  0  0  0  0  0
   -3.3238   -1.3691   28.9246 C   0  0  0  0  0  0  0  0  0  0  0  0
   -4.7769   -1.6869   28.3985 C   0  0  0  0  0  0  0  0  0  0  0  0
  -11.2101    3.1173   24.6663 C   0  0  0  0  0  0  0  0  0  0  0  0
  -12.4015    2.9869   25.1402 C   0  0  0  0  0  0  0  0  0  0  0  0
  -10.9644    3.0595   23.2642 C   0  0  0  0  0  0  0  0  0  0  0  0
  -11.8636    2.8933   22.3134 C   0  0  0  0  0  0  0  0  0  0  0  0
  -13.4952    2.7844   24.1824 C   0  0  0  0  0  0  0  0  0  0  0  0
  -13.2075    2.7595   22.8292 C   0  0  0  0  0  0  0  0  0  0  0  0
   -7.5506   -2.1375   27.1563 C   0  0  0  0  0  0  0  0  0  0  0  0
   -6.9789   -3.0865   27.3832 O   0  0  0  0  0  0  0  0  0  0  0  0
   -8.8165   -2.1619   26.6477 N   0  0  0  0  0  0  0  0  0  0  0  0
   -9.5235   -3.3692   26.3833 C   0  0  0  0  0  0  0  0  0  0  0  0
  -10.6382   -3.2346   25.8976 C   0  0  0  0  0  0  0  0  0  0  0  0
  -11.2315   -2.5836   25.3561 C   0  0  0  0  0  0  0  0  0  0  0  0
  -12.5714   -2.4429   24.8435 C   0  0  0  0  0  0  0  0  0  0  0  0
  -13.2712   -3.5856   25.0351 C   0  0  0  0  0  0  0  0  0  0  0  0
  -12.7637   -4.6225   25.6232 C   0  0  0  0  0  0  0  0  0  0  0  0
  -13.4802   -5.8027   25.8475 C   0  0  0  0  0  0  0  0  0  0  0  0
  2 11  1  0
  5 21  1  0
 17 27  1  0
 27 28  2  0
 27 29  1  0
 29 30  1  0
 30 31  2  3
 31 32  1  0
 32 33  2  3
 33 34  1  0
 34 35  2  3
 35 36  1  0
 13 14  2  0
 14 16  1  0
 16 19  2  0
 19 20  1  0
 20 15  2  0
  1  3  2  0
  3 10  1  0
 10  9  2  0
  9  8  1  0
  8  7  2  0
 11 12  2  0
 12 13  1  0
 13 15  1  0
 15 17  1  0
 17 18  2  0
 18 11  1  0
 21 22  2  0
 22 25  1  0
 25 26  2  0
 26 24  1  0
 24 23  2  0
 23 21  1  0
  1  2  1  0
  2  4  2  0
  4  5  1  0
  5  6  2  0
  6  7  1  0
  7  1  1  0
M  END
$$$$
