No_5692-complexes_sdf/6BKW-FPZ/2024-09-17-14-21-01/
     RDKit          3D

 17 18  0  0  0  0  0  0  0  0999 V2000
   -7.9040    3.9820   27.1177 C   0  0  0  0  0  0  0  0  0  0  0  0
   -7.8663    4.8694   27.9238 C   0  0  0  0  0  0  0  0  0  0  0  0
   -9.0953    3.1697   27.0532 C   0  0  0  0  0  0  0  0  0  0  0  0
   -9.1405    2.0104   26.1761 C   0  0  0  0  0  0  0  0  0  0  0  0
   -9.0299    5.5381   28.3948 C   0  0  0  0  0  0  0  0  0  0  0  0
  -10.2709    4.9222   28.1362 C   0  0  0  0  0  0  0  0  0  0  0  0
  -10.2487    3.7550   27.4045 C   0  0  0  0  0  0  0  0  0  0  0  0
   -8.6354    0.8334   26.7474 C   0  0  0  0  0  0  0  0  0  0  0  0
   -8.1433    0.7117   27.9452 C   0  0  0  0  0  0  0  0  0  0  0  0
   -8.9620   -0.3706   25.9837 C   0  0  0  0  0  0  0  0  0  0  0  0
   -8.5415   -1.5817   26.3862 C   0  0  0  0  0  0  0  0  0  0  0  0
   -7.6234   -0.5668   28.3750 C   0  0  0  0  0  0  0  0  0  0  0  0
   -7.9043   -1.7086   27.6189 C   0  0  0  0  0  0  0  0  0  0  0  0
   -9.4365    2.1620   24.8257 C   0  0  0  0  0  0  0  0  0  0  0  0
   -9.9396    3.4659   24.3629 C   0  0  0  0  0  0  0  0  0  0  0  0
  -10.9766    3.6528   23.6010 C   0  0  0  0  0  0  0  0  0  0  0  0
  -11.1728    4.9867   23.0762 C   0  0  0  0  0  0  0  0  0  0  0  0
  3  4  1  0
  4  8  1  0
  4 14  1  0
 14 15  1  0
 15 16  2  3
 16 17  1  0
  8  9  2  0
  9 12  1  0
 12 13  2  0
 13 11  1  0
 11 10  2  0
 10  8  1  0
  1  2  2  0
  2  5  1  0
  5  6  2  0
  6  7  1  0
  7  3  2  0
  3  1  1  0
M  END
$$$$
