No_5762-complexes_sdf/6BKW-FPZ/2024-09-17-14-21-01/
     RDKit          3D

 27 31  0  0  0  0  0  0  0  0999 V2000
   -7.9040    3.9820   27.1177 C   0  0  0  0  0  0  0  0  0  0  0  0
   -8.2057    2.8231   26.8733 C   0  0  0  0  0  0  0  0  0  0  0  0
   -9.2962    2.4021   26.1155 C   0  0  0  0  0  0  0  0  0  0  0  0
   -8.7358    5.0662   26.5917 C   0  0  0  0  0  0  0  0  0  0  0  0
   -9.7618    4.7023   25.7546 C   0  0  0  0  0  0  0  0  0  0  0  0
  -10.0066    3.4105   25.4922 C   0  0  0  0  0  0  0  0  0  0  0  0
   -8.3943    6.4760   26.8801 C   0  0  0  0  0  0  0  0  0  0  0  0
   -8.5947    7.4080   26.1130 N   0  0  0  0  0  0  0  0  0  0  0  0
   -7.8721    6.5841   28.0483 O   0  0  0  0  0  0  0  0  0  0  0  0
   -7.5504    1.5151   27.3778 C   0  0  0  0  0  0  0  0  0  0  0  0
   -8.0366    0.2850   27.3537 C   0  0  0  0  0  0  0  0  0  0  0  0
   -9.2302    0.1304   26.5616 C   0  0  0  0  0  0  0  0  0  0  0  0
   -9.8153    1.1017   25.9343 C   0  0  0  0  0  0  0  0  0  0  0  0
   -7.3275   -0.8071   27.9918 C   0  0  0  0  0  0  0  0  0  0  0  0
   -6.0496   -0.6598   28.4173 C   0  0  0  0  0  0  0  0  0  0  0  0
   -5.4386    0.6835   28.2581 C   0  0  0  0  0  0  0  0  0  0  0  0
   -6.1503    1.7457   27.9117 C   0  0  0  0  0  0  0  0  0  0  0  0
   -4.0545    0.8938   28.8515 C   0  0  0  0  0  0  0  0  0  0  0  0
   -3.5258    0.1297   29.7084 N   0  0  0  0  0  0  0  0  0  0  0  0
   -3.5534   -1.1037   29.9181 C   0  0  0  0  0  0  0  0  0  0  0  0
   -4.6771   -1.9318   29.8675 C   0  0  0  0  0  0  0  0  0  0  0  0
   -5.6475   -1.7031   28.9853 C   0  0  1  0  0  0  0  0  0  0  0  0
   -6.7301   -2.6419   28.8674 N   0  0  0  0  0  0  0  0  0  0  0  0
   -6.7801   -3.9014   29.2761 C   0  0  0  0  0  0  0  0  0  0  0  0
   -7.6836   -2.0037   28.1385 C   0  0  0  0  0  0  0  0  0  0  0  0
   -5.9986   -4.6809   29.3529 C   0  0  0  0  0  0  0  0  0  0  0  0
   -6.1259   -6.0355   29.8069 C   0  0  0  0  0  0  0  0  0  0  0  0
  4  7  1  0
  7  8  1  0
  7  9  2  0
 16 18  1  0
 18 19  1  0
 19 20  1  0
 20 21  2  0
 15 22  1  0
 21 22  1  0
 22 23  1  1
 23 24  1  0
 14 25  1  0
 23 25  1  0
 24 26  2  3
 26 27  1  0
  1  2  2  0
  3  6  2  0
  6  5  1  0
  5  4  2  0
  4  1  1  0
  2  3  1  0
  3 13  1  0
 13 12  2  0
 12 11  1  0
 10  2  1  0
 10 11  2  0
 11 14  1  0
 14 15  2  0
 15 16  1  0
 16 17  2  0
 17 10  1  0
M  END
$$$$
