No_5439-complexes_sdf/6BKW-FPZ/2024-09-17-14-21-01/
     RDKit          3D

 17 18  0  0  0  0  0  0  0  0999 V2000
   -7.9040    3.9820   27.1177 C   0  0  0  0  0  0  0  0  0  0  0  0
   -9.0711    4.3164   27.0630 C   0  0  2  0  0  0  0  0  0  0  0  0
   -9.8698    3.9665   25.9495 C   0  0  0  0  0  0  0  0  0  0  0  0
   -7.0332    4.5030   28.2025 C   0  0  0  0  0  0  0  0  0  0  0  0
   -9.4357    2.9501   25.1393 C   0  0  0  0  0  0  0  0  0  0  0  0
  -10.2810    2.6266   24.0411 C   0  0  0  0  0  0  0  0  0  0  0  0
   -7.7787    5.4357   28.8257 N   0  0  0  0  0  0  0  0  0  0  0  0
   -9.0362    5.3819   28.0762 C   0  0  0  0  0  0  0  0  0  0  0  0
  -11.2749    3.4805   23.6196 C   0  0  0  0  0  0  0  0  0  0  0  0
  -11.6626    4.5508   24.4643 C   0  0  0  0  0  0  0  0  0  0  0  0
  -10.9121    4.8400   25.5824 C   0  0  0  0  0  0  0  0  0  0  0  0
   -9.7408    1.4503   23.2767 C   0  0  0  0  0  0  0  0  0  0  0  0
   -9.1483    0.4110   23.8916 C   0  0  0  0  0  0  0  0  0  0  0  0
   -8.5818   -0.5342   23.1509 C   0  0  0  0  0  0  0  0  0  0  0  0
   -8.7971   -0.6234   21.7217 C   0  0  0  0  0  0  0  0  0  0  0  0
   -9.8688    1.4611   21.8766 C   0  0  0  0  0  0  0  0  0  0  0  0
  -10.5655    2.5293   21.2510 C   0  0  0  0  0  0  0  0  0  0  0  0
  1  2  1  0
  1  4  1  0
  4  7  2  0
  2  8  1  0
  7  8  1  0
  6 12  1  0
 12 13  1  0
 13 14  2  3
 14 15  1  0
 12 16  1  0
 16 17  2  0
  2  3  1  6
  3  5  2  0
  5  6  1  0
  6  9  2  0
  9 10  1  0
 10 11  2  0
 11  3  1  0
M  END
$$$$
