No_5451-complexes_sdf/6BKW-FPZ/2024-09-17-14-21-01/
     RDKit          3D

 22 23  0  0  0  0  0  0  0  0999 V2000
   -7.7129    4.2099   27.0854 C   0  0  0  0  0  0  0  0  0  0  0  0
   -7.7814    5.1722   27.8972 C   0  0  0  0  0  0  0  0  0  0  0  0
   -8.8998    3.8713   26.3707 C   0  0  0  0  0  0  0  0  0  0  0  0
   -9.9938    4.6774   26.5446 C   0  0  0  0  0  0  0  0  0  0  0  0
   -8.7789    6.1536   27.9256 C   0  0  0  0  0  0  0  0  0  0  0  0
   -9.9428    5.8398   27.2296 C   0  0  0  0  0  0  0  0  0  0  0  0
   -8.9208    2.6404   25.5721 C   0  0  0  0  0  0  0  0  0  0  0  0
   -9.7377    1.6978   26.0657 C   0  0  0  0  0  0  0  0  0  0  0  0
   -9.4633    0.4709   25.7506 C   0  0  0  0  0  0  0  0  0  0  0  0
  -10.1666   -0.6038   26.3610 C   0  0  0  0  0  0  0  0  0  0  0  0
  -11.2007   -0.2903   27.2971 C   0  0  0  0  0  0  0  0  0  0  0  0
  -11.4118    1.0053   27.6808 C   0  0  0  0  0  0  0  0  0  0  0  0
  -10.6572    2.0283   27.1635 C   0  0  0  0  0  0  0  0  0  0  0  0
   -8.4759    0.0341   24.7838 C   0  0  0  0  0  0  0  0  0  0  0  0
   -8.2875   -1.0310   24.2112 N   0  0  0  0  0  0  0  0  0  0  0  0
   -7.4607   -1.2260   23.2071 C   0  0  0  0  0  0  0  0  0  0  0  0
   -7.0778   -2.2079   22.6374 C   0  0  0  0  0  0  0  0  0  0  0  0
   -6.5506   -0.1743   23.0144 O   0  0  0  0  0  0  0  0  0  0  0  0
   -6.0557   -2.9644   22.9722 C   0  0  0  0  0  0  0  0  0  0  0  0
   -6.2386   -3.9729   23.6972 N   0  0  0  0  0  0  0  0  0  0  0  0
   -5.3798   -4.4899   24.4035 C   0  0  0  0  0  0  0  0  0  0  0  0
   -5.5466   -5.3222   25.4826 C   0  0  0  0  0  0  0  0  0  0  0  0
  3  7  1  0
  7  8  1  0
  9 14  1  0
 14 15  1  0
 15 16  1  0
 16 17  1  0
 16 18  2  0
 17 19  1  0
 19 20  1  0
 20 21  1  0
 21 22  2  0
  8  9  2  0
  9 10  1  0
 10 11  2  0
 11 12  1  0
 12 13  2  0
 13  8  1  0
  1  2  2  0
  2  5  1  0
  5  6  2  0
  6  4  1  0
  4  3  2  0
  3  1  1  0
M  END
$$$$
