No_5482-complexes_sdf/6BKW-FPZ/2024-09-17-14-21-01/
     RDKit          3D

 15 17  0  0  0  0  0  0  0  0999 V2000
   -7.7129    4.2099   27.0854 C   0  0  0  0  0  0  0  0  0  0  0  0
   -7.7814    5.1722   27.8972 C   0  0  0  0  0  0  0  0  0  0  0  0
   -7.3155    2.9699   27.6145 C   0  0  0  0  0  0  0  0  0  0  0  0
   -7.9010    1.7962   27.2023 C   0  0  0  0  0  0  0  0  0  0  0  0
   -8.9847    1.8780   26.3510 C   0  0  0  0  0  0  0  0  0  0  0  0
   -9.4383    3.0861   25.8930 C   0  0  0  0  0  0  0  0  0  0  0  0
   -8.9232    4.1639   26.3688 C   0  0  0  0  0  0  0  0  0  0  0  0
   -8.2559    6.4567   27.5438 N   0  0  0  0  0  0  0  0  0  0  0  0
   -9.1128    6.5714   26.5080 C   0  0  0  0  0  0  0  0  0  0  0  0
   -9.5312    5.4501   25.9801 C   0  0  0  0  0  0  0  0  0  0  0  0
   -7.4166    0.4376   27.4888 C   0  0  0  0  0  0  0  0  0  0  0  0
   -8.1879   -0.6794   27.6032 C   0  0  0  0  0  0  0  0  0  0  0  0
   -9.5112   -0.4769   26.9468 C   0  0  0  0  0  0  0  0  0  0  0  0
   -9.8469    0.6987   26.2594 C   0  0  0  0  0  0  0  0  0  0  0  0
  -10.4040    3.0408   25.0114 O   0  0  0  0  0  0  0  0  0  0  0  0
  1  3  1  0
  3  4  1  0
  5  6  1  0
  6  7  1  0
  6 15  2  0
  1  2  2  0
  2  8  1  0
  8  9  2  0
  9 10  1  0
 10  7  2  0
  7  1  1  0
  4 11  2  0
 11 12  1  0
 12 13  2  0
 13 14  1  0
 14  5  2  0
  5  4  1  0
M  END
$$$$
