No_5076-complexes_sdf/6BKW-FPZ/2024-09-17-14-21-01/
     RDKit          3D

 28 31  0  0  0  0  0  0  0  0999 V2000
   -7.7129    4.2099   27.0854 C   0  0  0  0  0  0  0  0  0  0  0  0
   -7.7814    5.1722   27.8972 C   0  0  0  0  0  0  0  0  0  0  0  0
   -8.8998    3.8713   26.3707 C   0  0  0  0  0  0  0  0  0  0  0  0
   -9.9938    4.6774   26.5446 C   0  0  0  0  0  0  0  0  0  0  0  0
   -8.7789    6.1536   27.9256 C   0  0  0  0  0  0  0  0  0  0  0  0
   -9.9428    5.8398   27.2296 C   0  0  0  0  0  0  0  0  0  0  0  0
   -8.9171    2.4497   25.4307 Cl  0  0  0  0  0  0  0  0  0  0  0  0
  -10.9846    4.1629   25.7182 N   0  0  0  0  0  0  0  0  0  0  0  0
  -11.0754    4.3885   24.4290 C   0  0  0  0  0  0  0  0  0  0  0  0
  -12.1990    4.0476   23.6803 C   0  0  0  0  0  0  0  0  0  0  0  0
  -12.2772    4.4585   22.4210 C   0  0  0  0  0  0  0  0  0  0  0  0
  -11.1038    4.8978   21.7172 C   0  0  0  0  0  0  0  0  0  0  0  0
   -9.9752    5.1323   22.4916 C   0  0  0  0  0  0  0  0  0  0  0  0
   -9.8940    4.9233   23.7744 C   0  0  0  0  0  0  0  0  0  0  0  0
  -12.1956    3.7633   26.4984 C   0  0  0  0  0  0  0  0  0  0  0  0
  -12.5057    2.5397   26.6868 C   0  0  0  0  0  0  0  0  0  0  0  0
  -13.6243    2.1731   27.4070 C   0  0  0  0  0  0  0  0  0  0  0  0
  -14.4303    3.1785   28.0022 C   0  0  0  0  0  0  0  0  0  0  0  0
  -14.1461    4.4982   27.7759 C   0  0  0  0  0  0  0  0  0  0  0  0
  -12.9891    4.8617   27.0726 C   0  0  0  0  0  0  0  0  0  0  0  0
  -14.9599    5.5879   28.4290 C   0  0  0  0  0  0  0  0  0  0  0  0
  -15.3047    5.5546   29.6673 C   0  0  0  0  0  0  0  0  0  0  0  0
  -16.0739    6.6728   30.2242 C   0  0  0  0  0  0  0  0  0  0  0  0
  -16.2997    7.7869   29.4443 C   0  0  0  0  0  0  0  0  0  0  0  0
  -15.8571    7.8312   28.1257 C   0  0  0  0  0  0  0  0  0  0  0  0
  -15.1370    6.7783   27.6065 C   0  0  0  0  0  0  0  0  0  0  0  0
  -17.1563    9.1291   30.0824 Cl  0  0  0  0  0  0  0  0  0  0  0  0
   -6.6388    5.5907   28.5781 F   0  0  0  0  0  0  0  0  0  0  0  0
  3  7  1  0
  4  8  1  0
  8  9  1  0
  8 15  1  0
 19 21  1  0
 24 27  1  0
  2 28  1  0
  9 10  2  0
 10 11  1  0
 11 12  2  0
 12 13  1  0
 13 14  2  0
 14  9  1  0
 15 16  2  0
 16 17  1  0
 17 18  2  0
 18 19  1  0
 19 20  2  0
 20 15  1  0
  1  2  2  0
  2  5  1  0
  5  6  2  0
  6  4  1  0
  4  3  2  0
  3  1  1  0
 21 22  2  0
 22 23  1  0
 23 24  2  0
 24 25  1  0
 25 26  2  0
 26 21  1  0
M  END
$$$$
