No_577-complexes_sdf/6BKW-FPZ/2024-09-17-14-21-01/
     RDKit          3D

 16 17  0  0  0  0  0  0  0  0999 V2000
   -7.9040    3.9820   27.1177 C   0  0  0  0  0  0  0  0  0  0  0  0
   -8.2057    2.8231   26.8733 C   0  0  0  0  0  0  0  0  0  0  0  0
   -9.2962    2.4021   26.1155 C   0  0  0  0  0  0  0  0  0  0  0  0
   -8.7358    5.0662   26.5917 C   0  0  0  0  0  0  0  0  0  0  0  0
   -9.7618    4.7023   25.7546 C   0  0  0  0  0  0  0  0  0  0  0  0
  -10.0066    3.4105   25.4922 C   0  0  0  0  0  0  0  0  0  0  0  0
   -8.3943    6.4760   26.8801 C   0  0  0  0  0  0  0  0  0  0  0  0
   -8.6599    6.8011   28.0203 F   0  0  0  0  0  0  0  0  0  0  0  0
   -7.0507    6.6848   26.7335 F   0  0  0  0  0  0  0  0  0  0  0  0
   -8.9447    7.2930   25.9189 F   0  0  0  0  0  0  0  0  0  0  0  0
   -7.3605    1.6688   27.5005 C   0  0  0  0  0  0  0  0  0  0  0  0
   -7.7955    0.4036   27.4283 N   0  0  0  0  0  0  0  0  0  0  0  0
   -6.9851   -0.6154   27.7654 C   0  0  0  0  0  0  0  0  0  0  0  0
   -5.7265   -0.3041   28.2474 C   0  0  0  0  0  0  0  0  0  0  0  0
   -5.2328    1.0377   28.2181 C   0  0  0  0  0  0  0  0  0  0  0  0
   -5.9954    2.0020   27.7899 C   0  0  0  0  0  0  0  0  0  0  0  0
  4  7  1  0
  7  8  1  0
  7  9  1  0
  7 10  1  0
  2 11  1  0
 11 12  2  0
 12 13  1  0
 13 14  2  0
 14 15  1  0
 15 16  2  0
 16 11  1  0
  1  2  2  0
  2  3  1  0
  3  6  2  0
  6  5  1  0
  5  4  2  0
  4  1  1  0
M  END
$$$$
