No_5959-complexes_sdf/6BKW-FPZ/2024-09-17-14-21-01/
     RDKit          3D

 29 31  0  0  0  0  0  0  0  0999 V2000
   -7.9040    3.9820   27.1177 C   0  0  0  0  0  0  0  0  0  0  0  0
   -7.8663    4.8694   27.9238 C   0  0  0  0  0  0  0  0  0  0  0  0
   -9.0501    3.8017   26.2617 C   0  0  0  0  0  0  0  0  0  0  0  0
   -9.1826    2.7026   25.3575 C   0  0  0  0  0  0  0  0  0  0  0  0
   -8.6940    6.0131   27.8614 C   0  0  0  0  0  0  0  0  0  0  0  0
   -9.7382    4.9916   26.1006 C   0  0  0  0  0  0  0  0  0  0  0  0
   -9.6356    6.0254   26.9506 C   0  0  0  0  0  0  0  0  0  0  0  0
   -8.7538    1.4669   25.8136 C   0  0  0  0  0  0  0  0  0  0  0  0
   -9.8764    2.8449   24.1464 C   0  0  0  0  0  0  0  0  0  0  0  0
   -8.9133    0.3756   24.9760 C   0  0  0  0  0  0  0  0  0  0  0  0
  -10.0019    1.7297   23.3405 C   0  0  0  0  0  0  0  0  0  0  0  0
   -9.5017    0.5113   23.7538 C   0  0  0  0  0  0  0  0  0  0  0  0
   -9.7311   -0.8471   22.6997 Cl  0  0  0  0  0  0  0  0  0  0  0  0
   -7.1081    2.8901   27.3431 F   0  0  0  0  0  0  0  0  0  0  0  0
   -8.2121   -1.3169   25.4632 Br  0  0  0  0  0  0  0  0  0  0  0  0
  -10.6510    1.9046   22.0381 C   0  0  0  0  0  0  0  0  0  0  0  0
  -11.8450    2.3554   22.0222 N   0  0  0  0  0  0  0  0  0  0  0  0
  -12.3421    3.0944   22.5442 C   0  0  0  0  0  0  0  0  0  0  0  0
  -12.4037    1.6771   20.6747 C   0  0  0  0  0  0  0  0  0  0  0  0
  -13.3836    2.8730   23.3819 C   0  0  0  0  0  0  0  0  0  0  0  0
  -13.8180    3.7375   24.3291 C   0  0  0  0  0  0  0  0  0  0  0  0
  -14.5217    3.4114   25.4777 C   0  0  0  0  0  0  0  0  0  0  0  0
  -15.0464    2.1079   25.5052 C   0  0  0  0  0  0  0  0  0  0  0  0
  -14.6418    1.1941   24.5463 C   0  0  0  0  0  0  0  0  0  0  0  0
  -13.7294    1.5094   23.5994 C   0  0  0  0  0  0  0  0  0  0  0  0
  -12.0311    4.3810   22.3941 O   0  0  0  0  0  0  0  0  0  0  0  0
  -12.1158    0.6963   20.2305 C   0  0  0  0  0  0  0  0  0  0  0  0
  -12.6075    0.2097   19.0014 C   0  0  0  0  0  0  0  0  0  0  0  0
  -13.6366    0.9190   18.4188 C   0  0  0  0  0  0  0  0  0  0  0  0
  3  4  1  0
 12 13  1  0
  1 14  1  0
 10 15  1  0
 11 16  1  0
 16 17  1  0
 17 18  1  0
 17 19  1  0
 18 20  1  0
 18 26  2  0
 19 27  2  3
 27 28  1  0
 28 29  2  0
 20 21  2  0
 21 22  1  0
 22 23  2  0
 23 24  1  0
 24 25  2  0
 25 20  1  0
  4  8  2  0
  8 10  1  0
 10 12  2  0
 12 11  1  0
 11  9  2  0
  9  4  1  0
  1  2  2  0
  2  5  1  0
  5  7  2  0
  7  6  1  0
  6  3  2  0
  3  1  1  0
M  END
$$$$
