No_5925-complexes_sdf/6BKW-FPZ/2024-09-17-14-21-01/
     RDKit          3D

 21 24  0  0  0  0  0  0  0  0999 V2000
   -7.7129    4.2099   27.0854 C   0  0  0  0  0  0  0  0  0  0  0  0
   -8.2112    3.0637   26.9225 C   0  0  0  0  0  0  0  0  0  0  0  0
   -7.0021    4.5281   28.2396 C   0  0  0  0  0  0  0  0  0  0  0  0
   -9.4237    2.7810   26.2714 C   0  0  0  0  0  0  0  0  0  0  0  0
   -9.8781    3.7859   25.4663 C   0  0  0  0  0  0  0  0  0  0  0  0
   -9.3689    5.0975   25.5965 C   0  0  0  0  0  0  0  0  0  0  0  0
   -8.4784    5.3402   26.5448 C   0  0  0  0  0  0  0  0  0  0  0  0
  -10.9887    3.5347   24.5135 C   0  0  0  0  0  0  0  0  0  0  0  0
  -10.8789    3.9875   23.2474 C   0  0  0  0  0  0  0  0  0  0  0  0
  -12.0756    2.7879   24.8728 C   0  0  0  0  0  0  0  0  0  0  0  0
  -11.7185    3.7772   22.1934 C   0  0  0  0  0  0  0  0  0  0  0  0
  -13.0445    2.5365   23.8506 C   0  0  0  0  0  0  0  0  0  0  0  0
  -12.8658    3.0787   22.5406 C   0  0  0  0  0  0  0  0  0  0  0  0
   -7.6084    1.8387   27.6208 C   0  0  0  0  0  0  0  0  0  0  0  0
   -8.1207    0.6261   27.5332 C   0  0  0  0  0  0  0  0  0  0  0  0
   -9.7860    1.4598   25.9470 C   0  0  0  0  0  0  0  0  0  0  0  0
   -9.2075    0.3925   26.7003 C   0  0  0  0  0  0  0  0  0  0  0  0
   -9.7593   -0.9417   26.6213 C   0  0  0  0  0  0  0  0  0  0  0  0
  -10.6507   -1.2242   25.9824 C   0  0  0  0  0  0  0  0  0  0  0  0
  -11.1882   -0.2289   25.0680 C   0  0  0  0  0  0  0  0  0  0  0  0
  -10.8014    1.0658   25.1790 C   0  0  0  0  0  0  0  0  0  0  0  0
  5  8  1  0
  3  1  1  0
  8  9  2  0
  9 11  1  0
 11 13  2  0
 13 12  1  0
 12 10  2  0
 10  8  1  0
  4 16  1  0
 17 15  1  0
 15 14  2  0
 14  2  1  0
  1  2  2  0
  2  4  1  0
  4  5  2  0
  5  6  1  0
  6  7  2  0
  7  1  1  0
 16 17  2  0
 17 18  1  0
 18 19  2  0
 19 20  1  0
 20 21  2  0
 21 16  1  0
M  END
$$$$
