No_558-complexes_sdf/6BKW-FPZ/2024-09-17-14-21-01/
     RDKit          3D

 18 20  0  0  0  0  0  0  0  0999 V2000
   -7.7129    4.2099   27.0854 C   0  0  0  0  0  0  0  0  0  0  0  0
   -7.7814    5.1722   27.8972 C   0  0  0  0  0  0  0  0  0  0  0  0
   -8.7889    3.2468   27.2220 C   0  0  0  0  0  0  0  0  0  0  0  0
   -8.5940    1.9755   26.6525 C   0  0  0  0  0  0  0  0  0  0  0  0
   -9.4990    1.3567   25.9026 C   0  0  0  0  0  0  0  0  0  0  0  0
   -8.9326    5.8778   28.0043 C   0  0  0  0  0  0  0  0  0  0  0  0
   -9.9704    3.6991   27.7210 C   0  0  0  0  0  0  0  0  0  0  0  0
  -10.1124    5.0409   28.1733 C   0  0  0  0  0  0  0  0  0  0  0  0
   -9.2379    0.1259   25.3247 C   0  0  0  0  0  0  0  0  0  0  0  0
   -7.9998   -0.4521   25.4824 C   0  0  0  0  0  0  0  0  0  0  0  0
   -7.0466    0.0884   26.3175 C   0  0  0  0  0  0  0  0  0  0  0  0
   -7.2848    1.3339   26.9371 C   0  0  0  0  0  0  0  0  0  0  0  0
  -11.0993    2.7770   27.9548 C   0  0  0  0  0  0  0  0  0  0  0  0
  -12.0791    3.1853   28.8584 C   0  0  0  0  0  0  0  0  0  0  0  0
  -13.0982    2.3116   29.3301 C   0  0  0  0  0  0  0  0  0  0  0  0
  -13.0454    1.0048   28.7681 C   0  0  0  0  0  0  0  0  0  0  0  0
  -12.0661    0.5649   27.9070 C   0  0  0  0  0  0  0  0  0  0  0  0
  -11.0402    1.4445   27.5964 C   0  0  0  0  0  0  0  0  0  0  0  0
  3  4  1  0
  7 13  1  0
 13 14  2  0
 14 15  1  0
 15 16  2  0
 16 17  1  0
 17 18  2  0
 18 13  1  0
  4  5  2  0
  5  9  1  0
  9 10  2  0
 10 11  1  0
 11 12  2  0
 12  4  1  0
  1  2  2  0
  2  6  1  0
  6  8  2  0
  8  7  1  0
  7  3  2  0
  3  1  1  0
M  END
$$$$
