No_5447-complexes_sdf/6BKW-FPZ/2024-09-17-14-21-01/
     RDKit          3D

 25 28  0  0  0  0  0  0  0  0999 V2000
   -7.9040    3.9820   27.1177 C   0  0  0  0  0  0  0  0  0  0  0  0
   -7.8663    4.8694   27.9238 C   0  0  0  0  0  0  0  0  0  0  0  0
   -9.0491    3.8523   26.2542 C   0  0  0  0  0  0  0  0  0  0  0  0
   -8.7661    5.9491   27.9690 C   0  0  0  0  0  0  0  0  0  0  0  0
   -9.1715    2.7136   25.4037 C   0  0  0  0  0  0  0  0  0  0  0  0
   -9.8832    5.8611   27.1405 C   0  0  0  0  0  0  0  0  0  0  0  0
  -10.0016    4.7998   26.3324 C   0  0  0  0  0  0  0  0  0  0  0  0
   -8.6397    1.4769   25.7660 C   0  0  0  0  0  0  0  0  0  0  0  0
   -9.8368    2.8536   24.1596 C   0  0  0  0  0  0  0  0  0  0  0  0
   -8.7711    0.4090   24.9080 C   0  0  0  0  0  0  0  0  0  0  0  0
   -9.9417    1.7410   23.3261 C   0  0  0  0  0  0  0  0  0  0  0  0
   -9.3799    0.5459   23.6893 C   0  0  0  0  0  0  0  0  0  0  0  0
   -9.5220   -0.6213   22.7517 C   0  0  0  0  0  0  0  0  0  0  0  0
   -8.4441   -1.2867   22.4134 C   0  0  0  0  0  0  0  0  0  0  0  0
   -8.4081   -2.2468   21.3960 C   0  0  0  0  0  0  0  0  0  0  0  0
   -9.6043   -2.4629   20.6618 C   0  0  0  0  0  0  0  0  0  0  0  0
  -10.7138   -1.7008   20.9573 C   0  0  0  0  0  0  0  0  0  0  0  0
  -10.6381   -0.7169   21.9241 C   0  0  0  0  0  0  0  0  0  0  0  0
   -9.6196   -3.5065   19.6345 C   0  0  0  0  0  0  0  0  0  0  0  0
   -9.3956   -4.7541   19.9941 C   0  0  0  0  0  0  0  0  0  0  0  0
   -9.9076   -3.1598   18.2848 C   0  0  0  0  0  0  0  0  0  0  0  0
   -9.9378   -4.0219   17.3868 C   0  0  0  0  0  0  0  0  0  0  0  0
   -9.4397   -5.7450   18.9842 C   0  0  0  0  0  0  0  0  0  0  0  0
   -9.7089   -5.3776   17.6831 C   0  0  0  0  0  0  0  0  0  0  0  0
   -9.8412   -6.6444   16.3357 Br  0  0  0  0  0  0  0  0  0  0  0  0
  3  5  1  0
 12 13  1  0
 16 19  1  0
 24 25  1  0
 13 14  2  0
 14 15  1  0
 15 16  2  0
 16 17  1  0
 17 18  2  0
 18 13  1  0
 19 20  2  0
 20 23  1  0
 23 24  2  0
 24 22  1  0
 22 21  2  0
 21 19  1  0
  1  2  2  0
  2  4  1  0
  4  6  2  0
  6  7  1  0
  7  3  2  0
  3  1  1  0
  5  8  2  0
  8 10  1  0
 10 12  2  0
 12 11  1  0
 11  9  2  0
  9  5  1  0
M  END
$$$$
