No_5220-complexes_sdf/6BKW-FPZ/2024-09-17-14-21-01/
     RDKit          3D

 21 23  0  0  0  0  0  0  0  0999 V2000
   -7.9040    3.9820   27.1177 C   0  0  0  0  0  0  0  0  0  0  0  0
   -7.8663    4.8694   27.9238 C   0  0  0  0  0  0  0  0  0  0  0  0
   -7.4547    2.7080   27.4594 C   0  0  0  0  0  0  0  0  0  0  0  0
   -7.9337    1.5946   26.8372 C   0  0  0  0  0  0  0  0  0  0  0  0
   -8.9603    1.7678   26.1391 C   0  0  0  0  0  0  0  0  0  0  0  0
   -9.5151    2.9338   25.7451 C   0  0  0  0  0  0  0  0  0  0  0  0
   -9.0514    3.9881   26.3110 C   0  0  0  0  0  0  0  0  0  0  0  0
   -8.2265    6.2342   27.6090 N   0  0  0  0  0  0  0  0  0  0  0  0
   -8.9840    6.4743   26.6358 C   0  0  0  0  0  0  0  0  0  0  0  0
   -9.5665    5.3713   25.9739 C   0  0  0  0  0  0  0  0  0  0  0  0
   -7.2974    0.2752   27.2362 C   0  0  0  0  0  0  0  0  0  0  0  0
   -5.9761    0.2098   27.6898 C   0  0  0  0  0  0  0  0  0  0  0  0
   -5.3997   -1.0064   28.0365 C   0  0  0  0  0  0  0  0  0  0  0  0
   -6.1924   -2.1307   27.9716 C   0  0  0  0  0  0  0  0  0  0  0  0
   -8.0679   -0.9136   27.2869 C   0  0  0  0  0  0  0  0  0  0  0  0
   -7.5123   -2.0721   27.6552 C   0  0  0  0  0  0  0  0  0  0  0  0
   -3.9802   -0.9956   28.4636 C   0  0  0  0  0  0  0  0  0  0  0  0
   -3.7343   -0.6078   29.7880 C   0  0  2  0  0  0  0  0  0  0  0  0
   -3.9165    0.6987   30.1697 C   0  0  0  0  0  0  0  0  0  0  0  0
   -3.1165   -1.5628   30.6915 C   0  0  0  0  0  0  0  0  0  0  0  0
   -2.3644   -2.3639   30.3891 C   0  0  0  0  0  0  0  0  0  0  0  0
  4 11  1  0
 13 17  1  0
 17 18  1  0
 18 19  1  6
 18 20  1  0
 20 21  1  0
  1  2  2  0
  2  8  1  0
  8  9  2  0
  9 10  1  0
 10  7  2  0
 11 12  2  0
 12 13  1  0
 13 14  2  0
 14 16  1  0
 16 15  2  0
 15 11  1  0
  1  3  1  0
  3  4  2  0
  4  5  1  0
  5  6  2  0
  6  7  1  0
  7  1  1  0
M  END
$$$$
