No_5532-complexes_sdf/6BKW-FPZ/2024-09-17-14-21-01/
     RDKit          3D

 25 28  0  0  0  0  0  0  0  0999 V2000
   -7.2496    3.8871   27.4508 C   0  0  0  0  0  0  0  0  0  0  0  0
   -7.9379    4.9063   27.8518 C   0  0  0  0  0  0  0  0  0  0  0  0
   -8.7729    5.5444   27.0168 C   0  0  0  0  0  0  0  0  0  0  0  0
   -6.2858    3.2138   28.3467 C   0  0  0  0  0  0  0  0  0  0  0  0
   -9.2459    4.9714   25.8185 C   0  0  0  0  0  0  0  0  0  0  0  0
   -8.7245    3.6550   25.5132 C   0  0  0  0  0  0  0  0  0  0  0  0
   -7.8326    3.1219   26.4052 C   0  0  0  0  0  0  0  0  0  0  0  0
   -5.6873    1.9697   27.9543 C   0  0  0  0  0  0  0  0  0  0  0  0
   -4.5740    1.4852   28.6364 C   0  0  0  0  0  0  0  0  0  0  0  0
   -4.0814    0.2839   28.2880 C   0  0  0  0  0  0  0  0  0  0  0  0
   -4.6252   -0.4580   27.2480 C   0  0  0  0  0  0  0  0  0  0  0  0
   -5.7138   -0.0054   26.5511 C   0  0  0  0  0  0  0  0  0  0  0  0
   -6.2417    1.2362   26.8913 C   0  0  0  0  0  0  0  0  0  0  0  0
   -7.3353    1.8347   26.0664 N   0  0  0  0  0  0  0  0  0  0  0  0
   -2.8852   -0.2696   29.0797 C   0  0  1  0  0  0  0  0  0  0  0  0
   -1.8126   -0.5888   28.5332 N   0  0  0  0  0  0  0  0  0  0  0  0
   -2.8679    0.0581   30.7169 Cl  0  0  0  0  0  0  0  0  0  0  0  0
   -8.0373    0.9983   25.1891 C   0  0  0  0  0  0  0  0  0  0  0  0
   -8.4741    0.0597   25.5779 C   0  0  0  0  0  0  0  0  0  0  0  0
   -9.2383   -0.8661   24.8266 C   0  0  0  0  0  0  0  0  0  0  0  0
   -9.7450   -2.0870   25.2582 C   0  0  0  0  0  0  0  0  0  0  0  0
   -9.4886   -2.4443   26.6042 C   0  0  0  0  0  0  0  0  0  0  0  0
   -8.7738   -1.6492   27.4691 C   0  0  0  0  0  0  0  0  0  0  0  0
   -8.2499   -0.4020   27.0035 C   0  0  0  0  0  0  0  0  0  0  0  0
   -9.2477    6.8507   27.3016 O   0  0  0  0  0  0  0  0  0  0  0  0
  1  4  1  0
  7 14  1  0
 13 14  1  0
 10 15  1  0
 15 16  1  6
 15 17  1  0
 14 18  1  0
  3 25  1  0
 18 19  1  0
  4  8  1  0
  8  9  2  0
  9 10  1  0
 10 11  2  0
 11 12  1  0
 12 13  2  0
 13  8  1  0
 19 20  2  0
 20 21  1  0
 21 22  2  0
 22 23  1  0
 23 24  2  0
 24 19  1  0
  1  2  2  0
  2  3  1  0
  3  5  2  0
  5  6  1  0
  6  7  2  0
  7  1  1  0
M  END
$$$$
