No_5270-complexes_sdf/6BKW-FPZ/2024-09-17-14-21-01/
     RDKit          3D

 14 14  0  0  0  0  0  0  0  0999 V2000
   -7.2496    3.8871   27.4508 C   0  0  0  0  0  0  0  0  0  0  0  0
   -7.6161    2.7143   27.1523 C   0  0  0  0  0  0  0  0  0  0  0  0
   -8.8302    2.4659   26.5056 C   0  0  0  0  0  0  0  0  0  0  0  0
   -8.1584    5.0090   27.3234 C   0  0  0  0  0  0  0  0  0  0  0  0
   -9.3788    4.7965   26.7695 C   0  0  0  0  0  0  0  0  0  0  0  0
   -9.7028    3.5649   26.3276 C   0  0  0  0  0  0  0  0  0  0  0  0
   -6.5601    1.6614   27.4277 C   0  0  2  0  0  0  0  0  0  0  0  0
   -6.8859    0.0700   27.4485 Cl  0  0  0  0  0  0  0  0  0  0  0  0
   -5.4057    1.9978   27.7316 F   0  0  0  0  0  0  0  0  0  0  0  0
   -7.7040    6.3698   27.7955 C   0  0  0  0  0  0  0  0  0  0  0  0
  -10.9924    3.3270   25.6581 C   0  0  0  0  0  0  0  0  0  0  0  0
  -11.0220    3.5668   24.3010 C   0  0  0  0  0  0  0  0  0  0  0  0
  -10.1296    4.2123   23.6740 C   0  0  0  0  0  0  0  0  0  0  0  0
  -10.2062    4.5789   22.2538 C   0  0  0  0  0  0  0  0  0  0  0  0
  2  7  1  0
  7  8  1  0
  7  9  1  1
  4 10  1  0
  6 11  1  0
 11 12  1  0
 12 13  2  3
 13 14  1  0
  1  2  2  0
  2  3  1  0
  3  6  2  0
  6  5  1  0
  5  4  2  0
  4  1  1  0
M  END
$$$$
