No_5341-complexes_sdf/6BKW-FPZ/2024-09-17-14-21-01/
     RDKit          3D

 25 28  0  0  0  0  0  0  0  0999 V2000
   -7.9040    3.9820   27.1177 C   0  0  0  0  0  0  0  0  0  0  0  0
   -9.0711    4.3164   27.0630 C   0  0  0  0  0  0  0  0  0  0  0  0
   -9.9692    3.7224   26.1073 C   0  0  0  0  0  0  0  0  0  0  0  0
   -6.9787    4.6761   28.1003 C   0  0  0  0  0  0  0  0  0  0  0  0
   -9.4538    2.6801   25.3673 C   0  0  0  0  0  0  0  0  0  0  0  0
   -8.1927    2.1957   25.6621 C   0  0  0  0  0  0  0  0  0  0  0  0
   -7.7902    0.9823   25.1918 C   0  0  0  0  0  0  0  0  0  0  0  0
   -7.4428    2.9053   26.6489 C   0  0  0  0  0  0  0  0  0  0  0  0
   -7.1089    0.1140   25.9538 N   0  0  0  0  0  0  0  0  0  0  0  0
   -6.4978   -1.0026   25.4758 C   0  0  0  0  0  0  0  0  0  0  0  0
   -7.4966    5.7869   28.6880 N   0  0  0  0  0  0  0  0  0  0  0  0
   -8.0967    0.5142   23.8959 C   0  0  0  0  0  0  0  0  0  0  0  0
   -7.5437   -0.6408   23.3513 C   0  0  0  0  0  0  0  0  0  0  0  0
   -6.7792   -1.4528   24.1769 C   0  0  0  0  0  0  0  0  0  0  0  0
   -5.8134    4.3253   28.2774 O   0  0  0  0  0  0  0  0  0  0  0  0
   -6.1638   -2.6933   23.6591 C   0  0  0  0  0  0  0  0  0  0  0  0
   -5.3587   -3.3318   24.3891 C   0  0  0  0  0  0  0  0  0  0  0  0
   -5.0414   -2.9151   25.7566 C   0  0  0  0  0  0  0  0  0  0  0  0
   -5.6235   -1.7994   26.2822 C   0  0  0  0  0  0  0  0  0  0  0  0
   -5.2684   -1.3422   27.6416 C   0  0  0  0  0  0  0  0  0  0  0  0
   -5.7044   -2.0895   28.6086 C   0  0  0  0  0  0  0  0  0  0  0  0
   -5.7436   -1.9300   29.6961 C   0  0  0  0  0  0  0  0  0  0  0  0
   -4.9681   -0.7403   30.2908 C   0  0  0  0  0  0  0  0  0  0  0  0
   -4.4269    0.1283   29.2927 C   0  0  0  0  0  0  0  0  0  0  0  0
   -4.5942   -0.1660   27.9286 C   0  0  0  0  0  0  0  0  0  0  0  0
  1  4  1  0
  4 11  2  0
  4 15  1  0
 19 20  1  0
  6  7  1  0
  1  2  2  0
  2  3  1  0
  3  5  2  0
  5  6  1  0
  6  8  2  0
  8  1  1  0
 14 16  2  0
 16 17  1  0
 17 18  2  0
 18 19  1  0
 19 10  2  0
  7  9  2  0
  9 10  1  0
 10 14  1  0
 14 13  1  0
 13 12  2  0
 12  7  1  0
 20 21  2  0
 21 22  1  0
 22 23  2  0
 23 24  1  0
 24 25  2  0
 25 20  1  0
M  END
$$$$
