No_5939-complexes_sdf/6BKW-FPZ/2024-09-17-14-21-01/
     RDKit          3D

 38 42  0  0  0  0  0  0  0  0999 V2000
   -7.9040    3.9820   27.1177 C   0  0  0  0  0  0  0  0  0  0  0  0
   -7.8663    4.8694   27.9238 C   0  0  0  0  0  0  0  0  0  0  0  0
   -9.0491    3.8523   26.2542 C   0  0  0  0  0  0  0  0  0  0  0  0
   -8.7661    5.9491   27.9690 C   0  0  0  0  0  0  0  0  0  0  0  0
   -9.1798    2.6731   25.4786 C   0  0  0  0  0  0  0  0  0  0  0  0
   -9.6215    5.9826   26.9318 C   0  0  0  0  0  0  0  0  0  0  0  0
   -9.7653    4.9277   26.1272 C   0  0  0  0  0  0  0  0  0  0  0  0
   -8.7012    1.4366   25.9202 C   0  0  0  0  0  0  0  0  0  0  0  0
   -9.8274    2.7169   24.2223 C   0  0  0  0  0  0  0  0  0  0  0  0
   -8.8226    0.2913   25.1600 C   0  0  0  0  0  0  0  0  0  0  0  0
   -9.9498    1.5458   23.4612 C   0  0  0  0  0  0  0  0  0  0  0  0
   -9.4428    0.3522   23.9400 C   0  0  0  0  0  0  0  0  0  0  0  0
   -8.3054   -0.9884   25.6724 C   0  0  0  0  0  0  0  0  0  0  0  0
   -7.2111   -1.2768   25.6855 N   0  0  0  0  0  0  0  0  0  0  0  0
   -6.3102   -1.2243   26.4284 C   0  0  0  0  0  0  0  0  0  0  0  0
   -4.8909   -1.4640   26.1965 C   0  0  0  0  0  0  0  0  0  0  0  0
   -6.5436   -2.0170   27.7139 C   0  0  0  0  0  0  0  0  0  0  0  0
   -5.6528   -1.7653   28.8020 C   0  0  0  0  0  0  0  0  0  0  0  0
   -5.9241   -1.7944   30.0503 C   0  0  0  0  0  0  0  0  0  0  0  0
   -4.9835   -1.4371   31.0906 C   0  0  0  0  0  0  0  0  0  0  0  0
   -3.7328   -0.8870   30.6496 C   0  0  0  0  0  0  0  0  0  0  0  0
   -3.4576   -0.7226   29.3213 C   0  0  0  0  0  0  0  0  0  0  0  0
   -4.3992   -1.0360   28.4203 C   0  0  0  0  0  0  0  0  0  0  0  0
   -4.0182   -0.8845   27.0466 C   0  0  0  0  0  0  0  0  0  0  0  0
   -6.8858   -2.1116   24.3824 C   0  0  0  0  0  0  0  0  0  0  0  0
   -5.2786   -1.5306   32.5338 C   0  0  0  0  0  0  0  0  0  0  0  0
   -4.3284   -1.4869   33.4671 C   0  0  0  0  0  0  0  0  0  0  0  0
   -2.9829   -0.9561   33.0329 C   0  0  0  0  0  0  0  0  0  0  0  0
   -2.7316   -0.6582   31.7585 C   0  0  0  0  0  0  0  0  0  0  0  0
   -1.9875   -0.6518   34.1219 C   0  0  0  0  0  0  0  0  0  0  0  0
   -0.9852   -0.1444   33.8188 O   0  0  0  0  0  0  0  0  0  0  0  0
   -2.4648   -0.5498   35.4389 N   0  0  0  0  0  0  0  0  0  0  0  0
   -1.5777   -0.1910   36.5015 C   0  0  0  0  0  0  0  0  0  0  0  0
   -0.3589   -0.5255   36.5467 C   0  0  0  0  0  0  0  0  0  0  0  0
    0.4577    0.2297   36.9403 O   0  0  0  0  0  0  0  0  0  0  0  0
    0.0379   -1.5424   35.7183 O   0  0  0  0  0  0  0  0  0  0  0  0
   -2.2418    0.5180   37.4203 O   0  0  0  0  0  0  0  0  0  0  0  0
   -9.2632   -1.5835   26.3160 O   0  0  0  0  0  0  0  0  0  0  0  0
  3  5  1  0
 10 13  1  0
 13 14  1  0
 14 15  1  0
 14 25  1  0
 28 30  1  0
 30 31  2  0
 30 32  1  0
 32 33  1  0
 33 34  1  0
 34 35  2  0
 34 36  1  0
 33 37  2  0
 13 38  2  0
 18 19  1  0
 19 20  2  0
 21 22  2  0
 22 23  1  0
 15 16  2  0
 16 24  1  0
 24 23  2  0
 23 18  1  0
 18 17  2  0
 17 15  1  0
  5  8  2  0
  8 10  1  0
 10 12  2  0
 12 11  1  0
 11  9  2  0
  9  5  1  0
  1  2  2  0
  2  4  1  0
  4  6  2  0
  6  7  1  0
  7  3  2  0
  3  1  1  0
 20 21  1  0
 21 29  1  0
 29 28  2  0
 28 27  1  0
 27 26  2  0
 26 20  1  0
M  END
$$$$
