No_5-complexes_sdf/6BKW-FPZ/2024-09-17-14-21-01/
     RDKit          3D

 30 33  0  0  0  0  0  0  0  0999 V2000
   -7.7129    4.2099   27.0854 C   0  0  0  0  0  0  0  0  0  0  0  0
   -7.7814    5.1722   27.8972 C   0  0  0  0  0  0  0  0  0  0  0  0
   -8.8776    3.8408   26.3416 C   0  0  0  0  0  0  0  0  0  0  0  0
   -9.9844    4.6492   26.4743 C   0  0  0  0  0  0  0  0  0  0  0  0
   -8.8033    6.1375   27.8728 C   0  0  0  0  0  0  0  0  0  0  0  0
   -9.9554    5.8280   27.1737 C   0  0  0  0  0  0  0  0  0  0  0  0
   -8.8740    2.6184   25.5584 C   0  0  0  0  0  0  0  0  0  0  0  0
   -8.2606    1.4639   26.1340 C   0  0  0  0  0  0  0  0  0  0  0  0
   -8.2580    0.2568   25.4753 C   0  0  0  0  0  0  0  0  0  0  0  0
   -8.8603    0.2396   24.2084 C   0  0  0  0  0  0  0  0  0  0  0  0
   -9.4494    1.3597   23.6313 C   0  0  0  0  0  0  0  0  0  0  0  0
   -9.4387    2.5320   24.3273 C   0  0  0  0  0  0  0  0  0  0  0  0
   -9.9898    1.0694   22.3312 C   0  0  0  0  0  0  0  0  0  0  0  0
  -10.2718    2.4207   21.3765 Cl  0  0  0  0  0  0  0  0  0  0  0  0
  -10.2751   -0.1482   21.7579 C   0  0  0  0  0  0  0  0  0  0  0  0
  -11.4417   -0.7504   22.1716 C   0  0  0  0  0  0  0  0  0  0  0  0
  -11.6569   -2.0026   21.8523 C   0  0  0  0  0  0  0  0  0  0  0  0
  -10.7492   -2.6647   20.9309 C   0  0  0  0  0  0  0  0  0  0  0  0
   -9.5948   -2.0540   20.4964 C   0  0  0  0  0  0  0  0  0  0  0  0
   -9.2620   -0.7538   20.9579 C   0  0  0  0  0  0  0  0  0  0  0  0
   -8.6278   -2.7416   19.6173 C   0  0  0  0  0  0  0  0  0  0  0  0
   -8.6108   -2.3925   18.4102 O   0  0  0  0  0  0  0  0  0  0  0  0
   -7.5787   -3.2958   20.1417 O   0  0  0  0  0  0  0  0  0  0  0  0
   -6.6910    5.6064   28.6087 F   0  0  0  0  0  0  0  0  0  0  0  0
   -7.6306   -0.9034   26.0524 C   0  0  0  0  0  0  0  0  0  0  0  0
   -7.9784   -1.3391   27.2533 C   0  0  0  0  0  0  0  0  0  0  0  0
   -7.2243   -2.1390   28.0058 C   0  0  0  0  0  0  0  0  0  0  0  0
   -6.1294   -2.7419   27.4035 C   0  0  0  0  0  0  0  0  0  0  0  0
   -5.7687   -2.4072   26.1234 C   0  0  0  0  0  0  0  0  0  0  0  0
   -6.4526   -1.3803   25.4086 C   0  0  0  0  0  0  0  0  0  0  0  0
  3  7  1  0
 11 13  1  0
 13 14  1  0
 13 15  1  0
 19 21  1  0
 21 22  2  0
 21 23  1  0
  2 24  1  0
  9 25  1  0
 15 16  2  0
 16 17  1  0
 17 18  2  0
 18 19  1  0
 19 20  2  0
 20 15  1  0
 25 26  2  0
 26 27  1  0
 27 28  2  0
 28 29  1  0
 29 30  2  0
 30 25  1  0
  1  2  2  0
  2  5  1  0
  5  6  2  0
  6  4  1  0
  4  3  2  0
  3  1  1  0
  7  8  2  0
  8  9  1  0
  9 10  2  0
 10 11  1  0
 11 12  2  0
 12  7  1  0
M  END
$$$$
