No_5718-complexes_sdf/6BKW-FPZ/2024-09-17-14-21-01/
     RDKit          3D

 28 30  0  0  0  0  0  0  0  0999 V2000
   -7.2496    3.8871   27.4508 C   0  0  0  0  0  0  0  0  0  0  0  0
   -7.9379    4.9063   27.8518 C   0  0  0  0  0  0  0  0  0  0  0  0
   -9.3460    4.8223   27.8695 C   0  0  0  0  0  0  0  0  0  0  0  0
   -7.8628    2.6163   27.1065 C   0  0  0  0  0  0  0  0  0  0  0  0
   -9.2787    2.5744   27.1970 C   0  0  0  0  0  0  0  0  0  0  0  0
  -10.0108    3.6770   27.6340 C   0  0  0  0  0  0  0  0  0  0  0  0
  -11.4855    3.5731   27.7420 C   0  0  0  0  0  0  0  0  0  0  0  0
  -12.3115    4.3555   27.3965 C   0  0  0  0  0  0  0  0  0  0  0  0
  -13.6950    4.4264   27.6217 C   0  0  0  0  0  0  0  0  0  0  0  0
  -12.0395    2.4852   28.5248 C   0  0  0  0  0  0  0  0  0  0  0  0
  -13.3492    2.3553   28.8058 C   0  0  0  0  0  0  0  0  0  0  0  0
  -14.1844    3.3825   28.3437 C   0  0  0  0  0  0  0  0  0  0  0  0
   -6.9371    1.2921   26.7267 Cl  0  0  0  0  0  0  0  0  0  0  0  0
   -7.3251    6.0912   28.0639 O   0  0  0  0  0  0  0  0  0  0  0  0
  -15.9016    3.2504   28.5864 Cl  0  0  0  0  0  0  0  0  0  0  0  0
  -13.9095    1.2196   29.6070 C   0  0  0  0  0  0  0  0  0  0  0  0
  -13.5578   -0.0595   29.1899 C   0  0  0  0  0  0  0  0  0  0  0  0
  -13.9571   -1.1408   30.0154 C   0  0  0  0  0  0  0  0  0  0  0  0
  -14.6711   -0.8762   31.1728 C   0  0  0  0  0  0  0  0  0  0  0  0
  -14.9277    0.3904   31.6017 C   0  0  0  0  0  0  0  0  0  0  0  0
  -14.4988    1.4793   30.8725 C   0  0  0  0  0  0  0  0  0  0  0  0
  -13.7029   -2.5073   29.5412 C   0  0  0  0  0  0  0  0  0  0  0  0
  -14.4361   -3.7608   29.5008 Cl  0  0  0  0  0  0  0  0  0  0  0  0
  -12.2579   -2.5540   28.9768 C   0  0  0  0  0  0  0  0  0  0  0  0
  -12.0378   -3.3770   28.0767 C   0  0  0  0  0  0  0  0  0  0  0  0
  -10.6817   -3.4232   27.5238 C   0  0  0  0  0  0  0  0  0  0  0  0
   -9.6814   -2.5217   27.9770 C   0  0  0  0  0  0  0  0  0  0  0  0
  -10.0540   -1.5997   29.0204 C   0  0  0  0  0  0  0  0  0  0  0  0
  6  7  1  0
  4 13  1  0
  2 14  1  0
 12 15  1  0
 11 16  1  0
 18 22  1  0
 22 23  1  0
 22 24  1  0
 24 25  2  3
 25 26  1  0
 26 27  2  3
 27 28  1  0
  1  2  2  0
  2  3  1  0
  3  6  2  0
  6  5  1  0
  5  4  2  0
  4  1  1  0
  7  8  2  0
  8  9  1  0
  9 12  2  0
 12 11  1  0
 11 10  2  0
 10  7  1  0
 16 17  2  0
 17 18  1  0
 18 19  2  0
 19 20  1  0
 20 21  2  0
 21 16  1  0
M  END
$$$$
