No_5586-complexes_sdf/6BKW-FPZ/2024-09-17-14-21-01/
     RDKit          3D

 22 24  0  0  0  0  0  0  0  0999 V2000
   -7.9040    3.9820   27.1177 C   0  0  0  0  0  0  0  0  0  0  0  0
   -7.8663    4.8694   27.9238 C   0  0  0  0  0  0  0  0  0  0  0  0
   -7.4547    2.7080   27.4594 C   0  0  0  0  0  0  0  0  0  0  0  0
   -8.7044    6.0412   27.8492 C   0  0  0  0  0  0  0  0  0  0  0  0
   -6.0327    2.6839   27.7677 C   0  0  0  0  0  0  0  0  0  0  0  0
   -5.4461    1.4338   28.1200 C   0  0  0  0  0  0  0  0  0  0  0  0
   -6.1237    0.2685   27.9529 C   0  0  0  0  0  0  0  0  0  0  0  0
   -8.0296    1.4823   27.2081 C   0  0  0  0  0  0  0  0  0  0  0  0
   -9.3904    1.4806   26.7145 C   0  0  0  0  0  0  0  0  0  0  0  0
   -7.4164    0.2865   27.4422 C   0  0  0  0  0  0  0  0  0  0  0  0
  -10.3525    1.6093   27.5820 C   0  0  0  0  0  0  0  0  0  0  0  0
  -11.7523    1.6583   27.2781 C   0  0  0  0  0  0  0  0  0  0  0  0
  -12.0377    1.5854   25.9387 C   0  0  0  0  0  0  0  0  0  0  0  0
   -9.7117    1.4625   25.3627 C   0  0  0  0  0  0  0  0  0  0  0  0
  -10.9985    1.5478   24.9513 C   0  0  0  0  0  0  0  0  0  0  0  0
   -8.5462    4.2703   25.9131 C   0  0  0  0  0  0  0  0  0  0  0  0
   -9.3259    5.4258   25.6593 C   0  0  0  0  0  0  0  0  0  0  0  0
   -9.2126    6.4341   26.6108 C   0  0  0  0  0  0  0  0  0  0  0  0
  -11.3387    1.5228   23.5189 C   0  0  0  0  0  0  0  0  0  0  0  0
  -10.6395    2.2720   22.7275 C   0  0  0  0  0  0  0  0  0  0  0  0
  -10.7435    2.7159   21.7315 C   0  0  0  0  0  0  0  0  0  0  0  0
   -9.7688    3.5520   20.9196 C   0  0  0  0  0  0  0  0  0  0  0  0
  1  3  1  0
  8  9  1  0
 15 19  1  0
 19 20  1  0
 20 21  2  3
 21 22  1  0
  3  5  2  0
  5  6  1  0
  6  7  2  0
  7 10  1  0
 10  8  2  0
  8  3  1  0
  9 11  2  0
 11 12  1  0
 12 13  2  0
 13 15  1  0
 15 14  2  0
 14  9  1  0
  1  2  2  0
  2  4  1  0
  4 18  2  0
 18 17  1  0
 17 16  2  0
 16  1  1  0
M  END
$$$$
