No_5487-complexes_sdf/6BKW-FPZ/2024-09-17-14-21-01/
     RDKit          3D

 26 30  0  0  0  0  0  0  0  0999 V2000
   -7.9040    3.9820   27.1177 C   0  0  0  0  0  0  0  0  0  0  0  0
   -7.8663    4.8694   27.9238 C   0  0  0  0  0  0  0  0  0  0  0  0
   -9.0501    3.8017   26.2617 C   0  0  0  0  0  0  0  0  0  0  0  0
   -9.1826    2.7026   25.3575 C   0  0  0  0  0  0  0  0  0  0  0  0
   -8.6940    6.0131   27.8614 C   0  0  0  0  0  0  0  0  0  0  0  0
   -9.9755    4.8547   26.2361 C   0  0  0  0  0  0  0  0  0  0  0  0
   -9.7463    5.9398   27.0364 C   0  0  0  0  0  0  0  0  0  0  0  0
   -8.6850    1.4682   25.7485 C   0  0  0  0  0  0  0  0  0  0  0  0
   -9.8790    2.8113   24.1394 C   0  0  0  0  0  0  0  0  0  0  0  0
   -8.1241    1.2661   26.9746 C   0  0  0  0  0  0  0  0  0  0  0  0
   -7.4140    2.5831   27.5327 C   0  0  0  0  0  0  0  0  0  0  0  0
   -9.9847    1.7880   23.2277 C   0  0  1  0  0  0  0  0  0  0  0  0
   -9.3678    0.5304   23.6619 C   0  0  0  0  0  0  0  0  0  0  0  0
   -8.7715    0.3889   24.8402 C   0  0  1  0  0  0  0  0  0  0  0  0
   -9.4670   -0.5585   22.6292 C   0  0  0  0  0  0  0  0  0  0  0  0
   -8.4018   -1.2551   22.3889 C   0  0  0  0  0  0  0  0  0  0  0  0
   -7.1918   -1.0602   23.1866 C   0  0  0  0  0  0  0  0  0  0  0  0
   -7.4766   -0.4892   24.5740 C   0  0  1  0  0  0  0  0  0  0  0  0
  -10.7491    1.9877   22.0734 C   0  0  0  0  0  0  0  0  0  0  0  0
  -10.5078    2.9824   21.3513 N   0  0  0  0  0  0  0  0  0  0  0  0
  -11.0227    3.2298   20.1177 C   0  0  0  0  0  0  0  0  0  0  0  0
  -11.5759    1.1516   21.7445 O   0  0  0  0  0  0  0  0  0  0  0  0
   -9.7179   -0.6873   25.6006 C   0  0  0  0  0  0  0  0  0  0  0  0
   -9.0956   -1.7574   26.1035 C   0  0  0  0  0  0  0  0  0  0  0  0
   -6.3715    0.3315   24.8684 F   0  0  0  0  0  0  0  0  0  0  0  0
   -7.6072   -1.6529   25.5026 C   0  0  0  0  0  0  0  0  0  0  0  0
  4  9  1  0
 12 13  1  0
  8 14  1  0
 13 14  1  0
 13 15  1  0
 16 17  1  0
 14 18  1  0
 17 18  1  0
 12 19  1  1
 19 20  1  0
 20 21  1  0
 19 22  2  0
 14 23  1  1
 23 24  1  0
 18 25  1  1
 18 26  1  0
 24 26  1  0
  9 12  1  0
 15 16  1  0
  1  2  2  0
  2  5  1  0
  5  7  2  0
  7  6  1  0
  6  3  2  0
  1  3  1  0
  3  4  1  0
  4  8  2  0
  8 10  1  0
 10 11  2  0
 11  1  1  0
M  END
$$$$
