No_5050-complexes_sdf/6BKW-FPZ/2024-09-17-14-21-01/
     RDKit          3D

 25 27  0  0  0  0  0  0  0  0999 V2000
   -7.2496    3.8871   27.4508 C   0  0  0  0  0  0  0  0  0  0  0  0
   -7.6161    2.7143   27.1523 C   0  0  0  0  0  0  0  0  0  0  0  0
   -8.8302    2.4659   26.5056 C   0  0  0  0  0  0  0  0  0  0  0  0
   -8.1584    5.0090   27.3234 C   0  0  0  0  0  0  0  0  0  0  0  0
   -9.3788    4.7965   26.7695 C   0  0  0  0  0  0  0  0  0  0  0  0
   -9.7028    3.5649   26.3276 C   0  0  0  0  0  0  0  0  0  0  0  0
   -6.5671    1.3685   27.4084 Cl  0  0  0  0  0  0  0  0  0  0  0  0
   -7.8894    6.2440   27.8380 F   0  0  0  0  0  0  0  0  0  0  0  0
  -11.0015    3.3662   25.6446 C   0  0  0  0  0  0  0  0  0  0  0  0
  -11.1101    3.7778   24.3526 C   0  0  0  0  0  0  0  0  0  0  0  0
  -12.3152    3.9194   23.6909 C   0  0  0  0  0  0  0  0  0  0  0  0
  -13.4878    3.5376   24.3903 C   0  0  0  0  0  0  0  0  0  0  0  0
  -12.1489    3.1402   26.3758 C   0  0  0  0  0  0  0  0  0  0  0  0
  -13.4135    3.2474   25.7546 C   0  0  0  0  0  0  0  0  0  0  0  0
  -12.0984    2.9033   27.6639 F   0  0  0  0  0  0  0  0  0  0  0  0
  -12.3637    4.2834   22.2562 C   0  0  0  0  0  0  0  0  0  0  0  0
  -11.8102    3.3100   21.3981 C   0  0  0  0  0  0  0  0  0  0  0  0
  -11.6870    3.6524   20.1017 C   0  0  0  0  0  0  0  0  0  0  0  0
  -10.9714    2.8384   19.1804 C   0  0  0  0  0  0  0  0  0  0  0  0
  -10.5582    1.5948   19.6575 C   0  0  0  0  0  0  0  0  0  0  0  0
  -10.6579    1.2404   20.9550 C   0  0  0  0  0  0  0  0  0  0  0  0
  -11.2224    2.1296   21.8479 C   0  0  0  0  0  0  0  0  0  0  0  0
  -10.1753   -0.0177   21.5313 C   0  0  0  0  0  0  0  0  0  0  0  0
  -10.5699   -1.0969   21.3627 C   0  0  0  0  0  0  0  0  0  0  0  0
  -10.3351   -2.1358   21.6856 C   0  0  0  0  0  0  0  0  0  0  0  0
  2  7  1  0
  4  8  1  0
  6  9  1  0
 13 15  1  0
 11 16  1  0
 16 17  1  0
 21 23  1  0
 23 24  2  3
 24 25  1  0
 17 18  2  0
 18 19  1  0
 19 20  2  0
 20 21  1  0
 21 22  2  0
 22 17  1  0
  1  2  2  0
  2  3  1  0
  3  6  2  0
  6  5  1  0
  5  4  2  0
  4  1  1  0
  9 10  2  0
 10 11  1  0
 11 12  2  0
 12 14  1  0
 14 13  2  0
 13  9  1  0
M  END
$$$$
