No_5048-complexes_sdf/6BKW-FPZ/2024-09-17-14-21-01/
     RDKit          3D

 30 33  0  0  0  0  0  0  0  0999 V2000
   -7.7129    4.2099   27.0854 C   0  0  0  0  0  0  0  0  0  0  0  0
   -7.7814    5.1722   27.8972 C   0  0  0  0  0  0  0  0  0  0  0  0
   -8.8776    3.8408   26.3416 C   0  0  0  0  0  0  0  0  0  0  0  0
   -9.9844    4.6492   26.4743 C   0  0  0  0  0  0  0  0  0  0  0  0
   -8.7830    6.1594   27.8870 C   0  0  0  0  0  0  0  0  0  0  0  0
   -9.9269    5.8191   27.1183 C   0  0  0  0  0  0  0  0  0  0  0  0
   -8.6731    2.5840   25.5890 C   0  0  0  0  0  0  0  0  0  0  0  0
   -9.5461    1.6309   26.0875 C   0  0  0  0  0  0  0  0  0  0  0  0
  -10.6239    1.6591   26.6548 C   0  0  0  0  0  0  0  0  0  0  0  0
  -11.1458    1.0783   27.2836 C   0  0  0  0  0  0  0  0  0  0  0  0
  -10.7065   -0.4077   27.4539 C   0  0  0  0  0  0  0  0  0  0  0  0
   -9.5601   -0.6847   26.8222 C   0  0  0  0  0  0  0  0  0  0  0  0
   -8.8082    0.2871   26.1784 C   0  0  0  0  0  0  0  0  0  0  0  0
   -7.5656   -0.0146   25.5273 C   0  0  0  0  0  0  0  0  0  0  0  0
   -7.5918   -0.6730   24.5216 C   0  0  0  0  0  0  0  0  0  0  0  0
   -6.2673   -1.1168   23.9761 C   0  0  0  0  0  0  0  0  0  0  0  0
   -5.0914   -0.9314   24.6412 C   0  0  0  0  0  0  0  0  0  0  0  0
   -5.1803   -0.2556   25.9125 C   0  0  0  0  0  0  0  0  0  0  0  0
   -6.3478    0.1714   26.4032 C   0  0  0  0  0  0  0  0  0  0  0  0
   -6.2618   -1.7873   22.6703 C   0  0  0  0  0  0  0  0  0  0  0  0
   -5.4820   -2.5813   22.3607 O   0  0  0  0  0  0  0  0  0  0  0  0
   -7.2494   -1.4585   21.7966 O   0  0  0  0  0  0  0  0  0  0  0  0
  -11.1521    4.3704   25.6626 C   0  0  0  0  0  0  0  0  0  0  0  0
  -11.1712    3.3847   25.0220 C   0  0  0  0  0  0  0  0  0  0  0  0
  -11.3655    2.1832   25.7519 C   0  0  0  0  0  0  0  0  0  0  0  0
   -8.8496   -1.9682   27.2251 C   0  0  1  0  0  0  0  0  0  0  0  0
   -8.0176   -1.8788   28.6045 Cl  0  0  0  0  0  0  0  0  0  0  0  0
   -8.9883   -3.0958   26.4882 C   0  0  0  0  0  0  0  0  0  0  0  0
   -9.9985   -3.4779   25.7787 C   0  0  0  0  0  0  0  0  0  0  0  0
   -9.9601   -4.5977   24.9482 C   0  0  0  0  0  0  0  0  0  0  0  0
  3  7  1  0
  7  8  1  0
 13 14  1  0
 16 20  1  0
 20 21  2  0
 20 22  1  0
  4 23  1  0
 23 24  2  3
  9 25  1  0
 24 25  1  0
 12 26  1  0
 26 27  1  1
 26 28  1  0
 28 29  2  3
 29 30  1  0
 14 15  2  0
 15 16  1  0
 16 17  2  0
 17 18  1  0
 18 19  2  0
 19 14  1  0
  8  9  2  0
  9 10  1  0
 10 11  2  0
 11 12  1  0
 12 13  2  0
 13  8  1  0
  1  2  2  0
  2  5  1  0
  5  6  2  0
  6  4  1  0
  4  3  2  0
  3  1  1  0
M  END
$$$$
