No_5533-complexes_sdf/6BKW-FPZ/2024-09-17-14-21-01/
     RDKit          3D

 31 33  0  0  0  0  0  0  0  0999 V2000
   -7.2496    3.8871   27.4508 C   0  0  1  0  0  0  0  0  0  0  0  0
   -8.5096    4.0291   27.2770 C   0  0  0  0  0  0  0  0  0  0  0  0
   -9.2677    5.1714   27.5773 C   0  0  0  0  0  0  0  0  0  0  0  0
   -9.2765    2.8248   26.8371 C   0  0  0  0  0  0  0  0  0  0  0  0
  -10.4623    3.0171   26.3236 C   0  0  0  0  0  0  0  0  0  0  0  0
  -11.3015    3.9610   26.8543 C   0  0  0  0  0  0  0  0  0  0  0  0
  -12.7677    4.0804   26.5145 C   0  0  0  0  0  0  0  0  0  0  0  0
  -10.7669    5.1475   27.5187 C   0  0  0  0  0  0  0  0  0  0  0  0
   -6.5573    5.0070   27.7624 F   0  0  0  0  0  0  0  0  0  0  0  0
   -6.7402    2.7988   28.3877 C   0  0  0  0  0  0  0  0  0  0  0  0
  -13.6579    4.2759   27.5733 C   0  0  0  0  0  0  0  0  0  0  0  0
  -13.2535    4.0995   28.8313 C   0  0  0  0  0  0  0  0  0  0  0  0
  -14.1935    4.2301   29.9243 C   0  0  0  0  0  0  0  0  0  0  0  0
   -5.9825    1.9313   27.3278 C   0  0  0  0  0  0  0  0  0  0  0  0
   -5.5849    0.6108   27.9272 C   0  0  0  0  0  0  0  0  0  0  0  0
   -5.3765   -0.3388   27.0336 C   0  0  2  0  0  0  0  0  0  0  0  0
  -15.3801    4.9005   29.6847 C   0  0  0  0  0  0  0  0  0  0  0  0
  -14.9484    4.8680   27.3812 C   0  0  0  0  0  0  0  0  0  0  0  0
  -15.7777    5.1554   28.3958 C   0  0  0  0  0  0  0  0  0  0  0  0
   -4.0978   -0.8577   26.4663 Cl  0  0  0  0  0  0  0  0  0  0  0  0
   -6.3110   -0.1234   25.8445 N   0  0  0  0  0  0  0  0  0  0  0  0
   -6.4657   -1.0668   24.8717 C   0  0  0  0  0  0  0  0  0  0  0  0
   -7.1972   -0.5968   23.7526 C   0  0  0  0  0  0  0  0  0  0  0  0
   -7.2128   -1.3231   22.6072 C   0  0  0  0  0  0  0  0  0  0  0  0
   -6.4837   -2.5585   22.4807 C   0  0  0  0  0  0  0  0  0  0  0  0
   -5.7249   -2.9324   23.5555 C   0  0  0  0  0  0  0  0  0  0  0  0
   -5.6409   -2.1708   24.6720 C   0  0  0  0  0  0  0  0  0  0  0  0
  -11.0070    2.0577   25.3848 C   0  0  0  0  0  0  0  0  0  0  0  0
  -10.6269    2.3035   23.9964 C   0  0  0  0  0  0  0  0  0  0  0  0
   -9.9620    3.2319   23.6264 C   0  0  0  0  0  0  0  0  0  0  0  0
   -9.7942    3.5713   22.2209 C   0  0  0  0  0  0  0  0  0  0  0  0
  1  2  1  0
  6  7  1  0
  1  9  1  1
  1 10  1  0
  7 11  1  0
 10 14  1  0
 14 15  1  0
 15 16  1  0
 16 20  1  6
 16 21  1  0
 21 22  1  0
  5 28  1  0
 28 29  1  0
 29 30  2  3
 30 31  1  0
 22 23  2  0
 23 24  1  0
 24 25  2  0
 25 26  1  0
 26 27  2  0
 27 22  1  0
 11 12  2  0
 12 13  1  0
 13 17  2  0
 17 19  1  0
 19 18  2  0
 18 11  1  0
  2  3  2  0
  3  8  1  0
  8  6  2  0
  6  5  1  0
  5  4  2  0
  4  2  1  0
M  END
$$$$
