No_548-complexes_sdf/6BKW-FPZ/2024-09-17-14-21-01/
     RDKit          3D

 26 29  0  0  0  0  0  0  0  0999 V2000
   -7.9040    3.9820   27.1177 C   0  0  0  0  0  0  0  0  0  0  0  0
   -7.8663    4.8694   27.9238 C   0  0  0  0  0  0  0  0  0  0  0  0
   -9.0501    3.8017   26.2617 C   0  0  0  0  0  0  0  0  0  0  0  0
  -10.0189    4.7608   26.3707 C   0  0  0  0  0  0  0  0  0  0  0  0
   -8.6973    5.9722   27.8968 C   0  0  0  0  0  0  0  0  0  0  0  0
   -9.8216    5.8946   27.1241 C   0  0  0  0  0  0  0  0  0  0  0  0
   -9.1445    2.6271   25.4265 C   0  0  0  0  0  0  0  0  0  0  0  0
   -9.9972    2.7053   24.3067 C   0  0  0  0  0  0  0  0  0  0  0  0
  -10.1490    1.5913   23.5400 C   0  0  0  0  0  0  0  0  0  0  0  0
   -9.3267    0.4241   23.7814 C   0  0  0  0  0  0  0  0  0  0  0  0
   -8.5036    0.4076   24.8662 C   0  0  0  0  0  0  0  0  0  0  0  0
   -8.3753    1.5006   25.7023 C   0  0  0  0  0  0  0  0  0  0  0  0
  -11.1465    1.6092   22.1652 Cl  0  0  0  0  0  0  0  0  0  0  0  0
   -7.7027   -0.8040   25.1295 C   0  0  0  0  0  0  0  0  0  0  0  0
   -7.0694   -1.3047   24.3258 O   0  0  0  0  0  0  0  0  0  0  0  0
   -7.6323   -1.2105   26.3902 O   0  0  0  0  0  0  0  0  0  0  0  0
   -7.0076   -2.2943   26.8219 C   0  0  0  0  0  0  0  0  0  0  0  0
   -6.7626   -2.3935   28.0220 C   0  0  0  0  0  0  0  0  0  0  0  0
   -6.0578   -3.5485   28.6279 C   0  0  0  0  0  0  0  0  0  0  0  0
   -5.6664   -4.4962   27.7193 C   0  0  0  0  0  0  0  0  0  0  0  0
   -5.0141   -5.5982   28.1697 C   0  0  0  0  0  0  0  0  0  0  0  0
   -5.9250   -4.2665   26.3414 C   0  0  0  0  0  0  0  0  0  0  0  0
   -6.5679   -3.1677   25.9041 C   0  0  0  0  0  0  0  0  0  0  0  0
   -4.4421   -5.5186   29.3705 C   0  0  0  0  0  0  0  0  0  0  0  0
   -4.9395   -4.5287   30.3363 C   0  0  0  0  0  0  0  0  0  0  0  0
   -5.6434   -3.4592   29.9626 C   0  0  0  0  0  0  0  0  0  0  0  0
  3  7  1  0
  9 13  1  0
 11 14  1  0
 14 15  2  0
 14 16  1  0
 16 17  1  0
 17 18  2  0
 18 19  1  0
 20 22  1  0
 22 23  2  0
 23 17  1  0
  1  2  2  0
  2  5  1  0
  5  6  2  0
  6  4  1  0
  4  3  2  0
  3  1  1  0
  7  8  2  0
  8  9  1  0
  9 10  2  0
 10 11  1  0
 11 12  2  0
 12  7  1  0
 19 20  2  0
 20 21  1  0
 21 24  2  0
 24 25  1  0
 25 26  2  0
 26 19  1  0
M  END
$$$$
