No_5430-complexes_sdf/6BKW-FPZ/2024-09-17-14-21-01/
     RDKit          3D

 25 28  0  0  0  0  0  0  0  0999 V2000
   -7.9040    3.9820   27.1177 C   0  0  0  0  0  0  0  0  0  0  0  0
   -7.8663    4.8694   27.9238 C   0  0  0  0  0  0  0  0  0  0  0  0
   -9.0491    3.8523   26.2542 C   0  0  0  0  0  0  0  0  0  0  0  0
   -8.7661    5.9491   27.9690 C   0  0  0  0  0  0  0  0  0  0  0  0
   -9.9295    4.8502   26.2323 C   0  0  0  0  0  0  0  0  0  0  0  0
   -9.8077    5.9288   27.0933 C   0  0  0  0  0  0  0  0  0  0  0  0
   -9.0726    2.7074   25.3087 C   0  0  1  0  0  0  0  0  0  0  0  0
   -8.6026    1.4628   25.7488 C   0  0  0  0  0  0  0  0  0  0  0  0
   -9.9318    2.8541   24.1501 C   0  0  0  0  0  0  0  0  0  0  0  0
   -8.0066    1.2801   26.9567 C   0  0  0  0  0  0  0  0  0  0  0  0
   -7.4388   -0.0169   27.2951 C   0  0  0  0  0  0  0  0  0  0  0  0
   -8.0717   -1.0924   26.8572 C   0  0  0  0  0  0  0  0  0  0  0  0
   -8.8912   -0.9277   25.6665 C   0  0  0  0  0  0  0  0  0  0  0  0
   -9.1947    0.3176   25.0956 C   0  0  0  0  0  0  0  0  0  0  0  0
  -10.9238    3.1636   24.0806 C   0  0  0  0  0  0  0  0  0  0  0  0
  -11.6864    3.2978   23.0281 C   0  0  0  0  0  0  0  0  0  0  0  0
  -13.0617    3.8312   23.0401 C   0  0  0  0  0  0  0  0  0  0  0  0
  -13.5456    4.2434   24.3001 C   0  0  0  0  0  0  0  0  0  0  0  0
  -12.8663    4.1444   25.4351 C   0  0  0  0  0  0  0  0  0  0  0  0
  -11.6144    3.6459   25.4417 C   0  0  0  0  0  0  0  0  0  0  0  0
  -11.1636    4.6312   25.8276 N   0  0  0  0  0  0  0  0  0  0  0  0
  -12.1753    5.4874   26.4282 C   0  0  2  0  0  0  0  0  0  0  0  0
  -12.7167    4.9414   27.7295 C   0  0  0  0  0  0  0  0  0  0  0  0
  -13.1994    5.7056   26.6079 C   0  0  0  0  0  0  0  0  0  0  0  0
  -14.3439    4.8320   25.9990 C   0  0  0  0  0  0  0  0  0  0  0  0
  3  7  1  0
  7  9  1  0
  5 21  1  0
 20 21  1  0
 21 22  1  0
 22 23  1  1
 22 24  1  0
 24 25  1  0
  9 15  1  0
  7  8  1  1
  8 10  2  0
 10 11  1  0
 11 12  2  0
 12 13  1  0
 13 14  2  0
 14  8  1  0
  1  2  2  0
  2  4  1  0
  4  6  2  0
  6  5  1  0
  5  3  2  0
  3  1  1  0
 15 16  2  0
 16 17  1  0
 17 18  2  0
 18 19  1  0
 19 20  2  0
 20 15  1  0
M  END
$$$$
