No_5046-complexes_sdf/6BKW-FPZ/2024-09-17-14-21-01/
     RDKit          3D

 32 36  0  0  0  0  0  0  0  0999 V2000
   -7.7129    4.2099   27.0854 C   0  0  0  0  0  0  0  0  0  0  0  0
   -8.9133    4.4736   27.0998 C   0  0  0  0  0  0  0  0  0  0  0  0
   -9.7937    3.7367   26.2091 C   0  0  0  0  0  0  0  0  0  0  0  0
   -6.8266    5.0441   28.0594 C   0  0  0  0  0  0  0  0  0  0  0  0
   -9.2322    2.6276   25.6126 C   0  0  0  0  0  0  0  0  0  0  0  0
   -7.9794    2.1924   25.9863 C   0  0  0  0  0  0  0  0  0  0  0  0
   -7.2411    2.9387   26.9009 C   0  0  0  0  0  0  0  0  0  0  0  0
  -10.0894    1.7793   24.7540 C   0  0  0  0  0  0  0  0  0  0  0  0
  -10.0282    2.1971   23.3715 C   0  0  0  0  0  0  0  0  0  0  0  0
  -10.1318    3.4632   22.9469 C   0  0  0  0  0  0  0  0  0  0  0  0
  -10.2429    3.8922   21.6365 C   0  0  0  0  0  0  0  0  0  0  0  0
  -10.0502    2.8986   20.6707 C   0  0  0  0  0  0  0  0  0  0  0  0
   -9.9014    1.2407   22.3375 C   0  0  0  0  0  0  0  0  0  0  0  0
   -9.8952    1.6157   21.0247 C   0  0  0  0  0  0  0  0  0  0  0  0
   -9.6477    0.3069   24.8503 C   0  0  0  0  0  0  0  0  0  0  0  0
  -11.5974    1.9292   25.1456 C   0  0  0  0  0  0  0  0  0  0  0  0
  -12.2742    1.3381   25.7363 C   0  0  0  0  0  0  0  0  0  0  0  0
  -13.4168    1.4640   26.1678 C   0  0  0  0  0  0  0  0  0  0  0  0
  -14.0537    2.7231   25.8352 C   0  0  0  0  0  0  0  0  0  0  0  0
  -13.3744    3.6484   25.0865 C   0  0  0  0  0  0  0  0  0  0  0  0
  -12.0727    3.3455   24.8168 C   0  0  0  0  0  0  0  0  0  0  0  0
  -10.1783   -0.6346   25.3974 C   0  0  0  0  0  0  0  0  0  0  0  0
   -9.6801   -1.9063   25.5241 C   0  0  0  0  0  0  0  0  0  0  0  0
   -8.4225   -1.9911   24.9467 C   0  0  0  0  0  0  0  0  0  0  0  0
   -8.2897   -0.2180   24.4593 C   0  0  0  0  0  0  0  0  0  0  0  0
   -7.4003   -2.7618   24.7150 C   0  0  0  0  0  0  0  0  0  0  0  0
   -7.2137   -3.2745   23.8003 N   0  0  0  0  0  0  0  0  0  0  0  0
   -6.3560   -2.6505   25.6646 N   0  0  0  0  0  0  0  0  0  0  0  0
   -5.2412   -3.4770   25.4210 C   0  0  0  0  0  0  0  0  0  0  0  0
   -6.1457   -4.1470   23.3929 C   0  0  0  0  0  0  0  0  0  0  0  0
   -5.1305   -4.2188   24.3260 C   0  0  0  0  0  0  0  0  0  0  0  0
   -9.4133    5.8624   27.4967 C   0  0  0  0  0  0  0  0  0  0  0  0
  1  4  1  0
  5  8  1  0
  8  9  1  0
  8 15  1  0
  8 16  1  0
 15 22  2  0
 22 23  1  0
 23 24  2  0
 15 25  1  0
 24 25  1  0
 24 26  1  0
  2 32  1  0
 26 27  2  0
 27 30  1  0
 30 31  2  0
 31 29  1  0
 29 28  2  0
 28 26  1  0
 16 17  2  0
 17 18  1  0
 18 19  2  0
 19 20  1  0
 20 21  2  0
 21 16  1  0
  9 10  2  0
 10 11  1  0
 11 12  2  0
 12 14  1  0
 14 13  2  0
 13  9  1  0
  1  2  2  0
  2  3  1  0
  3  5  2  0
  5  6  1  0
  6  7  2  0
  7  1  1  0
M  END
$$$$
