No_592-complexes_sdf/6BKW-FPZ/2024-09-17-14-21-01/
     RDKit          3D

 39 44  0  0  0  0  0  0  0  0999 V2000
   -7.2496    3.8871   27.4508 C   0  0  0  0  0  0  0  0  0  0  0  0
   -7.9379    4.9063   27.8518 C   0  0  0  0  0  0  0  0  0  0  0  0
   -9.3376    4.8647   27.7795 C   0  0  0  0  0  0  0  0  0  0  0  0
   -7.8544    2.6294   27.0414 C   0  0  0  0  0  0  0  0  0  0  0  0
   -9.2665    2.6175   27.0340 C   0  0  0  0  0  0  0  0  0  0  0  0
   -9.9836    3.7042   27.4150 C   0  0  0  0  0  0  0  0  0  0  0  0
   -7.3185    1.4719   26.7855 N   0  0  0  0  0  0  0  0  0  0  0  0
   -6.2118    1.0194   27.4931 C   0  0  0  0  0  0  0  0  0  0  0  0
   -5.6733   -0.2387   27.1294 C   0  0  0  0  0  0  0  0  0  0  0  0
   -7.8035    0.5596   25.9099 C   0  0  0  0  0  0  0  0  0  0  0  0
   -8.9709    0.9354   25.2424 C   0  0  0  0  0  0  0  0  0  0  0  0
   -9.8847    1.9382   25.8691 C   0  0  0  0  0  0  0  0  0  0  0  0
   -4.4973   -0.6082   27.9460 C   0  0  0  0  0  0  0  0  0  0  0  0
   -3.9773    0.2644   28.9137 C   0  0  0  0  0  0  0  0  0  0  0  0
   -4.5424    1.5240   29.0809 C   0  0  0  0  0  0  0  0  0  0  0  0
   -5.5409    1.8856   28.3636 C   0  0  0  0  0  0  0  0  0  0  0  0
   -7.2950    6.1567   28.3672 C   0  0  0  0  0  0  0  0  0  0  0  0
   -2.7811   -0.1573   29.7139 C   0  0  0  0  0  0  0  0  0  0  0  0
   -2.8813   -1.2772   30.2264 F   0  0  0  0  0  0  0  0  0  0  0  0
   -1.6914   -0.1375   28.8982 F   0  0  0  0  0  0  0  0  0  0  0  0
   -2.6070    0.6986   30.7534 F   0  0  0  0  0  0  0  0  0  0  0  0
  -11.4960    3.6487   27.5768 C   0  0  0  0  0  0  0  0  0  0  0  0
  -11.9067    3.8081   28.8840 C   0  0  0  0  0  0  0  0  0  0  0  0
  -13.3360    3.7674   29.2137 C   0  0  0  0  0  0  0  0  0  0  0  0
  -14.1988    3.9789   28.1432 C   0  0  0  0  0  0  0  0  0  0  0  0
  -13.7307    3.9983   26.8182 C   0  0  0  0  0  0  0  0  0  0  0  0
  -12.3517    3.9245   26.5436 C   0  0  0  0  0  0  0  0  0  0  0  0
  -13.7973    3.7193   30.6006 C   0  0  0  0  0  0  0  0  0  0  0  0
  -14.7355    4.4807   31.0952 C   0  0  0  0  0  0  0  0  0  0  0  0
  -15.1311    4.5580   32.2821 C   0  0  0  0  0  0  0  0  0  0  0  0
  -14.4444    3.8043   33.3147 C   0  0  0  0  0  0  0  0  0  0  0  0
  -13.4192    2.9574   32.8913 C   0  0  0  0  0  0  0  0  0  0  0  0
  -13.0101    2.9462   31.5671 C   0  0  0  0  0  0  0  0  0  0  0  0
  -11.9210    4.0395   25.1676 C   0  0  0  0  0  0  0  0  0  0  0  0
  -10.7013    4.3945   24.7499 C   0  0  0  0  0  0  0  0  0  0  0  0
  -10.4413    4.6540   23.3767 C   0  0  0  0  0  0  0  0  0  0  0  0
  -12.8253    3.6738   24.1434 C   0  0  0  0  0  0  0  0  0  0  0  0
  -12.5963    3.9004   22.8403 C   0  0  0  0  0  0  0  0  0  0  0  0
  -11.3157    4.3989   22.4451 C   0  0  0  0  0  0  0  0  0  0  0  0
  4  7  1  0
  7  8  1  0
  7 10  1  0
 10 11  1  0
  5 12  1  0
 11 12  1  0
  2 17  1  0
 14 18  1  0
 18 19  1  0
 18 20  1  0
 18 21  1  0
  6 22  1  0
 24 28  1  0
 27 34  1  0
  1  2  2  0
  2  3  1  0
  3  6  2  0
  6  5  1  0
  5  4  2  0
  4  1  1  0
  8  9  2  0
  9 13  1  0
 13 14  2  0
 14 15  1  0
 15 16  2  0
 16  8  1  0
 22 23  2  0
 23 24  1  0
 24 25  2  0
 25 26  1  0
 26 27  2  0
 27 22  1  0
 34 35  2  0
 35 36  1  0
 36 39  2  0
 39 38  1  0
 38 37  2  0
 37 34  1  0
 28 29  2  0
 29 30  1  0
 30 31  2  0
 31 32  1  0
 32 33  2  0
 33 28  1  0
M  END
$$$$
