No_5488-complexes_sdf/6BKW-FPZ/2024-09-17-14-21-01/
     RDKit          3D

 27 29  0  0  0  0  0  0  0  0999 V2000
   -7.9040    3.9820   27.1177 C   0  0  0  0  0  0  0  0  0  0  0  0
   -8.2057    2.8231   26.8733 C   0  0  0  0  0  0  0  0  0  0  0  0
   -8.7695    5.0740   26.7916 C   0  0  0  0  0  0  0  0  0  0  0  0
   -9.9618    4.7598   26.1630 C   0  0  0  0  0  0  0  0  0  0  0  0
   -9.4200    2.4524   26.2849 C   0  0  0  0  0  0  0  0  0  0  0  0
  -10.2590    3.4815   25.9250 C   0  0  0  0  0  0  0  0  0  0  0  0
   -8.6094    6.4941   27.0911 C   0  0  0  0  0  0  0  0  0  0  0  0
   -8.0678    6.9159   28.1425 N   0  0  0  0  0  0  0  0  0  0  0  0
   -8.6394    7.3432   26.1101 O   0  0  0  0  0  0  0  0  0  0  0  0
   -7.2679    1.6843   27.2920 C   0  0  2  0  0  0  0  0  0  0  0  0
   -6.1077    1.9929   27.8386 N   0  0  0  0  0  0  0  0  0  0  0  0
   -7.5049    0.3417   27.0286 C   0  0  0  0  0  0  0  0  0  0  0  0
   -5.2111    0.9977   28.1770 C   0  0  0  0  0  0  0  0  0  0  0  0
   -6.6529   -0.6345   27.4361 C   0  0  0  0  0  0  0  0  0  0  0  0
   -5.4556   -0.2695   28.0739 C   0  0  0  0  0  0  0  0  0  0  0  0
   -4.0741    1.4901   28.7709 O   0  0  0  0  0  0  0  0  0  0  0  0
  -11.4935    3.1543   25.1546 C   0  0  0  0  0  0  0  0  0  0  0  0
  -11.8660    4.0363   24.0107 Cl  0  0  0  0  0  0  0  0  0  0  0  0
  -11.4472    1.8525   24.7877 F   0  0  0  0  0  0  0  0  0  0  0  0
  -12.5101    3.2104   26.0971 F   0  0  0  0  0  0  0  0  0  0  0  0
   -4.5148   -1.3004   28.5600 C   0  0  0  0  0  0  0  0  0  0  0  0
   -4.8268   -2.3210   28.8734 C   0  0  0  0  0  0  0  0  0  0  0  0
   -3.9020   -3.3576   29.4001 C   0  0  0  0  0  0  0  0  0  0  0  0
   -2.5372   -2.9979   29.4869 C   0  0  0  0  0  0  0  0  0  0  0  0
   -2.1634   -1.6641   29.0951 C   0  0  0  0  0  0  0  0  0  0  0  0
   -3.0720   -0.7807   28.6863 C   0  0  0  0  0  0  0  0  0  0  0  0
   -4.4046   -4.8934   29.8149 Cl  0  0  0  0  0  0  0  0  0  0  0  0
  3  7  1  0
  7  8  1  0
  7  9  2  0
 10  2  1  6
 10 12  1  0
 11 13  1  0
 13 15  1  0
 14 15  1  0
 13 16  2  0
  6 17  1  0
 17 18  1  0
 17 19  1  0
 17 20  1  0
 15 21  1  0
 23 27  1  0
 11 10  1  0
 12 14  1  0
  1  2  2  0
  2  5  1  0
  5  6  2  0
  6  4  1  0
  4  3  2  0
  3  1  1  0
 21 22  2  0
 22 23  1  0
 23 24  2  0
 24 25  1  0
 25 26  2  0
 26 21  1  0
M  END
$$$$
