No_5466-complexes_sdf/6BKW-FPZ/2024-09-17-14-21-01/
     RDKit          3D

 26 27  0  0  0  0  0  0  0  0999 V2000
   -7.9040    3.9820   27.1177 C   0  0  0  0  0  0  0  0  0  0  0  0
   -7.8663    4.8694   27.9238 C   0  0  0  0  0  0  0  0  0  0  0  0
   -9.0501    3.8017   26.2617 C   0  0  0  0  0  0  0  0  0  0  0  0
  -10.0189    4.7608   26.3707 C   0  0  0  0  0  0  0  0  0  0  0  0
   -8.6973    5.9722   27.8968 C   0  0  0  0  0  0  0  0  0  0  0  0
   -9.8216    5.8946   27.1241 C   0  0  0  0  0  0  0  0  0  0  0  0
   -9.3701    2.4932   25.2903 Cl  0  0  0  0  0  0  0  0  0  0  0  0
   -7.0128    2.8915   27.1182 O   0  0  0  0  0  0  0  0  0  0  0  0
   -7.4157    1.6086   27.0748 C   0  0  0  0  0  0  0  0  0  0  0  0
   -6.2529    0.8154   26.7730 C   0  0  0  0  0  0  0  0  0  0  0  0
   -6.1537   -0.1869   27.7566 C   0  0  0  0  0  0  0  0  0  0  0  0
   -5.6784   -1.2591   27.5446 C   0  0  0  0  0  0  0  0  0  0  0  0
   -5.5935   -2.3056   28.5447 C   0  0  0  0  0  0  0  0  0  0  0  0
   -6.0157   -1.9696   29.8710 C   0  0  0  0  0  0  0  0  0  0  0  0
   -6.4323   -0.6749   30.1070 C   0  0  0  0  0  0  0  0  0  0  0  0
   -6.5557    0.2213   29.1361 C   0  0  0  0  0  0  0  0  0  0  0  0
   -5.8551   -2.9314   30.9987 C   0  0  0  0  0  0  0  0  0  0  0  0
   -5.1071   -2.9815   31.7257 O   0  0  0  0  0  0  0  0  0  0  0  0
   -6.9570   -3.8026   30.9541 O   0  0  0  0  0  0  0  0  0  0  0  0
   -5.2887   -1.7617   26.1956 C   0  0  2  0  0  0  0  0  0  0  0  0
   -3.9443   -1.7375   25.9419 C   0  0  0  0  0  0  0  0  0  0  0  0
   -6.1963   -2.1406   25.2655 C   0  0  0  0  0  0  0  0  0  0  0  0
   -5.9931   -2.2412   24.0484 C   0  0  0  0  0  0  0  0  0  0  0  0
   -2.8980   -1.2397   26.8823 C   0  0  0  0  0  0  0  0  0  0  0  0
   -6.5499   -2.2379   23.1658 C   0  0  0  0  0  0  0  0  0  0  0  0
   -6.0870   -2.1971   21.7064 C   0  0  0  0  0  0  0  0  0  0  0  0
  3  7  1  0
  1  8  1  0
  8  9  1  0
  9 10  1  0
 10 11  1  0
 14 17  1  0
 17 18  2  0
 17 19  1  0
 12 20  1  0
 20 21  1  6
 20 22  1  0
 22 23  2  3
 21 24  1  0
 23 25  1  0
 25 26  2  0
 11 12  2  0
 12 13  1  0
 13 14  2  0
 14 15  1  0
 15 16  2  0
 16 11  1  0
  1  2  2  0
  2  5  1  0
  5  6  2  0
  6  4  1  0
  4  3  2  0
  3  1  1  0
M  END
$$$$
