No_5947-complexes_sdf/6BKW-FPZ/2024-09-17-14-21-01/
     RDKit          3D

 24 27  0  0  0  0  0  0  0  0999 V2000
   -7.7129    4.2099   27.0854 C   0  0  0  0  0  0  0  0  0  0  0  0
   -7.7814    5.1722   27.8972 C   0  0  0  0  0  0  0  0  0  0  0  0
   -8.8776    3.8408   26.3416 C   0  0  0  0  0  0  0  0  0  0  0  0
   -9.9844    4.6492   26.4743 C   0  0  0  0  0  0  0  0  0  0  0  0
   -8.7830    6.1594   27.8870 C   0  0  0  0  0  0  0  0  0  0  0  0
   -9.9269    5.8191   27.1183 C   0  0  0  0  0  0  0  0  0  0  0  0
   -8.8804    2.6871   25.6100 N   0  0  0  0  0  0  0  0  0  0  0  0
   -8.3333    1.5375   26.0993 C   0  0  0  0  0  0  0  0  0  0  0  0
   -8.9412    0.4972   26.1343 C   0  0  1  0  0  0  0  0  0  0  0  0
   -9.5155    2.6257   24.3788 C   0  0  0  0  0  0  0  0  0  0  0  0
  -10.0592    1.3683   24.0645 C   0  0  2  0  0  0  0  0  0  0  0  0
   -9.6641    0.2299   24.8229 C   0  0  0  0  0  0  0  0  0  0  0  0
  -10.8347    1.2202   22.8646 C   0  0  0  0  0  0  0  0  0  0  0  0
  -11.4089    2.2649   22.2253 C   0  0  0  0  0  0  0  0  0  0  0  0
  -12.1552    2.0963   21.0053 C   0  0  0  0  0  0  0  0  0  0  0  0
  -12.2385    0.8129   20.4407 C   0  0  0  0  0  0  0  0  0  0  0  0
  -11.5736   -0.2500   21.0641 C   0  0  0  0  0  0  0  0  0  0  0  0
  -10.8658   -0.0546   22.2090 C   0  0  0  0  0  0  0  0  0  0  0  0
   -8.5492   -0.7446   26.8350 C   0  0  0  0  0  0  0  0  0  0  0  0
   -9.5128   -1.2706   27.5693 C   0  0  0  0  0  0  0  0  0  0  0  0
   -9.2593   -2.2442   28.5844 C   0  0  0  0  0  0  0  0  0  0  0  0
   -7.9082   -2.5785   28.7971 C   0  0  0  0  0  0  0  0  0  0  0  0
   -6.8978   -1.9951   28.1026 C   0  0  0  0  0  0  0  0  0  0  0  0
   -7.1910   -0.9791   27.1768 C   0  0  0  0  0  0  0  0  0  0  0  0
  3  7  1  0
  7  8  1  0
  7 10  1  0
  9 12  1  0
 11 12  1  0
 11 13  1  6
  9 19  1  6
  8  9  1  0
 11 10  1  0
 19 20  2  0
 20 21  1  0
 21 22  2  0
 22 23  1  0
 23 24  2  0
 24 19  1  0
 13 14  2  0
 14 15  1  0
 15 16  2  0
 16 17  1  0
 17 18  2  0
 18 13  1  0
  1  2  2  0
  2  5  1  0
  5  6  2  0
  6  4  1  0
  4  3  2  0
  3  1  1  0
M  END
$$$$
