No_5859-complexes_sdf/6BKW-FPZ/2024-09-17-14-21-01/
     RDKit          3D

 31 33  0  0  0  0  0  0  0  0999 V2000
   -7.7129    4.2099   27.0854 C   0  0  0  0  0  0  0  0  0  0  0  0
   -8.9133    4.4736   27.0998 C   0  0  0  0  0  0  0  0  0  0  0  0
   -9.7135    3.9633   26.0300 C   0  0  0  0  0  0  0  0  0  0  0  0
   -7.1708    2.9509   26.6517 C   0  0  0  0  0  0  0  0  0  0  0  0
   -8.1422    2.1350   26.0104 C   0  0  0  0  0  0  0  0  0  0  0  0
   -9.3363    2.7131   25.6563 C   0  0  0  0  0  0  0  0  0  0  0  0
   -9.2657    5.9651   27.4012 C   0  0  0  0  0  0  0  0  0  0  0  0
   -7.7451    0.7860   25.6444 C   0  0  0  0  0  0  0  0  0  0  0  0
   -6.7351    0.3406   26.0858 F   0  0  0  0  0  0  0  0  0  0  0  0
   -7.8234    0.6717   24.2922 F   0  0  0  0  0  0  0  0  0  0  0  0
   -8.8117   -0.0349   26.0894 F   0  0  0  0  0  0  0  0  0  0  0  0
   -8.8795    6.9248   26.8515 F   0  0  0  0  0  0  0  0  0  0  0  0
  -10.7723    6.0473   27.3501 F   0  0  0  0  0  0  0  0  0  0  0  0
   -8.9861    6.0810   28.7960 F   0  0  0  0  0  0  0  0  0  0  0  0
   -6.7962    4.7453   28.0546 O   0  0  0  0  0  0  0  0  0  0  0  0
  -10.4046    1.8508   24.6386 Cl  0  0  0  0  0  0  0  0  0  0  0  0
  -10.8872    4.3860   25.6995 O   0  0  0  0  0  0  0  0  0  0  0  0
  -11.2587    4.4589   24.4460 C   0  0  0  0  0  0  0  0  0  0  0  0
  -10.3854    4.7690   23.4916 C   0  0  0  0  0  0  0  0  0  0  0  0
  -10.7875    4.9047   22.1201 C   0  0  0  0  0  0  0  0  0  0  0  0
  -12.1670    4.6218   21.8613 C   0  0  0  0  0  0  0  0  0  0  0  0
  -13.0501    4.3194   22.8549 C   0  0  0  0  0  0  0  0  0  0  0  0
  -12.6129    4.2799   24.1798 C   0  0  0  0  0  0  0  0  0  0  0  0
  -14.4545    4.1203   22.5503 C   0  0  0  0  0  0  0  0  0  0  0  0
  -14.9087    2.9467   22.9139 C   0  0  0  0  0  0  0  0  0  0  0  0
  -16.2107    2.6763   22.7848 C   0  0  0  0  0  0  0  0  0  0  0  0
  -17.0587    3.6089   22.1714 C   0  0  0  0  0  0  0  0  0  0  0  0
  -15.2679    5.1388   22.0484 C   0  0  0  0  0  0  0  0  0  0  0  0
  -16.5766    4.9077   21.8386 C   0  0  0  0  0  0  0  0  0  0  0  0
  -18.4802    3.3237   21.9630 C   0  0  0  0  0  0  0  0  0  0  0  0
  -19.3468    3.7693   22.6373 O   0  0  0  0  0  0  0  0  0  0  0  0
  2  7  1  0
  5  8  1  0
  8  9  1  0
  8 10  1  0
  8 11  1  0
  7 12  1  0
  7 13  1  0
  7 14  1  0
  1 15  1  0
  6 16  1  0
  3 17  1  0
 17 18  1  0
 22 24  1  0
 27 30  1  0
 30 31  2  0
 18 19  2  0
 19 20  1  0
 20 21  2  0
 21 22  1  0
 22 23  2  0
 23 18  1  0
  1  2  2  0
  2  3  1  0
  3  6  2  0
  6  5  1  0
  5  4  2  0
  4  1  1  0
 24 25  2  0
 25 26  1  0
 26 27  2  0
 27 29  1  0
 29 28  2  0
 28 24  1  0
M  END
$$$$
