No_5188-complexes_sdf/6BKW-FPZ/2024-09-17-14-21-01/
     RDKit          3D

 30 33  0  0  0  0  0  0  0  0999 V2000
   -7.9040    3.9820   27.1177 C   0  0  0  0  0  0  0  0  0  0  0  0
   -8.2057    2.8231   26.8733 C   0  0  0  0  0  0  0  0  0  0  0  0
   -8.7695    5.0740   26.7916 C   0  0  0  0  0  0  0  0  0  0  0  0
   -8.4337    6.4678   27.0913 C   0  0  0  0  0  0  0  0  0  0  0  0
   -9.3742    2.4311   26.2346 C   0  0  0  0  0  0  0  0  0  0  0  0
   -9.6450    1.0516   25.9787 C   0  0  2  0  0  0  0  0  0  0  0  0
   -9.9250    4.7649   26.0943 C   0  0  0  0  0  0  0  0  0  0  0  0
  -10.1643    3.4545   25.8005 C   0  0  0  0  0  0  0  0  0  0  0  0
   -7.9674    7.5650   26.9995 N   0  0  0  0  0  0  0  0  0  0  0  0
  -10.3881    0.3817   26.8536 C   0  0  0  0  0  0  0  0  0  0  0  0
  -10.8973    1.0913   28.0730 C   0  0  0  0  0  0  0  0  0  0  0  0
  -11.4827   -0.5189   26.3996 C   0  0  0  0  0  0  0  0  0  0  0  0
  -12.3327   -0.8815   26.8896 C   0  0  0  0  0  0  0  0  0  0  0  0
  -11.9874    0.6260   28.8510 C   0  0  0  0  0  0  0  0  0  0  0  0
  -12.7677   -0.3492   28.2700 C   0  0  0  0  0  0  0  0  0  0  0  0
   -8.2150    0.3506   26.0422 C   0  0  0  0  0  0  0  0  0  0  0  0
   -7.6337    0.0761   27.1379 C   0  0  0  0  0  0  0  0  0  0  0  0
   -6.6422   -0.9635   27.0980 C   0  0  0  0  0  0  0  0  0  0  0  0
   -6.1815   -1.4625   25.9322 C   0  0  0  0  0  0  0  0  0  0  0  0
   -6.7694   -1.1075   24.7231 C   0  0  0  0  0  0  0  0  0  0  0  0
   -7.8696   -0.2735   24.7352 C   0  0  0  0  0  0  0  0  0  0  0  0
  -11.4198    3.1360   25.0683 C   0  0  0  0  0  0  0  0  0  0  0  0
  -12.1180    2.3540   24.7951 C   0  0  0  0  0  0  0  0  0  0  0  0
  -13.2684    2.2865   24.0651 C   0  0  0  0  0  0  0  0  0  0  0  0
  -13.6666    3.5170   23.6863 C   0  0  0  0  0  0  0  0  0  0  0  0
  -12.0948    4.4444   24.5320 C   0  0  0  0  0  0  0  0  0  0  0  0
  -13.0445    4.6355   23.9023 C   0  0  0  0  0  0  0  0  0  0  0  0
  -14.0185   -0.7853   28.9489 C   0  0  0  0  0  0  0  0  0  0  0  0
  -14.7119   -0.3841   29.7225 F   0  0  0  0  0  0  0  0  0  0  0  0
  -14.4815   -2.0273   28.4829 F   0  0  0  0  0  0  0  0  0  0  0  0
  3  4  1  0
  6  5  1  1
  4  9  3  0
  6 16  1  0
  8 22  1  0
 15 28  1  0
 28 29  1  0
 28 30  1  0
  6 10  1  0
 10 11  2  0
 11 14  1  0
 14 15  2  0
 15 13  1  0
 13 12  2  0
 12 10  1  0
 22 23  2  0
 23 24  1  0
 24 25  2  0
 25 27  1  0
 27 26  2  0
 26 22  1  0
  1  2  2  0
  2  5  1  0
  5  8  2  0
  8  7  1  0
  7  3  2  0
  3  1  1  0
 16 17  2  0
 17 18  1  0
 18 19  2  0
 19 20  1  0
 20 21  2  0
 21 16  1  0
M  END
$$$$
