No_5773-complexes_sdf/6BKW-FPZ/2024-09-17-14-21-01/
     RDKit          3D

 36 39  0  0  0  0  0  0  0  0999 V2000
   -7.9040    3.9820   27.1177 C   0  0  0  0  0  0  0  0  0  0  0  0
   -7.8663    4.8694   27.9238 C   0  0  0  0  0  0  0  0  0  0  0  0
   -9.0806    3.1428   27.1220 C   0  0  1  0  0  0  0  0  0  0  0  0
   -8.9544    1.8782   26.5467 C   0  0  0  0  0  0  0  0  0  0  0  0
   -6.7151    5.8072   27.9111 C   0  0  0  0  0  0  0  0  0  0  0  0
   -7.9998    1.0534   27.0438 C   0  0  0  0  0  0  0  0  0  0  0  0
   -7.8789   -0.2478   26.5614 C   0  0  0  0  0  0  0  0  0  0  0  0
   -8.6291   -0.5958   25.4932 C   0  0  0  0  0  0  0  0  0  0  0  0
   -9.7230    1.3390   25.5961 C   0  0  0  0  0  0  0  0  0  0  0  0
   -9.5982    0.1633   25.0240 C   0  0  0  0  0  0  0  0  0  0  0  0
  -10.2662    3.5805   27.7890 C   0  0  1  0  0  0  0  0  0  0  0  0
  -10.8723    4.8276   27.4971 C   0  0  0  0  0  0  0  0  0  0  0  0
  -10.9417    2.6848   28.6964 C   0  0  0  0  0  0  0  0  0  0  0  0
  -11.7304    1.6254   28.2655 C   0  0  0  0  0  0  0  0  0  0  0  0
  -12.1819    0.6846   29.1495 C   0  0  0  0  0  0  0  0  0  0  0  0
  -12.9347    2.1264   27.4135 C   0  0  0  0  0  0  0  0  0  0  0  0
  -13.4949    1.1299   26.6561 C   0  0  0  0  0  0  0  0  0  0  0  0
  -12.8437   -0.5520   28.5545 C   0  0  0  0  0  0  0  0  0  0  0  0
  -13.0356   -1.7561   29.2604 C   0  0  0  0  0  0  0  0  0  0  0  0
  -13.5283   -0.3147   27.2928 C   0  0  0  0  0  0  0  0  0  0  0  0
  -13.3391   -1.9933   30.2899 N   0  0  0  0  0  0  0  0  0  0  0  0
  -13.9748   -1.4372   31.0587 C   0  0  0  0  0  0  0  0  0  0  0  0
  -14.1367   -1.8332   32.5095 C   0  0  0  0  0  0  0  0  0  0  0  0
  -12.5420   -2.7154   28.3882 O   0  0  0  0  0  0  0  0  0  0  0  0
  -13.3752   -2.8527   32.8842 C   0  0  0  0  0  0  0  0  0  0  0  0
  -12.4872   -3.4935   32.0616 C   0  0  0  0  0  0  0  0  0  0  0  0
  -12.3362   -3.0480   30.8272 C   0  0  0  0  0  0  0  0  0  0  0  0
  -10.4760   -0.3058   23.9433 C   0  0  0  0  0  0  0  0  0  0  0  0
  -11.1546   -1.3652   24.0267 C   0  0  0  0  0  0  0  0  0  0  0  0
  -10.6086    0.5060   22.7913 C   0  0  0  0  0  0  0  0  0  0  0  0
  -12.1728   -1.7860   23.1608 C   0  0  0  0  0  0  0  0  0  0  0  0
  -11.5677    0.1201   21.8154 C   0  0  0  0  0  0  0  0  0  0  0  0
  -12.2625   -1.0204   22.0046 C   0  0  0  0  0  0  0  0  0  0  0  0
  -14.1963    1.2703   25.4349 C   0  0  0  0  0  0  0  0  0  0  0  0
  -14.7858    0.3033   24.7595 C   0  0  0  0  0  0  0  0  0  0  0  0
  -15.4231    0.5435   23.5530 C   0  0  0  0  0  0  0  0  0  0  0  0
  1  2  1  0
  3  1  1  1
  3  4  1  0
  2  5  1  0
  3 11  1  0
 11 12  1  6
 11 13  1  0
 13 14  1  0
 18 19  1  0
 19 21  1  0
 21 22  1  0
 19 24  2  0
 23 25  1  0
 21 27  1  0
 26 27  1  0
 10 28  1  0
 17 34  1  0
 34 35  2  3
 35 36  1  0
 22 23  1  0
 25 26  1  0
 14 15  2  0
 15 18  1  0
 18 20  2  0
 20 17  1  0
 17 16  2  0
 16 14  1  0
  4  6  2  0
  6  7  1  0
  7  8  2  0
  8 10  1  0
 10  9  2  0
  9  4  1  0
 28 29  2  0
 29 31  1  0
 31 33  2  0
 33 32  1  0
 32 30  2  0
 30 28  1  0
M  END
$$$$
