No_5187-complexes_sdf/6BKW-FPZ/2024-09-17-14-21-01/
     RDKit          3D

 29 33  0  0  0  0  0  0  0  0999 V2000
   -7.7129    4.2099   27.0854 C   0  0  0  0  0  0  0  0  0  0  0  0
   -8.2112    3.0637   26.9225 C   0  0  0  0  0  0  0  0  0  0  0  0
   -9.4446    2.8304   26.1868 C   0  0  0  0  0  0  0  0  0  0  0  0
   -8.4697    5.3956   26.7238 C   0  0  0  0  0  0  0  0  0  0  0  0
   -9.6172    5.2111   25.9513 C   0  0  0  0  0  0  0  0  0  0  0  0
  -10.0424    3.9782   25.6873 C   0  0  0  0  0  0  0  0  0  0  0  0
   -7.9172    6.7181   27.0124 C   0  0  0  0  0  0  0  0  0  0  0  0
   -7.3707    6.8438   28.1449 N   0  0  0  0  0  0  0  0  0  0  0  0
   -8.2284    7.8686   26.2479 C   0  0  0  0  0  0  0  0  0  0  0  0
   -7.5065    1.8080   27.3878 C   0  0  0  0  0  0  0  0  0  0  0  0
   -6.1461    1.9098   27.7550 C   0  0  0  0  0  0  0  0  0  0  0  0
   -5.4169    0.7629   28.2108 C   0  0  0  0  0  0  0  0  0  0  0  0
   -4.0855    0.8207   28.6453 C   0  0  0  0  0  0  0  0  0  0  0  0
   -6.1347   -0.4930   28.1650 C   0  0  0  0  0  0  0  0  0  0  0  0
   -7.4479   -0.5643   27.7535 C   0  0  0  0  0  0  0  0  0  0  0  0
   -8.1062    0.5565   27.3380 C   0  0  0  0  0  0  0  0  0  0  0  0
   -3.2822   -0.2523   28.5432 C   0  0  0  0  0  0  0  0  0  0  0  0
   -3.7543   -1.5030   28.5959 C   0  0  0  0  0  0  0  0  0  0  0  0
   -5.2373   -1.6651   28.3540 C   0  0  0  0  0  0  0  0  0  0  0  0
   -8.1132   -1.8352   27.7451 C   0  0  0  0  0  0  0  0  0  0  0  0
   -9.3742   -1.7886   27.7599 C   0  0  0  0  0  0  0  0  0  0  0  0
  -10.1399   -3.0066   27.8406 C   0  0  0  0  0  0  0  0  0  0  0  0
   -9.4359   -4.1590   27.8316 C   0  0  0  0  0  0  0  0  0  0  0  0
   -8.1030   -4.1933   27.8212 C   0  0  0  0  0  0  0  0  0  0  0  0
   -7.3795   -3.0436   27.8245 C   0  0  0  0  0  0  0  0  0  0  0  0
   -5.9565   -2.9331   28.2433 C   0  0  0  0  0  0  0  0  0  0  0  0
   -5.1740   -3.9238   28.0095 O   0  0  0  0  0  0  0  0  0  0  0  0
  -11.1389    3.8396   24.9422 F   0  0  0  0  0  0  0  0  0  0  0  0
  -11.8702   -2.9585   27.7369 Cl  0  0  0  0  0  0  0  0  0  0  0  0
  4  7  1  0
  7  8  2  0
  7  9  1  0
  2 10  1  0
 15 20  1  0
 19 26  1  0
 25 26  1  0
 26 27  2  0
  6 28  1  0
 22 29  1  0
 10 11  2  0
 11 12  1  0
 14 15  1  0
 15 16  2  0
 16 10  1  0
  1  2  2  0
  2  3  1  0
  3  6  2  0
  6  5  1  0
  5  4  2  0
  4  1  1  0
 12 13  2  0
 13 17  1  0
 17 18  2  0
 18 19  1  0
 19 14  2  0
 14 12  1  0
 20 21  2  0
 21 22  1  0
 22 23  2  0
 23 24  1  0
 24 25  2  0
 25 20  1  0
M  END
$$$$
