No_5657-complexes_sdf/6BKW-FPZ/2024-09-17-14-21-01/
     RDKit          3D

 10 11  0  0  0  0  0  0  0  0999 V2000
   -7.9040    3.9820   27.1177 C   0  0  0  0  0  0  0  0  0  0  0  0
   -7.8663    4.8694   27.9238 C   0  0  0  0  0  0  0  0  0  0  0  0
   -9.0501    3.8017   26.2617 C   0  0  0  0  0  0  0  0  0  0  0  0
   -9.1826    2.7026   25.3575 C   0  0  0  0  0  0  0  0  0  0  0  0
   -8.6940    6.0131   27.8614 C   0  0  0  0  0  0  0  0  0  0  0  0
   -9.9755    4.8547   26.2361 C   0  0  0  0  0  0  0  0  0  0  0  0
  -10.9847    4.6960   25.3793 C   0  0  0  0  0  0  0  0  0  0  0  0
   -9.7639    5.9682   27.0337 C   0  0  0  0  0  0  0  0  0  0  0  0
  -10.2061    2.6443   24.4578 C   0  0  0  0  0  0  0  0  0  0  0  0
  -11.0850    3.6986   24.4678 C   0  0  0  0  0  0  0  0  0  0  0  0
  1  2  2  0
  2  5  1  0
  5  8  2  0
  8  6  1  0
  3  1  1  0
  3  4  2  0
  4  9  1  0
  9 10  2  0
 10  7  1  0
  7  6  2  0
  6  3  1  0
M  END
$$$$
