No_5855-complexes_sdf/6BKW-FPZ/2024-09-17-14-21-01/
     RDKit          3D

 16 17  0  0  0  0  0  0  0  0999 V2000
   -7.9040    3.9820   27.1177 C   0  0  0  0  0  0  0  0  0  0  0  0
   -8.2057    2.8231   26.8733 C   0  0  0  0  0  0  0  0  0  0  0  0
   -8.7695    5.0740   26.7916 C   0  0  0  0  0  0  0  0  0  0  0  0
   -9.9618    4.7598   26.1630 C   0  0  0  0  0  0  0  0  0  0  0  0
   -9.4200    2.4524   26.2849 C   0  0  0  0  0  0  0  0  0  0  0  0
  -10.2590    3.4815   25.9250 C   0  0  0  0  0  0  0  0  0  0  0  0
   -8.3840    6.4693   27.0829 C   0  0  0  0  0  0  0  0  0  0  0  0
   -7.7493    6.7880   28.2320 C   0  0  0  0  0  0  0  0  0  0  0  0
   -8.7281    7.4896   26.1794 C   0  0  0  0  0  0  0  0  0  0  0  0
   -7.2861    1.6604   27.2858 C   0  0  0  0  0  0  0  0  0  0  0  0
   -6.1223    1.9611   27.8406 N   0  0  0  0  0  0  0  0  0  0  0  0
   -5.2742    0.8864   28.1583 C   0  0  0  0  0  0  0  0  0  0  0  0
   -5.3718   -0.1213   27.9311 C   0  0  0  0  0  0  0  0  0  0  0  0
   -7.5350    0.3564   27.0285 C   0  0  0  0  0  0  0  0  0  0  0  0
   -8.7968    0.0280   26.4376 C   0  0  0  0  0  0  0  0  0  0  0  0
   -6.6174   -0.5913   27.3804 C   0  0  0  0  0  0  0  0  0  0  0  0
  3  7  1  0
  7  8  2  0
  7  9  1  0
  2 10  1  0
 14 15  1  0
 10 11  2  0
 11 12  1  0
 12 13  2  0
 13 16  1  0
 16 14  2  0
 14 10  1  0
  1  2  2  0
  2  5  1  0
  5  6  2  0
  6  4  1  0
  4  3  2  0
  3  1  1  0
M  END
$$$$
