No_5200-complexes_sdf/6BKW-FPZ/2024-09-17-14-21-01/
     RDKit          3D

 13 14  0  0  0  0  0  0  0  0999 V2000
   -7.7129    4.2099   27.0854 C   0  0  0  0  0  0  0  0  0  0  0  0
   -8.9133    4.4736   27.0998 C   0  0  0  0  0  0  0  0  0  0  0  0
   -9.7937    3.7368   26.2091 C   0  0  0  0  0  0  0  0  0  0  0  0
   -7.2496    2.8647   26.8496 C   0  0  0  0  0  0  0  0  0  0  0  0
   -8.1891    1.9790   26.3454 C   0  0  0  0  0  0  0  0  0  0  0  0
   -9.4252    2.4603   26.0121 C   0  0  0  0  0  0  0  0  0  0  0  0
   -9.3754    6.1887   27.2962 Cl  0  0  0  0  0  0  0  0  0  0  0  0
   -7.9793    0.5479   26.1440 C   0  0  0  0  0  0  0  0  0  0  0  0
   -8.4121   -0.0716   25.2291 C   0  0  0  0  0  0  0  0  0  0  0  0
   -8.1269   -1.4317   25.0406 C   0  0  0  0  0  0  0  0  0  0  0  0
   -7.0638   -0.0632   27.1419 C   0  0  0  0  0  0  0  0  0  0  0  0
   -6.7138   -1.3993   27.0091 C   0  0  0  0  0  0  0  0  0  0  0  0
   -7.2812   -2.0811   25.9282 C   0  0  0  0  0  0  0  0  0  0  0  0
  2  7  1  0
  5  8  1  0
  8  9  2  0
  9 10  1  0
 10 13  2  0
 13 12  1  0
 12 11  2  0
 11  8  1  0
  1  2  2  0
  2  3  1  0
  3  6  2  0
  6  5  1  0
  5  4  2  0
  4  1  1  0
M  END
$$$$
