No_5186-complexes_sdf/6BKW-FPZ/2024-09-17-14-21-01/
     RDKit          3D

 21 23  0  0  0  0  0  0  0  0999 V2000
   -7.7129    4.2099   27.0854 C   0  0  0  0  0  0  0  0  0  0  0  0
   -7.7814    5.1722   27.8972 C   0  0  0  0  0  0  0  0  0  0  0  0
   -8.8776    3.8408   26.3416 C   0  0  0  0  0  0  0  0  0  0  0  0
   -9.9844    4.6492   26.4743 C   0  0  0  0  0  0  0  0  0  0  0  0
   -8.7830    6.1594   27.8870 C   0  0  0  0  0  0  0  0  0  0  0  0
  -11.0777    4.2772   25.6418 C   0  0  1  0  0  0  0  0  0  0  0  0
   -9.9463    5.8095   27.1423 C   0  0  0  0  0  0  0  0  0  0  0  0
  -12.2520    3.8316   26.0040 C   0  0  0  0  0  0  0  0  0  0  0  0
  -12.4991    3.6984   27.3872 C   0  0  0  0  0  0  0  0  0  0  0  0
  -13.7587    3.2691   27.9322 C   0  0  0  0  0  0  0  0  0  0  0  0
  -14.8010    3.2092   27.0500 C   0  0  0  0  0  0  0  0  0  0  0  0
  -14.6545    3.4667   25.7188 C   0  0  0  0  0  0  0  0  0  0  0  0
  -13.4062    3.8549   25.1897 C   0  0  0  0  0  0  0  0  0  0  0  0
  -10.9733    4.7073   24.2712 C   0  0  0  0  0  0  0  0  0  0  0  0
   -8.8182    2.4681   25.3865 Cl  0  0  0  0  0  0  0  0  0  0  0  0
  -10.9076    4.2055   23.2882 C   0  0  0  0  0  0  0  0  0  0  0  0
  -11.0594    2.7648   23.0556 C   0  0  0  0  0  0  0  0  0  0  0  0
  -10.8956    2.1996   21.8047 C   0  0  0  0  0  0  0  0  0  0  0  0
  -10.7196    3.0681   20.6934 C   0  0  0  0  0  0  0  0  0  0  0  0
  -10.6016    4.4386   20.8123 C   0  0  0  0  0  0  0  0  0  0  0  0
  -10.6837    5.0343   22.0324 C   0  0  0  0  0  0  0  0  0  0  0  0
  4  6  1  0
  6  8  1  0
  6 14  1  1
  3 15  1  0
 14 16  1  0
 16 17  2  0
 17 18  1  0
 18 19  2  0
 19 20  1  0
 20 21  2  0
 21 16  1  0
  8  9  2  0
  9 10  1  0
 10 11  2  0
 11 12  1  0
 12 13  2  0
 13  8  1  0
  1  2  2  0
  2  5  1  0
  5  7  2  0
  7  4  1  0
  4  3  2  0
  3  1  1  0
M  END
$$$$
