No_5170-complexes_sdf/6BKW-FPZ/2024-09-17-14-21-01/
     RDKit          3D

 19 20  0  0  0  0  0  0  0  0999 V2000
   -7.7129    4.2099   27.0854 C   0  0  0  0  0  0  0  0  0  0  0  0
   -8.2112    3.0637   26.9225 C   0  0  0  0  0  0  0  0  0  0  0  0
   -9.5629    2.7997   27.0678 C   0  0  0  0  0  0  0  0  0  0  0  0
   -8.5911    5.3704   27.2036 C   0  0  0  0  0  0  0  0  0  0  0  0
   -8.1116    6.7330   27.2869 C   0  0  0  0  0  0  0  0  0  0  0  0
  -10.4465    3.8282   27.2087 C   0  0  0  0  0  0  0  0  0  0  0  0
  -10.0139    5.1618   27.3218 C   0  0  0  0  0  0  0  0  0  0  0  0
  -10.0244    1.3746   26.9585 C   0  0  0  0  0  0  0  0  0  0  0  0
  -10.0032    0.7142   25.7789 C   0  0  0  0  0  0  0  0  0  0  0  0
   -9.8277   -0.4768   25.7084 C   0  0  0  0  0  0  0  0  0  0  0  0
   -9.6338   -1.1417   26.5723 C   0  0  0  0  0  0  0  0  0  0  0  0
   -9.7631   -0.7755   27.9849 C   0  0  0  0  0  0  0  0  0  0  0  0
   -9.9537    0.5696   28.1794 C   0  0  0  0  0  0  0  0  0  0  0  0
   -8.8266    7.7289   26.8428 O   0  0  0  0  0  0  0  0  0  0  0  0
   -6.9236    6.9084   27.8734 O   0  0  0  0  0  0  0  0  0  0  0  0
   -9.9539    1.6894   24.5985 C   0  0  0  0  0  0  0  0  0  0  0  0
  -11.0764    1.7925   23.8417 C   0  0  0  0  0  0  0  0  0  0  0  0
  -12.2092    1.0922   24.0972 C   0  0  0  0  0  0  0  0  0  0  0  0
  -13.3529    1.2865   23.2765 C   0  0  0  0  0  0  0  0  0  0  0  0
  4  5  1  0
  3  8  1  0
  5 14  1  0
  5 15  2  0
  9 16  1  0
 16 17  2  3
 17 18  1  0
 18 19  2  0
  1  2  2  0
  2  3  1  0
  3  6  2  0
  6  7  1  0
  7  4  2  0
  4  1  1  0
  8  9  2  0
  9 10  1  0
 10 11  2  0
 11 12  1  0
 12 13  2  0
 13  8  1  0
M  END
$$$$
