No_5807-complexes_sdf/6BKW-FPZ/2024-09-17-14-21-01/
     RDKit          3D

 39 43  0  0  0  0  0  0  0  0999 V2000
   -7.9040    3.9820   27.1177 C   0  0  0  0  0  0  0  0  0  0  0  0
   -7.8663    4.8694   27.9238 C   0  0  0  0  0  0  0  0  0  0  0  0
   -9.0491    3.8523   26.2542 C   0  0  0  0  0  0  0  0  0  0  0  0
   -8.7661    5.9491   27.9690 C   0  0  0  0  0  0  0  0  0  0  0  0
   -9.9295    4.8502   26.2323 C   0  0  0  0  0  0  0  0  0  0  0  0
   -9.8077    5.9288   27.0933 C   0  0  0  0  0  0  0  0  0  0  0  0
   -6.8002    2.6256   27.2024 Cl  0  0  0  0  0  0  0  0  0  0  0  0
   -9.0975    2.7884   25.3552 O   0  0  0  0  0  0  0  0  0  0  0  0
  -10.1093    2.7937   24.4191 C   0  0  0  0  0  0  0  0  0  0  0  0
  -11.1509    2.3481   24.8090 C   0  0  0  0  0  0  0  0  0  0  0  0
  -12.2633    2.3074   23.8309 C   0  0  0  0  0  0  0  0  0  0  0  0
  -11.9877    2.7226   22.5218 C   0  0  0  0  0  0  0  0  0  0  0  0
  -10.7097    3.1995   22.1793 C   0  0  0  0  0  0  0  0  0  0  0  0
   -9.7400    3.2529   23.1327 C   0  0  0  0  0  0  0  0  0  0  0  0
  -10.4096    3.6660   20.8096 C   0  0  1  0  0  0  0  0  0  0  0  0
   -9.4326    4.2983   20.5028 C   0  0  0  0  0  0  0  0  0  0  0  0
  -11.4058    3.1573   19.8334 C   0  0  0  0  0  0  0  0  0  0  0  0
  -11.7252    1.9029   19.7659 C   0  0  0  0  0  0  0  0  0  0  0  0
  -12.4419    1.4442   18.6873 C   0  0  0  0  0  0  0  0  0  0  0  0
  -12.9224    2.3611   17.7692 C   0  0  0  0  0  0  0  0  0  0  0  0
  -12.6751    3.7403   17.8805 C   0  0  0  0  0  0  0  0  0  0  0  0
  -11.8323    4.1919   18.8800 C   0  0  0  0  0  0  0  0  0  0  0  0
  -13.5856    1.8218   24.1743 C   0  0  0  0  0  0  0  0  0  0  0  0
  -13.8916    1.1927   24.9301 O   0  0  0  0  0  0  0  0  0  0  0  0
  -14.4744    2.5863   23.5220 O   0  0  0  0  0  0  0  0  0  0  0  0
  -15.6780    2.0127   23.0531 C   0  0  1  0  0  0  0  0  0  0  0  0
  -16.6880    3.0103   23.0706 C   0  0  0  0  0  0  0  0  0  0  0  0
  -16.6688    4.1111   23.1243 O   0  0  0  0  0  0  0  0  0  0  0  0
  -17.9122    2.4870   23.2553 O   0  0  0  0  0  0  0  0  0  0  0  0
  -15.4236    1.6055   21.5825 C   0  0  0  0  0  0  0  0  0  0  0  0
  -15.0560    0.3098   21.3693 C   0  0  0  0  0  0  0  0  0  0  0  0
  -15.2106   -0.1903   20.0155 C   0  0  0  0  0  0  0  0  0  0  0  0
  -15.9264    0.5859   19.1109 C   0  0  0  0  0  0  0  0  0  0  0  0
  -16.1213    0.0685   17.8332 C   0  0  0  0  0  0  0  0  0  0  0  0
  -16.3751    1.8867   19.5096 C   0  0  0  0  0  0  0  0  0  0  0  0
  -16.1518    2.3770   20.8098 C   0  0  0  0  0  0  0  0  0  0  0  0
  -16.5461    0.8721   16.8398 C   0  0  0  0  0  0  0  0  0  0  0  0
  -17.0632    2.1846   17.2216 C   0  0  0  0  0  0  0  0  0  0  0  0
  -16.9393    2.7226   18.4745 C   0  0  0  0  0  0  0  0  0  0  0  0
  1  7  1  0
  3  8  1  0
  8  9  1  0
 13 15  1  0
 15 16  1  6
 15 17  1  0
 11 23  1  0
 23 24  2  0
 23 25  1  0
 26 25  1  6
 26 27  1  0
 27 28  1  0
 27 29  2  0
 26 30  1  0
  9 10  2  0
 10 11  1  0
 11 12  2  0
 12 13  1  0
 13 14  2  0
 14  9  1  0
 30 31  2  0
 31 32  1  0
 32 33  2  0
 35 36  2  0
 36 30  1  0
 33 34  1  0
 34 37  2  0
 37 38  1  0
 38 39  2  0
 39 35  1  0
 35 33  1  0
 17 18  2  0
 18 19  1  0
 19 20  2  0
 20 21  1  0
 21 22  2  0
 22 17  1  0
  1  2  2  0
  2  4  1  0
  4  6  2  0
  6  5  1  0
  5  3  2  0
  3  1  1  0
M  END
$$$$
