No_5224-complexes_sdf/6BKW-FPZ/2024-09-17-14-21-01/
     RDKit          3D

 21 24  0  0  0  0  0  0  0  0999 V2000
   -7.9040    3.9820   27.1177 C   0  0  0  0  0  0  0  0  0  0  0  0
   -7.8663    4.8694   27.9238 C   0  0  0  0  0  0  0  0  0  0  0  0
   -9.0501    3.8017   26.2617 C   0  0  0  0  0  0  0  0  0  0  0  0
   -9.1826    2.7026   25.3575 C   0  0  0  0  0  0  0  0  0  0  0  0
   -8.6940    6.0131   27.8614 C   0  0  0  0  0  0  0  0  0  0  0  0
  -10.1138    4.6733   26.4644 C   0  0  0  0  0  0  0  0  0  0  0  0
   -9.8579    5.8496   27.1764 C   0  0  0  0  0  0  0  0  0  0  0  0
   -8.6820    1.4638   25.6980 C   0  0  0  0  0  0  0  0  0  0  0  0
   -8.1655    1.3008   27.0555 C   0  0  0  0  0  0  0  0  0  0  0  0
   -7.4146    2.5387   27.5597 C   0  0  0  0  0  0  0  0  0  0  0  0
   -9.9796    2.8600   24.1799 C   0  0  0  0  0  0  0  0  0  0  0  0
   -9.9957    1.8784   23.2006 C   0  0  0  0  0  0  0  0  0  0  0  0
   -9.3480    0.6120   23.5618 C   0  0  0  0  0  0  0  0  0  0  0  0
   -8.7491    0.4110   24.8051 C   0  0  0  0  0  0  0  0  0  0  0  0
  -10.7764    2.0868   21.7524 Cl  0  0  0  0  0  0  0  0  0  0  0  0
   -8.0878   -0.8671   25.0214 C   0  0  0  0  0  0  0  0  0  0  0  0
   -7.2681   -1.1159   25.6978 C   0  0  0  0  0  0  0  0  0  0  0  0
   -6.6065   -2.4230   25.9514 C   0  0  0  0  0  0  0  0  0  0  0  0
   -7.1034   -3.4309   25.2206 C   0  0  0  0  0  0  0  0  0  0  0  0
   -8.5418   -1.9582   24.2253 C   0  0  0  0  0  0  0  0  0  0  0  0
   -8.0680   -3.1979   24.3296 C   0  0  0  0  0  0  0  0  0  0  0  0
 12 15  1  0
 14 16  1  0
  3  4  1  0
  8  9  1  0
  9 10  2  0
 10  1  1  0
  4  8  2  0
  8 14  1  0
 14 13  2  0
 13 12  1  0
 12 11  2  0
 11  4  1  0
  1  2  2  0
  2  5  1  0
  5  7  2  0
  7  6  1  0
  6  3  2  0
  3  1  1  0
 16 17  2  0
 17 18  1  0
 18 19  2  0
 19 21  1  0
 21 20  2  0
 20 16  1  0
M  END
$$$$
