No_5889-complexes_sdf/6BKW-FPZ/2024-09-17-14-21-01/
     RDKit          3D

 17 18  0  0  0  0  0  0  0  0999 V2000
   -7.9040    3.9820   27.1177 C   0  0  0  0  0  0  0  0  0  0  0  0
   -7.8663    4.8694   27.9238 C   0  0  0  0  0  0  0  0  0  0  0  0
   -9.0501    3.8017   26.2617 C   0  0  0  0  0  0  0  0  0  0  0  0
   -9.1826    2.7026   25.3575 C   0  0  0  0  0  0  0  0  0  0  0  0
   -8.6940    6.0131   27.8614 C   0  0  0  0  0  0  0  0  0  0  0  0
   -9.9755    4.8547   26.2361 C   0  0  0  0  0  0  0  0  0  0  0  0
   -9.7463    5.9398   27.0364 C   0  0  0  0  0  0  0  0  0  0  0  0
  -10.1005    1.8694   25.7051 C   0  0  0  0  0  0  0  0  0  0  0  0
  -10.1112    0.7167   25.0387 C   0  0  0  0  0  0  0  0  0  0  0  0
  -11.1598    0.1123   24.7633 C   0  0  0  0  0  0  0  0  0  0  0  0
  -11.1579   -1.0974   23.9093 C   0  0  0  0  0  0  0  0  0  0  0  0
   -9.9691   -1.5484   23.4086 C   0  0  0  0  0  0  0  0  0  0  0  0
   -8.7955   -0.8863   23.6216 C   0  0  0  0  0  0  0  0  0  0  0  0
   -8.8085    0.2795   24.3763 C   0  0  0  0  0  0  0  0  0  0  0  0
  -11.0431    2.0228   26.7170 C   0  0  0  0  0  0  0  0  0  0  0  0
  -12.2525    2.7789   26.6283 C   0  0  0  0  0  0  0  0  0  0  0  0
  -13.1262    2.9249   27.7249 C   0  0  0  0  0  0  0  0  0  0  0  0
  3  4  1  0
  4  8  1  0
  8  9  1  0
  8 15  1  0
 15 16  2  3
 16 17  1  0
  9 10  2  0
 10 11  1  0
 11 12  2  0
 12 13  1  0
 13 14  2  0
 14  9  1  0
  1  2  2  0
  2  5  1  0
  5  7  2  0
  7  6  1  0
  6  3  2  0
  3  1  1  0
M  END
$$$$
