No_5612-complexes_sdf/6BKW-FPZ/2024-09-17-14-21-01/
     RDKit          3D

 15 16  0  0  0  0  0  0  0  0999 V2000
   -7.9040    3.9820   27.1177 C   0  0  0  0  0  0  0  0  0  0  0  0
   -7.8663    4.8694   27.9238 C   0  0  0  0  0  0  0  0  0  0  0  0
   -7.4547    2.7080   27.4594 C   0  0  0  0  0  0  0  0  0  0  0  0
   -8.7044    6.0412   27.8492 C   0  0  0  0  0  0  0  0  0  0  0  0
   -7.1938    1.8049   26.8434 C   0  0  0  0  0  0  0  0  0  0  0  0
   -6.5969    0.5959   27.2785 C   0  0  0  0  0  0  0  0  0  0  0  0
   -5.4021    0.6327   27.9639 C   0  0  0  0  0  0  0  0  0  0  0  0
   -4.8662   -0.5034   28.5799 C   0  0  0  0  0  0  0  0  0  0  0  0
   -3.7891   -0.3291   29.5054 C   0  0  0  0  0  0  0  0  0  0  0  0
   -3.2831    1.0184   29.6189 C   0  0  0  0  0  0  0  0  0  0  0  0
   -4.7720    1.8211   28.4382 C   0  0  0  0  0  0  0  0  0  0  0  0
   -3.6975    1.9250   29.1248 N   0  0  0  0  0  0  0  0  0  0  0  0
   -8.6874    4.1396   25.9529 C   0  0  0  0  0  0  0  0  0  0  0  0
   -9.4435    5.2965   25.7188 C   0  0  0  0  0  0  0  0  0  0  0  0
   -9.2724    6.3792   26.6316 C   0  0  0  0  0  0  0  0  0  0  0  0
  1  3  1  0
  3  5  2  3
  5  6  1  0
  6  7  1  0
  7  8  2  0
  8  9  1  0
  9 10  2  0
 10 12  1  0
 12 11  2  0
 11  7  1  0
  1  2  2  0
  2  4  1  0
  4 15  2  0
 15 14  1  0
 14 13  2  0
 13  1  1  0
M  END
$$$$
