No_5364-complexes_sdf/6BKW-FPZ/2024-09-17-14-21-01/
     RDKit          3D

 31 33  0  0  0  0  0  0  0  0999 V2000
   -7.9040    3.9820   27.1177 C   0  0  0  0  0  0  0  0  0  0  0  0
   -7.8663    4.8694   27.9238 C   0  0  0  0  0  0  0  0  0  0  0  0
   -9.0491    3.8523   26.2542 C   0  0  0  0  0  0  0  0  0  0  0  0
   -8.7661    5.9491   27.9690 C   0  0  0  0  0  0  0  0  0  0  0  0
   -9.9295    4.8502   26.2323 C   0  0  0  0  0  0  0  0  0  0  0  0
   -9.8077    5.9288   27.0933 C   0  0  0  0  0  0  0  0  0  0  0  0
   -6.9606    2.7994   27.1981 C   0  0  0  0  0  0  0  0  0  0  0  0
   -7.2467    1.6107   27.7145 C   0  0  0  0  0  0  0  0  0  0  0  0
   -6.7434    0.5539   27.1388 C   0  0  0  0  0  0  0  0  0  0  0  0
   -7.4634   -0.2976   26.4034 C   0  0  0  0  0  0  0  0  0  0  0  0
   -6.8968   -1.4392   25.7605 C   0  0  0  0  0  0  0  0  0  0  0  0
   -5.5085   -1.6460   25.8875 C   0  0  0  0  0  0  0  0  0  0  0  0
   -4.7351   -0.7954   26.6417 C   0  0  0  0  0  0  0  0  0  0  0  0
   -5.2788    0.3113   27.2909 C   0  0  0  0  0  0  0  0  0  0  0  0
   -4.4652    1.2197   28.1028 C   0  0  0  0  0  0  0  0  0  0  0  0
   -4.8331    1.9744   28.8663 O   0  0  0  0  0  0  0  0  0  0  0  0
   -3.2760    0.6988   28.2255 O   0  0  0  0  0  0  0  0  0  0  0  0
   -9.0928    2.7423   25.2599 C   0  0  0  0  0  0  0  0  0  0  0  0
   -9.5610    1.5952   25.6178 C   0  0  0  0  0  0  0  0  0  0  0  0
   -9.9437    0.6460   24.6305 C   0  0  0  0  0  0  0  0  0  0  0  0
  -10.9586   -0.2342   24.7816 C   0  0  0  0  0  0  0  0  0  0  0  0
  -11.2993   -0.6405   26.0573 C   0  0  0  0  0  0  0  0  0  0  0  0
  -10.9404    0.2444   27.1535 C   0  0  0  0  0  0  0  0  0  0  0  0
  -10.2969    1.3957   26.9180 C   0  0  0  0  0  0  0  0  0  0  0  0
  -11.5796   -0.0619   28.5061 C   0  0  0  0  0  0  0  0  0  0  0  0
  -12.7535   -0.3319   28.5925 N   0  0  0  0  0  0  0  0  0  0  0  0
  -13.5674    0.5965   29.0595 C   0  0  0  0  0  0  0  0  0  0  0  0
  -13.1110    1.6151   29.4765 C   0  0  0  0  0  0  0  0  0  0  0  0
  -13.9207    2.6830   30.2014 C   0  0  0  0  0  0  0  0  0  0  0  0
  -13.3061    3.9148   30.5764 C   0  0  0  0  0  0  0  0  0  0  0  0
  -12.0897    4.1020   29.8982 C   0  0  0  0  0  0  0  0  0  0  0  0
  1  7  1  0
  7  8  1  0
  8  9  1  0
 14 15  1  0
 15 16  1  0
 15 17  2  0
  3 18  1  0
 23 25  1  0
 25 26  1  0
 26 27  1  0
 27 28  2  3
 28 29  1  0
 29 30  2  3
 30 31  1  0
 18 19  1  0
  1  2  2  0
  2  4  1  0
  4  6  2  0
  6  5  1  0
  5  3  2  0
  3  1  1  0
  9 10  2  0
 10 11  1  0
 11 12  2  0
 12 13  1  0
 13 14  2  0
 14  9  1  0
 19 20  2  0
 20 21  1  0
 21 22  2  0
 22 23  1  0
 23 24  2  0
 24 19  1  0
M  END
$$$$
