No_527-complexes_sdf/6BKW-FPZ/2024-09-17-14-21-01/
     RDKit          3D

 17 19  0  0  0  0  0  0  0  0999 V2000
   -7.7129    4.2099   27.0854 C   0  0  0  0  0  0  0  0  0  0  0  0
   -8.2112    3.0637   26.9225 C   0  0  0  0  0  0  0  0  0  0  0  0
   -7.5138    1.9223   27.4249 C   0  0  0  0  0  0  0  0  0  0  0  0
   -6.5434    4.4363   27.9024 C   0  0  0  0  0  0  0  0  0  0  0  0
   -6.2005    2.1121   27.9323 C   0  0  0  0  0  0  0  0  0  0  0  0
   -5.7560    3.3924   28.1795 C   0  0  0  0  0  0  0  0  0  0  0  0
   -8.6753    5.2573   26.7700 C   0  0  0  0  0  0  0  0  0  0  0  0
   -9.4763    5.1067   25.7222 N   0  0  0  0  0  0  0  0  0  0  0  0
   -9.8578    3.8861   25.3056 C   0  0  0  0  0  0  0  0  0  0  0  0
   -9.2474    2.7531   25.9539 C   0  0  0  0  0  0  0  0  0  0  0  0
  -10.8807    3.7927   24.3464 C   0  0  0  0  0  0  0  0  0  0  0  0
  -10.8128    3.0429   23.2619 C   0  0  0  0  0  0  0  0  0  0  0  0
  -11.8278    3.0359   22.2361 C   0  0  0  0  0  0  0  0  0  0  0  0
  -12.9269    3.9040   22.4243 C   0  0  0  0  0  0  0  0  0  0  0  0
  -12.9911    4.7017   23.5581 C   0  0  0  0  0  0  0  0  0  0  0  0
  -11.9547    4.6678   24.5327 C   0  0  0  0  0  0  0  0  0  0  0  0
   -5.1175    0.8416   28.5012 Cl  0  0  0  0  0  0  0  0  0  0  0  0
  9 11  1  0
  5 17  1  0
 11 12  2  0
 12 13  1  0
 13 14  2  0
 14 15  1  0
 15 16  2  0
 16 11  1  0
  2 10  1  0
 10  9  2  0
  9  8  1  0
  8  7  2  0
  7  1  1  0
  1  2  1  0
  2  3  2  0
  3  5  1  0
  5  6  2  0
  6  4  1  0
  4  1  2  0
M  END
$$$$
