No_5484-complexes_sdf/6BKW-FPZ/2024-09-17-14-21-01/
     RDKit          3D

 26 28  0  0  0  0  0  0  0  0999 V2000
   -7.9040    3.9820   27.1177 C   0  0  0  0  0  0  0  0  0  0  0  0
   -8.2057    2.8231   26.8733 C   0  0  0  0  0  0  0  0  0  0  0  0
   -8.7695    5.0740   26.7916 C   0  0  0  0  0  0  0  0  0  0  0  0
   -9.9618    4.7598   26.1630 C   0  0  0  0  0  0  0  0  0  0  0  0
   -9.4200    2.4524   26.2849 C   0  0  0  0  0  0  0  0  0  0  0  0
  -10.2590    3.4815   25.9250 C   0  0  0  0  0  0  0  0  0  0  0  0
   -8.6074    6.4894   27.1095 C   0  0  0  0  0  0  0  0  0  0  0  0
   -8.6269    7.4231   26.3915 O   0  0  0  0  0  0  0  0  0  0  0  0
   -8.0618    6.6151   28.4294 O   0  0  0  0  0  0  0  0  0  0  0  0
   -7.2572    1.6875   27.2788 C   0  0  0  0  0  0  0  0  0  0  0  0
   -6.0917    1.9906   27.8215 N   0  0  0  0  0  0  0  0  0  0  0  0
   -7.4874    0.3436   27.0218 C   0  0  0  0  0  0  0  0  0  0  0  0
   -5.2266    0.9713   28.1465 C   0  0  0  0  0  0  0  0  0  0  0  0
   -6.6713   -0.6407   27.4065 C   0  0  0  0  0  0  0  0  0  0  0  0
   -3.9747    1.3392   28.8223 N   0  0  0  0  0  0  0  0  0  0  0  0
   -5.5142   -0.3243   28.0572 C   0  0  0  0  0  0  0  0  0  0  0  0
  -11.4870    3.1528   25.1399 C   0  0  1  0  0  0  0  0  0  0  0  0
  -11.3722    2.8126   23.9140 C   0  0  0  0  0  0  0  0  0  0  0  0
  -10.7118    2.1014   23.3687 C   0  0  0  0  0  0  0  0  0  0  0  0
  -10.5850    1.7084   21.9325 C   0  0  0  0  0  0  0  0  0  0  0  0
  -11.3670    2.4375   21.0878 C   0  0  0  0  0  0  0  0  0  0  0  0
  -12.1884    3.4140   21.6132 C   0  0  0  0  0  0  0  0  0  0  0  0
  -12.2281    3.6987   22.9572 C   0  0  0  0  0  0  0  0  0  0  0  0
  -12.6903    3.0558   25.9102 C   0  0  0  0  0  0  0  0  0  0  0  0
  -13.2022    2.1693   26.3438 C   0  0  0  0  0  0  0  0  0  0  0  0
  -14.0897    1.8258   26.9968 C   0  0  0  0  0  0  0  0  0  0  0  0
  3  7  1  0
  7  8  2  0
  7  9  1  0
  2 10  1  0
 13 15  1  0
 17  6  1  1
 17 18  1  0
 17 24  1  0
 24 25  2  3
 25 26  1  0
 18 19  2  0
 19 20  1  0
 20 21  2  0
 21 22  1  0
 22 23  2  0
 23 18  1  0
 10 11  2  0
 11 13  1  0
 13 16  2  0
 16 14  1  0
 14 12  2  0
 12 10  1  0
  1  2  2  0
  2  5  1  0
  5  6  2  0
  6  4  1  0
  4  3  2  0
  3  1  1  0
M  END
$$$$
