No_5277-complexes_sdf/6BKW-FPZ/2024-09-17-14-21-01/
     RDKit          3D

 14 15  0  0  0  0  0  0  0  0999 V2000
   -7.7129    4.2099   27.0854 C   0  0  0  0  0  0  0  0  0  0  0  0
   -7.7814    5.1722   27.8972 C   0  0  0  0  0  0  0  0  0  0  0  0
   -8.8998    3.8713   26.3707 C   0  0  0  0  0  0  0  0  0  0  0  0
   -8.9563    2.6796   25.5490 C   0  0  0  0  0  0  0  0  0  0  0  0
   -8.8131    6.1334   27.9344 C   0  0  0  0  0  0  0  0  0  0  0  0
   -9.9804    5.8121   27.1929 C   0  0  0  0  0  0  0  0  0  0  0  0
   -9.9861    4.6836   26.4532 C   0  0  0  0  0  0  0  0  0  0  0  0
   -8.3357    1.4961   26.0703 C   0  0  0  0  0  0  0  0  0  0  0  0
   -7.9087    1.4777   27.3541 C   0  0  0  0  0  0  0  0  0  0  0  0
   -8.3451    0.3607   25.1873 C   0  0  0  0  0  0  0  0  0  0  0  0
   -7.3101    0.1743   27.7534 C   0  0  0  0  0  0  0  0  0  0  0  0
   -7.7642   -0.8242   25.6420 C   0  0  0  0  0  0  0  0  0  0  0  0
   -7.2447   -0.8932   26.9650 C   0  0  0  0  0  0  0  0  0  0  0  0
   -9.5497    2.7207   24.4324 O   0  0  0  0  0  0  0  0  0  0  0  0
  3  4  1  0
  4  8  1  0
  4 14  2  0
  8  9  2  0
  9 11  1  0
 11 13  2  0
 13 12  1  0
 12 10  2  0
 10  8  1  0
  1  2  2  0
  2  5  1  0
  5  6  2  0
  6  7  1  0
  7  3  2  0
  3  1  1  0
M  END
$$$$
