No_5794-complexes_sdf/6BKW-FPZ/2024-09-17-14-21-01/
     RDKit          3D

 39 46  0  0  0  0  0  0  0  0999 V2000
   -7.9040    3.9820   27.1177 C   0  0  0  0  0  0  0  0  0  0  0  0
   -7.8663    4.8694   27.9238 C   0  0  0  0  0  0  0  0  0  0  0  0
   -9.0501    3.8017   26.2617 C   0  0  0  0  0  0  0  0  0  0  0  0
  -10.0189    4.7608   26.3707 C   0  0  0  0  0  0  0  0  0  0  0  0
   -8.6973    5.9722   27.8968 C   0  0  0  0  0  0  0  0  0  0  0  0
   -9.8216    5.8946   27.1241 C   0  0  0  0  0  0  0  0  0  0  0  0
   -9.1437    2.6293   25.4175 C   0  0  0  0  0  0  0  0  0  0  0  0
   -8.6170    1.4258   25.8177 C   0  0  0  0  0  0  0  0  0  0  0  0
   -8.0311    1.3669   27.1547 C   0  0  0  0  0  0  0  0  0  0  0  0
   -7.3950    2.6332   27.6186 C   0  0  0  0  0  0  0  0  0  0  0  0
  -10.0586    2.6717   24.3064 C   0  0  0  0  0  0  0  0  0  0  0  0
   -9.9549    1.6979   23.3227 C   0  0  0  0  0  0  0  0  0  0  0  0
  -10.6594    1.7973   22.1251 C   0  0  0  0  0  0  0  0  0  0  0  0
  -11.4449    2.9448   21.9324 C   0  0  0  0  0  0  0  0  0  0  0  0
  -11.5200    3.9499   22.8814 C   0  0  0  0  0  0  0  0  0  0  0  0
  -10.7747    3.9035   24.0062 C   0  0  0  0  0  0  0  0  0  0  0  0
  -10.9078    4.8174   25.1441 C   0  0  0  0  0  0  0  0  0  0  0  0
   -7.5149    0.0962   27.6325 C   0  0  1  0  0  0  0  0  0  0  0  0
   -6.2243   -0.2093   27.9527 C   0  0  0  0  0  0  0  0  0  0  0  0
   -5.8594   -1.3297   28.6801 C   0  0  0  0  0  0  0  0  0  0  0  0
   -6.9014   -2.1736   29.0598 C   0  0  0  0  0  0  0  0  0  0  0  0
   -8.4299   -0.8638   28.1871 C   0  0  0  0  0  0  0  0  0  0  0  0
   -8.1542   -1.9244   28.8631 C   0  0  0  0  0  0  0  0  0  0  0  0
   -6.4647   -3.4212   29.8523 C   0  0  0  0  0  0  0  0  0  0  0  0
   -6.2507   -3.2746   31.0948 C   0  0  0  0  0  0  0  0  0  0  0  0
   -5.8645   -2.2304   31.7661 C   0  0  1  0  0  0  0  0  0  0  0  0
   -5.6685   -1.8160   32.7692 C   0  0  0  0  0  0  0  0  0  0  0  0
   -5.2117   -0.4775   33.2746 C   0  0  0  0  0  0  0  0  0  0  0  0
   -4.7599    0.2931   32.2052 C   0  0  0  0  0  0  0  0  0  0  0  0
   -4.7097   -0.1005   30.9250 C   0  0  0  0  0  0  0  0  0  0  0  0
   -5.2324   -1.2968   30.6404 C   0  0  2  0  0  0  0  0  0  0  0  0
   -5.4887   -1.4743   29.3967 N   0  0  0  0  0  0  0  0  0  0  0  0
   -4.3102   -2.5546   29.0435 C   0  0  0  0  0  0  0  0  0  0  0  0
   -3.4859   -1.9857   28.0603 C   0  0  0  0  0  0  0  0  0  0  0  0
   -2.4298   -2.6992   27.6458 C   0  0  0  0  0  0  0  0  0  0  0  0
   -1.6373   -2.0855   26.6112 C   0  0  0  0  0  0  0  0  0  0  0  0
   -1.9019   -0.8067   26.0236 C   0  0  0  0  0  0  0  0  0  0  0  0
   -3.0586   -0.1767   26.5436 C   0  0  0  0  0  0  0  0  0  0  0  0
   -3.7539   -0.7170   27.5131 C   0  0  0  0  0  0  0  0  0  0  0  0
  1  2  2  0
  1  3  1  0
  3  4  2  0
  2  5  1  0
  4  6  1  0
  5  6  2  0
  3  7  1  0
  7  8  2  0
  8  9  1  0
  1 10  1  0
  9 10  2  0
  7 11  1  0
 11 12  2  0
 12 13  1  0
 13 14  2  0
 14 15  1  0
 11 16  1  0
 15 16  2  0
  4 17  1  0
 16 17  1  0
 18  9  1  1
 18 19  1  0
 19 20  2  0
 20 21  1  0
 18 22  1  0
 21 23  2  0
 22 23  2  0
 21 24  1  0
 24 25  1  0
 26 25  1  1
 26 27  1  0
 27 28  2  0
 28 29  1  0
 29 30  2  0
 26 31  1  0
 30 31  1  0
 20 32  1  0
 31 32  1  6
 32 33  1  0
 33 34  1  0
 34 35  2  0
 35 36  1  0
 36 37  2  0
 37 38  1  0
 34 39  1  0
 38 39  1  0
M  END
$$$$
