No_5951-complexes_sdf/6BKW-FPZ/2024-09-17-14-21-01/
     RDKit          3D

 20 21  0  0  0  0  0  0  0  0999 V2000
   -7.7129    4.2099   27.0854 C   0  0  0  0  0  0  0  0  0  0  0  0
   -7.7814    5.1722   27.8972 C   0  0  0  0  0  0  0  0  0  0  0  0
   -8.8998    3.8713   26.3707 C   0  0  0  0  0  0  0  0  0  0  0  0
   -9.9938    4.6774   26.5446 C   0  0  0  0  0  0  0  0  0  0  0  0
   -8.7789    6.1536   27.9256 C   0  0  0  0  0  0  0  0  0  0  0  0
   -9.9428    5.8398   27.2296 C   0  0  0  0  0  0  0  0  0  0  0  0
   -8.9119    2.6447   25.5685 C   0  0  0  0  0  0  0  0  0  0  0  0
   -8.3051    1.4797   26.1124 C   0  0  0  0  0  0  0  0  0  0  0  0
   -8.8845    0.5484   26.3619 C   0  0  0  0  0  0  0  0  0  0  0  0
   -8.2167   -0.6624   27.0157 C   0  0  0  0  0  0  0  0  0  0  0  0
   -6.8979   -0.5080   27.4058 C   0  0  0  0  0  0  0  0  0  0  0  0
   -6.2630    0.6988   27.2097 C   0  0  0  0  0  0  0  0  0  0  0  0
   -6.9094    1.7426   26.6848 C   0  0  0  0  0  0  0  0  0  0  0  0
   -4.9005    0.8396   27.8077 C   0  0  0  0  0  0  0  0  0  0  0  0
   -4.5840    0.7252   28.8808 O   0  0  0  0  0  0  0  0  0  0  0  0
   -4.0055    1.2020   26.8171 O   0  0  0  0  0  0  0  0  0  0  0  0
  -11.2157    4.3789   25.7756 C   0  0  0  0  0  0  0  0  0  0  0  0
  -11.9327    5.3307   25.5930 F   0  0  0  0  0  0  0  0  0  0  0  0
  -10.7793    3.9521   24.4456 F   0  0  0  0  0  0  0  0  0  0  0  0
  -11.7518    3.2775   26.2906 F   0  0  0  0  0  0  0  0  0  0  0  0
  3  7  1  0
  7  8  1  0
 12 14  1  0
 14 15  2  0
 14 16  1  0
  4 17  1  0
 17 18  1  0
 17 19  1  0
 17 20  1  0
  8  9  2  0
  9 10  1  0
 10 11  2  0
 11 12  1  0
 12 13  2  0
 13  8  1  0
  1  2  2  0
  2  5  1  0
  5  6  2  0
  6  4  1  0
  4  3  2  0
  3  1  1  0
M  END
$$$$
