No_5307-complexes_sdf/6BKW-FPZ/2024-09-17-14-21-01/
     RDKit          3D

 40 44  0  0  0  0  0  0  0  0999 V2000
   -7.9040    3.9820   27.1177 C   0  0  0  0  0  0  0  0  0  0  0  0
   -8.2057    2.8231   26.8733 C   0  0  0  0  0  0  0  0  0  0  0  0
   -7.4766    1.7477   27.4593 C   0  0  0  0  0  0  0  0  0  0  0  0
   -8.7468    5.1251   26.6967 C   0  0  0  0  0  0  0  0  0  0  0  0
   -9.7234    4.8589   25.8202 C   0  0  0  0  0  0  0  0  0  0  0  0
   -9.9711    3.5858   25.4266 C   0  0  0  0  0  0  0  0  0  0  0  0
   -9.2266    2.4957   25.9600 C   0  0  0  0  0  0  0  0  0  0  0  0
   -6.1241    1.9216   27.8574 C   0  0  0  0  0  0  0  0  0  0  0  0
   -5.4248    0.7985   28.3602 C   0  0  0  0  0  0  0  0  0  0  0  0
   -5.9324   -0.4517   28.3727 C   0  0  0  0  0  0  0  0  0  0  0  0
   -7.8680    0.3890   27.4333 C   0  0  0  0  0  0  0  0  0  0  0  0
   -7.2076   -0.6217   27.9501 C   0  0  0  0  0  0  0  0  0  0  0  0
   -8.4174    6.5135   27.1003 C   0  0  0  0  0  0  0  0  0  0  0  0
   -7.9217    7.5804   27.0558 N   0  0  0  0  0  0  0  0  0  0  0  0
   -3.9798    0.8803   28.8653 C   0  0  0  0  0  0  0  0  0  0  0  0
   -3.1382    0.0489   28.7721 N   0  0  0  0  0  0  0  0  0  0  0  0
   -2.6465   -0.7238   29.8144 C   0  0  0  0  0  0  0  0  0  0  0  0
   -2.8415   -1.9326   29.8994 C   0  0  0  0  0  0  0  0  0  0  0  0
   -2.3851   -2.6588   31.0399 C   0  0  0  0  0  0  0  0  0  0  0  0
   -1.7846   -2.0284   32.1432 C   0  0  0  0  0  0  0  0  0  0  0  0
   -1.7791   -0.5958   32.0947 C   0  0  0  0  0  0  0  0  0  0  0  0
   -2.2592    0.0922   30.9960 C   0  0  0  0  0  0  0  0  0  0  0  0
   -2.5158   -0.2147   27.5013 C   0  0  0  0  0  0  0  0  0  0  0  0
   -2.3537   -1.2633   26.9413 C   0  0  0  0  0  0  0  0  0  0  0  0
   -2.0345    1.0098   26.8438 C   0  0  0  0  0  0  0  0  0  0  0  0
   -2.7471   -2.4937   27.2788 C   0  0  0  0  0  0  0  0  0  0  0  0
   -2.5152   -3.5559   26.3630 C   0  0  0  0  0  0  0  0  0  0  0  0
   -2.0545   -3.2478   25.1376 C   0  0  0  0  0  0  0  0  0  0  0  0
   -1.6159   -2.0271   24.7849 C   0  0  0  0  0  0  0  0  0  0  0  0
   -1.7908   -1.0962   25.6042 C   0  0  0  0  0  0  0  0  0  0  0  0
  -11.0083    3.3260   24.4226 C   0  0  0  0  0  0  0  0  0  0  0  0
  -10.8289    3.6211   23.1263 C   0  0  0  0  0  0  0  0  0  0  0  0
  -10.2188    4.3610   22.5716 C   0  0  0  0  0  0  0  0  0  0  0  0
  -10.2150    4.6923   21.1308 C   0  0  0  0  0  0  0  0  0  0  0  0
  -11.8646    2.9739   22.1498 C   0  0  0  0  0  0  0  0  0  0  0  0
  -11.9543    3.1625   20.8737 C   0  0  0  0  0  0  0  0  0  0  0  0
  -11.0107    4.1304   20.3118 C   0  0  0  0  0  0  0  0  0  0  0  0
  -12.2111    2.7641   25.0190 C   0  0  0  0  0  0  0  0  0  0  0  0
  -12.5444    1.8158   25.3417 C   0  0  0  0  0  0  0  0  0  0  0  0
  -13.8086    1.3918   25.8928 C   0  0  0  0  0  0  0  0  0  0  0  0
  2  3  1  0
  4 13  1  0
 13 14  3  0
  9 15  1  0
 15 16  1  0
 16 17  1  0
 16 23  1  0
 23 25  1  0
  6 31  1  0
 31 32  1  0
 31 38  1  0
 38 39  2  3
 39 40  1  0
 23 24  1  0
  1  2  2  0
  2  7  1  0
  7  6  2  0
  6  5  1  0
  5  4  2  0
  4  1  1  0
  3  8  2  0
  8  9  1  0
  9 10  2  0
 10 12  1  0
 12 11  2  0
 11  3  1  0
 17 18  2  0
 18 19  1  0
 19 20  2  0
 20 21  1  0
 21 22  2  0
 22 17  1  0
 24 26  2  0
 26 27  1  0
 27 28  2  0
 28 29  1  0
 29 30  2  0
 30 24  1  0
 32 33  2  0
 33 34  1  0
 34 37  2  0
 37 36  1  0
 36 35  2  0
 35 32  1  0
M  END
$$$$
