No_5077-complexes_sdf/6BKW-FPZ/2024-09-17-14-21-01/
     RDKit          3D

 16 17  0  0  0  0  0  0  0  0999 V2000
   -7.9040    3.9820   27.1177 C   0  0  0  0  0  0  0  0  0  0  0  0
   -8.2057    2.8231   26.8733 C   0  0  0  0  0  0  0  0  0  0  0  0
   -7.4766    1.7477   27.4593 C   0  0  0  0  0  0  0  0  0  0  0  0
   -8.7468    5.1251   26.6967 C   0  0  0  0  0  0  0  0  0  0  0  0
   -9.7234    4.8589   25.8202 C   0  0  0  0  0  0  0  0  0  0  0  0
   -9.9711    3.5858   25.4266 C   0  0  0  0  0  0  0  0  0  0  0  0
   -9.2266    2.4957   25.9600 C   0  0  0  0  0  0  0  0  0  0  0  0
   -6.8425    0.8531   26.9581 N   0  0  0  0  0  0  0  0  0  0  0  0
   -5.9791    0.0697   27.6649 C   0  0  0  0  0  0  0  0  0  0  0  0
   -6.1907   -1.2431   27.8628 C   0  0  0  0  0  0  0  0  0  0  0  0
   -5.5365   -1.8892   28.8287 C   0  0  0  0  0  0  0  0  0  0  0  0
   -4.3893   -1.3164   29.4912 C   0  0  0  0  0  0  0  0  0  0  0  0
   -4.0942    0.0518   29.1828 C   0  0  0  0  0  0  0  0  0  0  0  0
   -4.9106    0.7676   28.3585 C   0  0  0  0  0  0  0  0  0  0  0  0
   -8.6677    6.5197   27.0938 C   0  0  0  0  0  0  0  0  0  0  0  0
   -8.4374    6.9979   28.1535 N   0  0  0  0  0  0  0  0  0  0  0  0
  2  3  1  0
  3  8  1  0
  8  9  1  0
  4 15  1  0
 15 16  2  0
  1  2  2  0
  2  7  1  0
  7  6  2  0
  6  5  1  0
  5  4  2  0
  4  1  1  0
  9 10  2  0
 10 11  1  0
 11 12  2  0
 12 13  1  0
 13 14  2  0
 14  9  1  0
M  END
$$$$
