No_5135-complexes_sdf/6BKW-FPZ/2024-09-17-14-21-01/
     RDKit          3D

 17 18  0  0  0  0  0  0  0  0999 V2000
   -7.2496    3.8871   27.4508 C   0  0  0  0  0  0  0  0  0  0  0  0
   -7.6161    2.7143   27.1523 C   0  0  0  0  0  0  0  0  0  0  0  0
   -7.1618    1.8631   27.5233 C   0  0  0  0  0  0  0  0  0  0  0  0
   -8.0384    5.0866   27.3231 C   0  0  0  0  0  0  0  0  0  0  0  0
   -9.1224    5.1097   26.4856 C   0  0  0  0  0  0  0  0  0  0  0  0
   -8.8783    2.5972   26.4117 C   0  0  0  0  0  0  0  0  0  0  0  0
   -9.5900    3.8077   26.0949 C   0  0  0  0  0  0  0  0  0  0  0  0
   -5.7265    1.8526   28.0342 C   0  0  0  0  0  0  0  0  0  0  0  0
   -5.0642    0.5726   28.3727 C   0  0  0  0  0  0  0  0  0  0  0  0
   -5.7308   -0.5768   28.2790 C   0  0  0  0  0  0  0  0  0  0  0  0
   -7.3963    0.3623   27.5111 C   0  0  0  0  0  0  0  0  0  0  0  0
   -6.9261   -0.6714   27.8786 C   0  0  0  0  0  0  0  0  0  0  0  0
   -7.4944    6.4297   27.7953 C   0  0  0  0  0  0  0  0  0  0  0  0
   -3.4240    0.8341   29.0205 Cl  0  0  0  0  0  0  0  0  0  0  0  0
  -10.7854    3.7207   25.2279 C   0  0  0  0  0  0  0  0  0  0  0  0
  -10.7252    3.9448   23.8669 C   0  0  0  0  0  0  0  0  0  0  0  0
  -11.8345    3.9036   23.0206 C   0  0  0  0  0  0  0  0  0  0  0  0
  2  3  1  0
  4 13  1  0
  9 14  1  0
  7 15  1  0
 15 16  2  3
 16 17  1  0
  3  8  2  0
  8  9  1  0
  9 10  2  0
 10 12  1  0
 12 11  2  0
 11  3  1  0
  1  2  2  0
  2  6  1  0
  6  7  2  0
  7  5  1  0
  5  4  2  0
  4  1  1  0
M  END
$$$$
