No_5299-complexes_sdf/6BKW-FPZ/2024-09-17-14-21-01/
     RDKit          3D

 17 19  0  0  0  0  0  0  0  0999 V2000
   -7.7129    4.2099   27.0854 C   0  0  0  0  0  0  0  0  0  0  0  0
   -8.2112    3.0637   26.9225 C   0  0  0  0  0  0  0  0  0  0  0  0
   -9.4446    2.8304   26.1868 C   0  0  0  0  0  0  0  0  0  0  0  0
   -8.4697    5.3956   26.7238 C   0  0  0  0  0  0  0  0  0  0  0  0
   -9.6172    5.2111   25.9513 C   0  0  0  0  0  0  0  0  0  0  0  0
  -10.0424    3.9782   25.6873 C   0  0  0  0  0  0  0  0  0  0  0  0
   -7.5056    1.8167   27.4088 C   0  0  0  0  0  0  0  0  0  0  0  0
   -6.2319    1.8972   27.8053 N   0  0  0  0  0  0  0  0  0  0  0  0
   -7.9207    0.5684   27.1810 N   0  0  0  0  0  0  0  0  0  0  0  0
   -6.9327   -0.1898   27.6919 C   0  0  0  0  0  0  0  0  0  0  0  0
   -5.8554    0.6190   28.0145 C   0  0  0  0  0  0  0  0  0  0  0  0
   -4.5101    0.2674   28.5417 C   0  0  0  0  0  0  0  0  0  0  0  0
   -4.4485   -0.0895   29.7981 C   0  0  0  0  0  0  0  0  0  0  0  0
   -3.1471   -0.3806   30.3848 C   0  0  0  0  0  0  0  0  0  0  0  0
   -3.3644    0.4042   27.7683 C   0  0  0  0  0  0  0  0  0  0  0  0
   -2.0780    0.0188   28.2264 C   0  0  0  0  0  0  0  0  0  0  0  0
   -2.0145   -0.3316   29.5727 C   0  0  0  0  0  0  0  0  0  0  0  0
  2  7  1  0
  7  8  2  0
  7  9  1  0
  9 10  2  0
  8 11  1  0
 10 11  1  0
 11 12  1  0
 12 13  2  0
 13 14  1  0
 14 17  2  0
 17 16  1  0
 16 15  2  0
 15 12  1  0
  1  2  2  0
  2  3  1  0
  3  6  2  0
  6  5  1  0
  5  4  2  0
  4  1  1  0
M  END
$$$$
