No_546-complexes_sdf/6BKW-FPZ/2024-09-17-14-21-01/
     RDKit          3D

 31 35  0  0  0  0  0  0  0  0999 V2000
   -7.9040    3.9820   27.1177 C   0  0  0  0  0  0  0  0  0  0  0  0
   -9.0711    4.3164   27.0630 C   0  0  0  0  0  0  0  0  0  0  0  0
   -9.5182    5.5541   27.5777 C   0  0  0  0  0  0  0  0  0  0  0  0
   -7.4468    2.6843   26.6499 C   0  0  0  0  0  0  0  0  0  0  0  0
   -8.3856    1.7878   26.2216 C   0  0  0  0  0  0  0  0  0  0  0  0
   -9.6812    2.2328   26.0889 C   0  0  0  0  0  0  0  0  0  0  0  0
  -10.0147    3.4312   26.5259 C   0  0  0  0  0  0  0  0  0  0  0  0
   -7.9132    0.4733   25.8127 C   0  0  0  0  0  0  0  0  0  0  0  0
   -8.2493   -0.3847   26.3178 C   0  0  0  0  0  0  0  0  0  0  0  0
   -8.9977   -0.5047   27.4084 C   0  0  0  0  0  0  0  0  0  0  0  0
   -9.3810   -1.7430   28.1784 C   0  0  0  0  0  0  0  0  0  0  0  0
   -8.7938   -2.8490   27.7027 C   0  0  0  0  0  0  0  0  0  0  0  0
   -8.0069   -2.8657   26.6371 C   0  0  0  0  0  0  0  0  0  0  0  0
   -7.6376   -1.7834   25.9927 C   0  0  0  0  0  0  0  0  0  0  0  0
   -8.5862    6.6690   27.4559 C   0  0  0  0  0  0  0  0  0  0  0  0
   -7.2363    6.3684   27.3756 C   0  0  0  0  0  0  0  0  0  0  0  0
   -6.8297    5.0433   27.2860 C   0  0  0  0  0  0  0  0  0  0  0  0
  -11.4558    3.8170   26.3320 C   0  0  0  0  0  0  0  0  0  0  0  0
  -12.0081    3.7954   25.1510 C   0  0  0  0  0  0  0  0  0  0  0  0
  -13.3873    4.0830   25.0024 C   0  0  0  0  0  0  0  0  0  0  0  0
  -14.1293    4.5234   26.1573 C   0  0  0  0  0  0  0  0  0  0  0  0
  -13.4657    4.6095   27.4110 C   0  0  0  0  0  0  0  0  0  0  0  0
  -12.1539    4.2795   27.5465 C   0  0  0  0  0  0  0  0  0  0  0  0
  -14.4258    5.1688   28.7433 Cl  0  0  0  0  0  0  0  0  0  0  0  0
   -9.1202   -4.0249   28.3658 F   0  0  0  0  0  0  0  0  0  0  0  0
  -14.0268    4.0820   23.7129 C   0  0  0  0  0  0  0  0  0  0  0  0
  -14.6310    2.8901   23.4340 C   0  0  0  0  0  0  0  0  0  0  0  0
  -15.1726    2.6765   22.3160 C   0  0  0  0  0  0  0  0  0  0  0  0
  -15.1532    3.7553   21.3189 C   0  0  0  0  0  0  0  0  0  0  0  0
  -14.5208    4.9480   21.5764 C   0  0  0  0  0  0  0  0  0  0  0  0
  -13.9187    5.1587   22.8151 C   0  0  0  0  0  0  0  0  0  0  0  0
  5  8  1  0
  8  9  1  0
  7 18  1  0
 22 24  1  0
 12 25  1  0
 20 26  1  0
 18 19  2  0
 19 20  1  0
 20 21  2  0
 21 22  1  0
 22 23  2  0
 23 18  1  0
  2  7  1  0
  7  6  2  0
  6  5  1  0
  5  4  2  0
  4  1  1  0
  9 10  2  0
 10 11  1  0
 11 12  2  0
 12 13  1  0
 13 14  2  0
 14  9  1  0
  1  2  1  0
  2  3  2  0
  3 15  1  0
 15 16  2  0
 16 17  1  0
 17  1  2  0
 26 27  2  0
 27 28  1  0
 28 29  2  0
 29 30  1  0
 30 31  2  0
 31 26  1  0
M  END
$$$$
