No_5109-complexes_sdf/6BKW-FPZ/2024-09-17-14-21-01/
     RDKit          3D

 31 34  0  0  0  0  0  0  0  0999 V2000
   -7.9040    3.9820   27.1177 C   0  0  0  0  0  0  0  0  0  0  0  0
   -8.2057    2.8231   26.8733 C   0  0  0  0  0  0  0  0  0  0  0  0
   -7.4766    1.7477   27.4593 C   0  0  0  0  0  0  0  0  0  0  0  0
   -8.7468    5.1251   26.6967 C   0  0  0  0  0  0  0  0  0  0  0  0
   -9.7234    4.8589   25.8202 C   0  0  0  0  0  0  0  0  0  0  0  0
   -9.9711    3.5858   25.4266 C   0  0  0  0  0  0  0  0  0  0  0  0
   -9.2266    2.4957   25.9600 C   0  0  0  0  0  0  0  0  0  0  0  0
   -7.8394    0.3721   27.3404 C   0  0  0  0  0  0  0  0  0  0  0  0
   -8.9869    0.1878   26.4476 C   0  0  0  0  0  0  0  0  0  0  0  0
   -9.6379    1.1710   25.7653 C   0  0  0  0  0  0  0  0  0  0  0  0
   -8.3911    6.5360   27.0721 C   0  0  0  0  0  0  0  0  0  0  0  0
   -8.0015    7.6163   27.1024 N   0  0  0  0  0  0  0  0  0  0  0  0
   -7.2565   -0.5654   27.9432 F   0  0  0  0  0  0  0  0  0  0  0  0
  -10.9470    3.3753   24.5462 O   0  0  0  0  0  0  0  0  0  0  0  0
  -10.8609    3.8994   23.3144 C   0  0  0  0  0  0  0  0  0  0  0  0
  -10.4637    3.0952   22.2749 C   0  0  0  0  0  0  0  0  0  0  0  0
  -10.4097    3.6172   20.9735 C   0  0  0  0  0  0  0  0  0  0  0  0
  -10.8090    5.0039   20.8104 C   0  0  0  0  0  0  0  0  0  0  0  0
  -11.1581    5.7671   21.9036 C   0  0  0  0  0  0  0  0  0  0  0  0
  -11.2357    5.2445   23.1356 C   0  0  0  0  0  0  0  0  0  0  0  0
   -6.9564    4.4192   28.0055 F   0  0  0  0  0  0  0  0  0  0  0  0
   -9.3651   -1.4830   26.2000 Cl  0  0  0  0  0  0  0  0  0  0  0  0
  -10.0347    1.7002   22.4135 C   0  0  0  0  0  0  0  0  0  0  0  0
   -9.4685    1.0348   21.5621 N   0  0  0  0  0  0  0  0  0  0  0  0
   -9.0682   -0.2754   21.7870 C   0  0  0  0  0  0  0  0  0  0  0  0
   -9.2894   -1.2834   20.9010 C   0  0  0  0  0  0  0  0  0  0  0  0
  -10.1924   -1.1170   19.8876 C   0  0  0  0  0  0  0  0  0  0  0  0
  -10.2588   -2.0502   18.8113 C   0  0  0  0  0  0  0  0  0  0  0  0
   -9.4257   -3.1725   18.9011 C   0  0  0  0  0  0  0  0  0  0  0  0
   -8.5541   -3.3830   19.9038 C   0  0  0  0  0  0  0  0  0  0  0  0
   -8.3769   -2.3998   20.8999 C   0  0  0  0  0  0  0  0  0  0  0  0
  4 11  1  0
 11 12  3  0
  8 13  1  0
  6 14  1  0
 14 15  1  0
  1 21  1  0
  9 22  1  0
 16 23  1  0
 23 24  2  3
 24 25  1  0
 25 26  1  0
 15 16  1  0
 16 17  2  0
 17 18  1  0
 18 19  2  0
 19 20  1  0
 20 15  2  0
  1  2  2  0
  7  6  2  0
  6  5  1  0
  5  4  2  0
  4  1  1  0
 26 27  2  0
 27 28  1  0
 28 29  2  0
 29 30  1  0
 30 31  2  0
 31 26  1  0
  2  3  1  0
  3  8  2  0
  8  9  1  0
  9 10  2  0
 10  7  1  0
  7  2  1  0
M  END
$$$$
