No_5388-complexes_sdf/6BKW-FPZ/2024-09-17-14-21-01/
     RDKit          3D

 15 16  0  0  0  0  0  0  0  0999 V2000
   -7.9040    3.9820   27.1177 C   0  0  0  0  0  0  0  0  0  0  0  0
   -7.8663    4.8694   27.9238 C   0  0  0  0  0  0  0  0  0  0  0  0
   -9.0491    3.8523   26.2542 C   0  0  0  0  0  0  0  0  0  0  0  0
   -8.7661    5.9491   27.9690 C   0  0  0  0  0  0  0  0  0  0  0  0
   -9.9279    4.8544   26.1938 C   0  0  0  0  0  0  0  0  0  0  0  0
   -9.8044    5.9413   27.0782 C   0  0  0  0  0  0  0  0  0  0  0  0
   -6.9767    2.7896   27.2265 C   0  0  0  0  0  0  0  0  0  0  0  0
   -7.3726    1.4454   26.8882 C   0  0  0  0  0  0  0  0  0  0  0  0
   -6.7347    0.5251   27.1525 C   0  0  0  0  0  0  0  0  0  0  0  0
   -5.4037    0.6453   27.8175 C   0  0  0  0  0  0  0  0  0  0  0  0
   -5.0189    1.9680   28.1633 C   0  0  0  0  0  0  0  0  0  0  0  0
   -5.7511    2.9604   27.9492 C   0  0  0  0  0  0  0  0  0  0  0  0
   -4.5459   -0.5195   28.1248 C   0  0  0  0  0  0  0  0  0  0  0  0
   -3.7885   -0.3706   29.0629 O   0  0  0  0  0  0  0  0  0  0  0  0
   -4.8436   -1.6212   27.6945 F   0  0  0  0  0  0  0  0  0  0  0  0
  1  7  1  0
 10 13  1  0
 13 14  2  0
 13 15  1  0
  1  2  2  0
  2  4  1  0
  4  6  2  0
  6  5  1  0
  5  3  2  0
  3  1  1  0
  7  8  2  0
  8  9  1  0
  9 10  2  0
 10 11  1  0
 11 12  2  0
 12  7  1  0
M  END
$$$$
