No_5538-complexes_sdf/6BKW-FPZ/2024-09-17-14-21-01/
     RDKit          3D

 23 24  0  0  0  0  0  0  0  0999 V2000
   -7.7129    4.2099   27.0854 C   0  0  0  0  0  0  0  0  0  0  0  0
   -8.2112    3.0637   26.9225 C   0  0  0  0  0  0  0  0  0  0  0  0
   -8.5108    5.3904   26.9436 C   0  0  0  0  0  0  0  0  0  0  0  0
   -9.7256    5.1955   26.3518 C   0  0  0  0  0  0  0  0  0  0  0  0
   -9.4995    2.8258   26.4878 C   0  0  0  0  0  0  0  0  0  0  0  0
  -10.2542    3.9691   26.2055 C   0  0  0  0  0  0  0  0  0  0  0  0
   -7.9135    6.7086   27.1885 C   0  0  0  0  0  0  0  0  0  0  0  0
   -7.1774    1.9276   27.3070 C   0  0  0  0  0  0  0  0  0  0  0  0
   -7.5677    0.6533   27.1142 N   0  0  0  0  0  0  0  0  0  0  0  0
   -7.0246   -0.1059   26.5159 C   0  0  0  0  0  0  0  0  0  0  0  0
   -5.7362   -0.3200   26.7025 C   0  0  0  0  0  0  0  0  0  0  0  0
   -5.2077   -0.4919   27.7713 C   0  0  0  0  0  0  0  0  0  0  0  0
   -3.8728   -0.1253   28.1041 C   0  0  0  0  0  0  0  0  0  0  0  0
   -3.3458   -0.0778   29.4903 C   0  0  0  0  0  0  0  0  0  0  0  0
   -4.2309   -0.4057   30.5488 C   0  0  0  0  0  0  0  0  0  0  0  0
   -5.5058   -0.8183   30.2130 C   0  0  0  0  0  0  0  0  0  0  0  0
   -5.9938   -0.7176   28.9806 C   0  0  0  0  0  0  0  0  0  0  0  0
   -2.9139    0.3341   27.1086 C   0  0  0  0  0  0  0  0  0  0  0  0
   -1.9063    0.0339   27.1261 O   0  0  0  0  0  0  0  0  0  0  0  0
   -3.4699    1.0577   26.1397 O   0  0  0  0  0  0  0  0  0  0  0  0
   -7.6421   -1.0228   25.8519 O   0  0  0  0  0  0  0  0  0  0  0  0
   -8.5880    7.8224   26.8074 N   0  0  0  0  0  0  0  0  0  0  0  0
   -6.8219    6.7904   27.7953 O   0  0  0  0  0  0  0  0  0  0  0  0
  3  7  1  0
  2  8  1  0
  8  9  1  0
  9 10  1  0
 10 11  1  0
 11 12  1  0
 13 18  1  0
 18 19  2  0
 18 20  1  0
 10 21  2  0
  7 22  1  0
  7 23  2  0
 12 13  2  0
 13 14  1  0
 14 15  2  0
 15 16  1  0
 16 17  2  0
 17 12  1  0
  1  2  2  0
  2  5  1  0
  5  6  2  0
  6  4  1  0
  4  3  2  0
  3  1  1  0
M  END
$$$$
