No_5440-complexes_sdf/6BKW-FPZ/2024-09-17-14-21-01/
     RDKit          3D

 13 13  0  0  0  0  0  0  0  0999 V2000
   -7.2496    3.8871   27.4508 C   0  0  0  0  0  0  0  0  0  0  0  0
   -8.5096    4.0291   27.2770 C   0  0  0  0  0  0  0  0  0  0  0  0
   -9.3451    2.8786   26.9046 C   0  0  0  0  0  0  0  0  0  0  0  0
   -6.6065    2.5680   27.5073 C   0  0  0  0  0  0  0  0  0  0  0  0
   -7.3970    1.4834   27.2271 C   0  0  0  0  0  0  0  0  0  0  0  0
   -8.7029    1.6398   26.9934 C   0  0  0  0  0  0  0  0  0  0  0  0
   -9.1085    5.3654   27.2135 C   0  0  0  0  0  0  0  0  0  0  0  0
   -8.3130    6.4941   26.9862 C   0  0  0  0  0  0  0  0  0  0  0  0
   -8.8196    7.8197   27.0372 C   0  0  0  0  0  0  0  0  0  0  0  0
   -6.7534    0.1869   27.2929 C   0  0  0  0  0  0  0  0  0  0  0  0
   -5.6211    0.0423   27.8668 N   0  0  0  0  0  0  0  0  0  0  0  0
   -4.9269   -0.5505   28.3826 C   0  0  0  0  0  0  0  0  0  0  0  0
   -3.6401   -0.2203   29.1021 C   0  0  0  0  0  0  0  0  0  0  0  0
  2  7  1  0
  7  8  2  3
  8  9  1  0
  5 10  1  0
 10 11  1  0
 11 12  1  0
 12 13  2  0
  1  2  2  0
  2  3  1  0
  3  6  2  0
  6  5  1  0
  5  4  2  0
  4  1  1  0
M  END
$$$$
