No_5314-complexes_sdf/6BKW-FPZ/2024-09-17-14-21-01/
     RDKit          3D

 19 21  0  0  0  0  0  0  0  0999 V2000
   -7.7129    4.2099   27.0854 C   0  0  0  0  0  0  0  0  0  0  0  0
   -8.2112    3.0637   26.9225 C   0  0  0  0  0  0  0  0  0  0  0  0
   -7.5138    1.9223   27.4249 C   0  0  0  0  0  0  0  0  0  0  0  0
   -8.5309    5.4147   26.8151 C   0  0  0  0  0  0  0  0  0  0  0  0
   -8.1184    6.7672   27.1362 C   0  0  0  0  0  0  0  0  0  0  0  0
   -6.1372    2.1405   27.7998 C   0  0  0  0  0  0  0  0  0  0  0  0
   -5.7534    3.4246   27.9891 N   0  0  0  0  0  0  0  0  0  0  0  0
   -6.4140    4.4354   27.7330 C   0  0  0  0  0  0  0  0  0  0  0  0
   -8.9347    7.8595   26.5652 C   0  0  0  0  0  0  0  0  0  0  0  0
   -5.3825    1.0910   28.1968 N   0  0  0  0  0  0  0  0  0  0  0  0
   -5.7466   -0.2267   28.1354 C   0  0  0  0  0  0  0  0  0  0  0  0
   -7.0491   -0.4737   27.5972 C   0  0  0  0  0  0  0  0  0  0  0  0
   -7.8951    0.5525   27.2450 C   0  0  0  0  0  0  0  0  0  0  0  0
   -9.6937    5.2670   26.0831 C   0  0  0  0  0  0  0  0  0  0  0  0
   -9.8536    4.1927   25.4984 C   0  0  0  0  0  0  0  0  0  0  0  0
   -9.3304    2.9217   26.0298 C   0  0  0  0  0  0  0  0  0  0  0  0
   -5.0307   -1.2524   28.5789 N   0  0  0  0  0  0  0  0  0  0  0  0
   -5.2573   -2.4361   28.5809 C   0  0  0  0  0  0  0  0  0  0  0  0
   -4.4580   -3.4503   29.0938 C   0  0  0  0  0  0  0  0  0  0  0  0
  5  9  1  0
 11 17  1  0
 17 18  2  3
 18 19  1  0
  5  4  1  0
  2 16  1  0
 16 15  2  0
 15 14  1  0
 14  4  2  0
  4  1  1  0
  6 10  2  0
 10 11  1  0
 11 12  2  0
 12 13  1  0
 13  3  2  0
  1  2  2  0
  2  3  1  0
  3  6  1  0
  6  7  1  0
  7  8  2  0
  8  1  1  0
M  END
$$$$
