No_5584-complexes_sdf/6BKW-FPZ/2024-09-17-14-21-01/
     RDKit          3D

 36 39  0  0  0  0  0  0  0  0999 V2000
   -7.9040    3.9820   27.1177 C   0  0  0  0  0  0  0  0  0  0  0  0
   -8.2057    2.8231   26.8733 C   0  0  0  0  0  0  0  0  0  0  0  0
   -8.7695    5.0740   26.7916 C   0  0  0  0  0  0  0  0  0  0  0  0
   -9.9618    4.7598   26.1630 C   0  0  0  0  0  0  0  0  0  0  0  0
   -9.4200    2.4524   26.2849 C   0  0  0  0  0  0  0  0  0  0  0  0
  -10.2590    3.4815   25.9250 C   0  0  0  0  0  0  0  0  0  0  0  0
   -8.3840    6.4693   27.0829 C   0  0  0  0  0  0  0  0  0  0  0  0
   -7.9676    7.4862   26.9931 N   0  0  0  0  0  0  0  0  0  0  0  0
   -7.2799    1.6688   27.3023 C   0  0  0  0  0  0  0  0  0  0  0  0
   -6.6299    0.9424   26.7175 C   0  0  0  0  0  0  0  0  0  0  0  0
   -5.6735    0.0954   27.4208 C   0  0  0  0  0  0  0  0  0  0  0  0
   -5.2252   -1.0677   27.1812 C   0  0  0  0  0  0  0  0  0  0  0  0
   -5.9026   -2.0500   27.2945 C   0  0  0  0  0  0  0  0  0  0  0  0
   -7.0516   -2.1112   27.8075 C   0  0  0  0  0  0  0  0  0  0  0  0
   -7.8411   -3.2328   27.9756 C   0  0  0  0  0  0  0  0  0  0  0  0
   -7.4025   -4.3554   27.3937 C   0  0  0  0  0  0  0  0  0  0  0  0
   -8.2578   -5.4875   27.5481 C   0  0  0  0  0  0  0  0  0  0  0  0
   -5.5253   -3.4036   26.7807 C   0  0  0  0  0  0  0  0  0  0  0  0
   -6.2972   -4.4610   26.8452 C   0  0  0  0  0  0  0  0  0  0  0  0
   -5.2957    0.8640   28.6449 C   0  0  0  0  0  0  0  0  0  0  0  0
   -4.0001    1.1901   28.7205 C   0  0  0  0  0  0  0  0  0  0  0  0
   -3.0417    0.2873   28.0755 C   0  0  0  0  0  0  0  0  0  0  0  0
   -3.6933   -0.8843   27.3838 C   0  0  0  0  0  0  0  0  0  0  0  0
   -9.3195   -5.6877   27.3355 O   0  0  0  0  0  0  0  0  0  0  0  0
   -7.7118   -6.4960   28.3620 O   0  0  0  0  0  0  0  0  0  0  0  0
  -11.5482    3.1758   25.2233 C   0  0  2  0  0  0  0  0  0  0  0  0
  -11.7435    3.5595   23.9973 C   0  0  0  0  0  0  0  0  0  0  0  0
  -12.9464    3.3097   23.2583 C   0  0  0  0  0  0  0  0  0  0  0  0
  -12.9322    3.5091   21.9137 C   0  0  0  0  0  0  0  0  0  0  0  0
  -10.7359    4.0924   23.1082 C   0  0  0  0  0  0  0  0  0  0  0  0
  -10.7740    4.4411   21.8416 C   0  0  0  0  0  0  0  0  0  0  0  0
   -9.6183    5.0062   21.1446 C   0  0  0  0  0  0  0  0  0  0  0  0
  -11.9607    4.1077   21.1670 C   0  0  0  0  0  0  0  0  0  0  0  0
  -12.5256    2.5223   26.0167 C   0  0  0  0  0  0  0  0  0  0  0  0
  -13.4775    2.7444   26.7537 C   0  0  0  0  0  0  0  0  0  0  0  0
  -14.3098    1.9162   27.4312 C   0  0  0  0  0  0  0  0  0  0  0  0
  3  7  1  0
  7  8  3  0
  2  9  1  0
  9 10  1  0
 12 13  1  0
 16 17  1  0
 17 24  1  0
 17 25  2  0
 26  6  1  1
 31 32  1  0
 26 34  1  0
 34 35  2  3
 35 36  1  0
 26 27  1  0
 10 11  1  0
 27 28  2  0
 28 29  1  0
 29 33  2  0
 33 31  1  0
 31 30  2  0
 30 27  1  0
 13 14  2  0
 14 15  1  0
 15 16  2  0
 16 19  1  0
 19 18  2  0
 18 13  1  0
 11 12  2  0
 12 23  1  0
 23 22  2  0
 22 21  1  0
 21 20  2  0
 20 11  1  0
  1  2  2  0
  2  5  1  0
  5  6  2  0
  6  4  1  0
  4  3  2  0
  3  1  1  0
M  END
$$$$
