No_5922-complexes_sdf/6BKW-FPZ/2024-09-17-14-21-01/
     RDKit          3D

 22 24  0  0  0  0  0  0  0  0999 V2000
   -7.7129    4.2099   27.0854 C   0  0  0  0  0  0  0  0  0  0  0  0
   -7.7814    5.1722   27.8972 C   0  0  0  0  0  0  0  0  0  0  0  0
   -8.8998    3.8713   26.3707 C   0  0  0  0  0  0  0  0  0  0  0  0
   -9.9938    4.6774   26.5446 C   0  0  0  0  0  0  0  0  0  0  0  0
   -8.7789    6.1536   27.9256 C   0  0  0  0  0  0  0  0  0  0  0  0
   -9.9428    5.8398   27.2296 C   0  0  0  0  0  0  0  0  0  0  0  0
   -9.1379    2.6708   25.6021 C   0  0  0  0  0  0  0  0  0  0  0  0
   -9.8686    2.6735   24.5267 N   0  0  0  0  0  0  0  0  0  0  0  0
   -9.9312    1.6634   23.6320 C   0  0  0  0  0  0  0  0  0  0  0  0
   -8.6991    1.5989   26.0198 O   0  0  0  0  0  0  0  0  0  0  0  0
   -9.2689    0.8367   23.4704 C   0  0  0  0  0  0  0  0  0  0  0  0
   -9.2690   -0.1824   22.3684 C   0  0  0  0  0  0  0  0  0  0  0  0
  -10.2603    0.0184   21.3935 C   0  0  0  0  0  0  0  0  0  0  0  0
  -11.1210    1.1130   21.5719 C   0  0  0  0  0  0  0  0  0  0  0  0
  -10.9741    1.9997   22.5912 C   0  0  0  0  0  0  0  0  0  0  0  0
   -6.6265    5.5616   28.5979 O   0  0  0  0  0  0  0  0  0  0  0  0
  -10.3946   -0.9302   20.3100 C   0  0  0  0  0  0  0  0  0  0  0  0
  -11.2406   -1.9864   20.4368 C   0  0  0  0  0  0  0  0  0  0  0  0
  -11.3577   -2.8725   19.4038 C   0  0  0  0  0  0  0  0  0  0  0  0
  -10.6653   -2.6861   18.2024 C   0  0  0  0  0  0  0  0  0  0  0  0
   -9.8056   -1.5805   18.0814 C   0  0  0  0  0  0  0  0  0  0  0  0
   -9.6088   -0.6984   19.1074 C   0  0  0  0  0  0  0  0  0  0  0  0
  3  7  1  0
  7  8  1  0
  8  9  1  0
  7 10  2  0
  2 16  1  0
 13 17  1  0
 17 18  2  0
 18 19  1  0
 19 20  2  0
 20 21  1  0
 21 22  2  0
 22 17  1  0
  1  2  2  0
  2  5  1  0
  5  6  2  0
  6  4  1  0
  4  3  2  0
  3  1  1  0
  9 11  2  0
 11 12  1  0
 12 13  2  0
 13 14  1  0
 14 15  2  0
 15  9  1  0
M  END
$$$$
