No_5276-complexes_sdf/6BKW-FPZ/2024-09-17-14-21-01/
     RDKit          3D

 17 18  0  0  0  0  0  0  0  0999 V2000
   -7.7129    4.2099   27.0854 C   0  0  0  0  0  0  0  0  0  0  0  0
   -8.2112    3.0637   26.9225 C   0  0  0  0  0  0  0  0  0  0  0  0
   -9.4446    2.8304   26.1868 C   0  0  0  0  0  0  0  0  0  0  0  0
   -8.4697    5.3956   26.7238 C   0  0  0  0  0  0  0  0  0  0  0  0
   -9.6172    5.2111   25.9513 C   0  0  0  0  0  0  0  0  0  0  0  0
  -10.0424    3.9782   25.6873 C   0  0  0  0  0  0  0  0  0  0  0  0
   -7.5056    1.8167   27.4088 C   0  0  0  0  0  0  0  0  0  0  0  0
   -8.0829    0.6212   27.3227 N   0  0  0  0  0  0  0  0  0  0  0  0
   -9.3001    0.4007   27.3997 C   0  0  0  0  0  0  0  0  0  0  0  0
   -9.9097   -0.8604   27.5398 C   0  0  0  0  0  0  0  0  0  0  0  0
   -6.2736    1.9739   27.7655 O   0  0  0  0  0  0  0  0  0  0  0  0
  -11.2700   -1.0788   27.8347 C   0  0  0  0  0  0  0  0  0  0  0  0
  -12.0637    0.1084   27.8785 C   0  0  0  0  0  0  0  0  0  0  0  0
  -11.5796    1.3553   27.7956 C   0  0  0  0  0  0  0  0  0  0  0  0
  -10.2100    1.5641   27.6589 C   0  0  0  0  0  0  0  0  0  0  0  0
  -10.0373    1.7874   26.2730 F   0  0  0  0  0  0  0  0  0  0  0  0
   -9.7601    2.2799   28.8830 C   0  0  0  0  0  0  0  0  0  0  0  0
  2  7  1  0
  7  8  1  0
  8  9  1  0
  7 11  2  0
  3 16  1  0
 15 17  1  0
  9 10  2  0
 10 12  1  0
 12 13  2  0
 13 14  1  0
 14 15  2  0
 15  9  1  0
  1  2  2  0
  2  3  1  0
  3  6  2  0
  6  5  1  0
  5  4  2  0
  4  1  1  0
M  END
$$$$
