No_5035-complexes_sdf/6BKW-FPZ/2024-09-17-14-21-01/
     RDKit          3D

 27 30  0  0  0  0  0  0  0  0999 V2000
   -7.9040    3.9820   27.1177 C   0  0  0  0  0  0  0  0  0  0  0  0
   -7.8663    4.8694   27.9238 C   0  0  0  0  0  0  0  0  0  0  0  0
   -7.4698    2.6989   27.4277 C   0  0  0  0  0  0  0  0  0  0  0  0
   -7.9683    1.5964   26.8266 C   0  0  2  0  0  0  0  0  0  0  0  0
   -7.5289    0.3101   27.1202 C   0  0  0  0  0  0  0  0  0  0  0  0
   -8.3245   -0.7895   26.7699 C   0  0  0  0  0  0  0  0  0  0  0  0
   -8.0971    6.2036   27.7731 C   0  0  0  0  0  0  0  0  0  0  0  0
   -8.7920    6.6652   26.5491 C   0  0  0  0  0  0  0  0  0  0  0  0
   -8.0426   -2.0470   27.2045 C   0  0  0  0  0  0  0  0  0  0  0  0
   -8.6309    4.2636   25.9046 C   0  0  0  0  0  0  0  0  0  0  0  0
   -9.0613    5.5969   25.6983 C   0  0  0  0  0  0  0  0  0  0  0  0
   -6.8456   -2.2394   27.9446 C   0  0  0  0  0  0  0  0  0  0  0  0
   -6.0066   -1.2040   28.2393 C   0  0  0  0  0  0  0  0  0  0  0  0
   -6.3482    0.0905   27.9189 C   0  0  0  0  0  0  0  0  0  0  0  0
   -8.8115    1.6875   25.8732 F   0  0  0  0  0  0  0  0  0  0  0  0
   -4.7185   -1.1706   29.0074 C   0  0  0  0  0  0  0  0  0  0  0  0
   -3.9675   -0.3112   29.0927 N   0  0  0  0  0  0  0  0  0  0  0  0
   -4.4121   -2.3139   29.7408 N   0  0  0  0  0  0  0  0  0  0  0  0
   -2.8417   -0.4952   29.9434 C   0  0  0  0  0  0  0  0  0  0  0  0
   -3.3810   -2.4140   30.5165 C   0  0  0  0  0  0  0  0  0  0  0  0
   -2.5115   -1.4172   30.6528 N   0  0  0  0  0  0  0  0  0  0  0  0
   -3.1186   -3.6581   31.3097 C   0  0  0  0  0  0  0  0  0  0  0  0
   -3.7514   -3.7672   32.4855 C   0  0  0  0  0  0  0  0  0  0  0  0
   -3.6632   -4.9400   33.1613 C   0  0  0  0  0  0  0  0  0  0  0  0
   -2.2826   -4.5489   30.8026 C   0  0  0  0  0  0  0  0  0  0  0  0
   -2.1084   -5.7605   31.5342 C   0  0  0  0  0  0  0  0  0  0  0  0
   -2.8055   -5.9261   32.7254 C   0  0  0  0  0  0  0  0  0  0  0  0
  1  3  1  0
  3  4  1  0
  4  5  1  0
  4 15  1  6
 13 16  1  0
 20 22  1  0
  5  6  2  0
  6  9  1  0
  9 12  2  0
 12 13  1  0
 13 14  2  0
 14  5  1  0
 22 23  2  0
 23 24  1  0
 24 27  2  0
 27 26  1  0
 26 25  2  0
 25 22  1  0
 16 17  2  0
 17 19  1  0
 19 21  2  0
 21 20  1  0
 20 18  2  0
 18 16  1  0
  1  2  2  0
  2  7  1  0
  7  8  2  0
  8 11  1  0
 11 10  2  0
 10  1  1  0
M  END
$$$$
