No_5872-complexes_sdf/6BKW-FPZ/2024-09-17-14-21-01/
     RDKit          3D

 19 21  0  0  0  0  0  0  0  0999 V2000
   -7.9040    3.9820   27.1177 C   0  0  0  0  0  0  0  0  0  0  0  0
   -9.0711    4.3164   27.0630 C   0  0  0  0  0  0  0  0  0  0  0  0
   -9.9692    3.7224   26.1073 C   0  0  0  0  0  0  0  0  0  0  0  0
   -6.9787    4.6761   28.1003 C   0  0  0  0  0  0  0  0  0  0  0  0
   -9.4538    2.6801   25.3673 C   0  0  0  0  0  0  0  0  0  0  0  0
   -8.1927    2.1957   25.6621 C   0  0  0  0  0  0  0  0  0  0  0  0
   -7.4333    2.8255   26.6299 C   0  0  0  0  0  0  0  0  0  0  0  0
  -10.3066    1.9975   24.3777 C   0  0  0  0  0  0  0  0  0  0  0  0
  -10.6559    2.6408   23.2832 C   0  0  0  0  0  0  0  0  0  0  0  0
  -11.1635    2.0505   22.1367 C   0  0  0  0  0  0  0  0  0  0  0  0
  -11.3204    0.6234   22.1943 C   0  0  0  0  0  0  0  0  0  0  0  0
  -10.3061    0.6025   24.2445 C   0  0  0  0  0  0  0  0  0  0  0  0
  -10.8416   -0.0559   23.2025 C   0  0  0  0  0  0  0  0  0  0  0  0
   -7.4158    5.6903   28.7184 F   0  0  0  0  0  0  0  0  0  0  0  0
   -6.3976    3.9023   28.7259 F   0  0  0  0  0  0  0  0  0  0  0  0
  -10.5492    4.1855   23.1674 C   0  0  0  0  0  0  0  0  0  0  0  0
  -10.4799    4.9216   24.2217 N   0  0  0  0  0  0  0  0  0  0  0  0
   -9.9837    4.8062   25.4247 C   0  0  0  0  0  0  0  0  0  0  0  0
   -9.4546    6.1739   25.7113 O   0  0  0  0  0  0  0  0  0  0  0  0
  1  4  1  0
  5  8  1  0
  4 14  1  0
  4 15  1  0
  9 16  1  0
 16 17  2  0
  3 18  1  0
 17 18  1  0
 18 19  2  0
  8  9  2  0
  9 10  1  0
 10 11  2  0
 11 13  1  0
 13 12  2  0
 12  8  1  0
  1  2  2  0
  2  3  1  0
  3  5  2  0
  5  6  1  0
  6  7  2  0
  7  1  1  0
M  END
$$$$
