No_5730-complexes_sdf/6BKW-FPZ/2024-09-17-14-21-01/
     RDKit          3D

 21 23  0  0  0  0  0  0  0  0999 V2000
   -7.9040    3.9820   27.1177 C   0  0  0  0  0  0  0  0  0  0  0  0
   -8.2057    2.8231   26.8733 C   0  0  0  0  0  0  0  0  0  0  0  0
   -7.0130    4.3706   28.1140 C   0  0  0  0  0  0  0  0  0  0  0  0
   -9.3829    2.4374   26.1668 C   0  0  0  0  0  0  0  0  0  0  0  0
  -10.0975    3.4171   25.5988 C   0  0  0  0  0  0  0  0  0  0  0  0
   -9.7335    4.7745   25.7705 C   0  0  0  0  0  0  0  0  0  0  0  0
   -8.7317    5.1107   26.5933 C   0  0  0  0  0  0  0  0  0  0  0  0
   -8.3983    6.4679   26.8933 C   0  0  0  0  0  0  0  0  0  0  0  0
   -7.3346    6.7850   27.7126 C   0  0  0  0  0  0  0  0  0  0  0  0
   -6.7763    5.7820   28.3880 C   0  0  0  0  0  0  0  0  0  0  0  0
   -7.5271    1.7900   27.4553 F   0  0  0  0  0  0  0  0  0  0  0  0
  -11.2202    3.1057   24.6799 C   0  0  1  0  0  0  0  0  0  0  0  0
  -10.9421    2.6909   23.5222 C   0  0  0  0  0  0  0  0  0  0  0  0
  -10.4325    1.6343   23.1843 C   0  0  0  0  0  0  0  0  0  0  0  0
  -10.0363    1.1857   21.8322 C   0  0  0  0  0  0  0  0  0  0  0  0
  -10.3420    2.0561   20.8148 C   0  0  0  0  0  0  0  0  0  0  0  0
  -10.8945    3.2840   21.0635 C   0  0  0  0  0  0  0  0  0  0  0  0
  -11.1900    3.6703   22.3523 C   0  0  0  0  0  0  0  0  0  0  0  0
  -12.5374    3.2202   25.2205 C   0  0  0  0  0  0  0  0  0  0  0  0
  -13.4719    3.7567   24.5027 C   0  0  0  0  0  0  0  0  0  0  0  0
  -14.8096    3.9097   24.9828 C   0  0  0  0  0  0  0  0  0  0  0  0
  2 11  1  0
 12  5  1  1
 12 13  1  0
 12 19  1  0
 19 20  2  3
 20 21  1  0
 13 14  2  0
 14 15  1  0
 15 16  2  0
 16 17  1  0
 17 18  2  0
 18 13  1  0
  1  3  1  0
  3 10  2  0
 10  9  1  0
  9  8  2  0
  8  7  1  0
  1  2  2  0
  2  4  1  0
  4  5  2  0
  5  6  1  0
  6  7  2  0
  7  1  1  0
M  END
$$$$
