No_5056-complexes_sdf/6BKW-FPZ/2024-09-17-14-21-01/
     RDKit          3D

 23 25  0  0  0  0  0  0  0  0999 V2000
   -7.2496    3.8871   27.4508 C   0  0  0  0  0  0  0  0  0  0  0  0
   -7.9379    4.9063   27.8518 C   0  0  0  0  0  0  0  0  0  0  0  0
   -9.3460    4.8223   27.8695 C   0  0  0  0  0  0  0  0  0  0  0  0
   -7.8628    2.6163   27.1065 C   0  0  0  0  0  0  0  0  0  0  0  0
   -9.2787    2.5744   27.1970 C   0  0  0  0  0  0  0  0  0  0  0  0
  -10.0108    3.6770   27.6340 C   0  0  0  0  0  0  0  0  0  0  0  0
  -11.4834    3.5674   27.7432 C   0  0  0  0  0  0  0  0  0  0  0  0
  -12.3295    3.8838   27.2730 C   0  0  0  0  0  0  0  0  0  0  0  0
  -13.6530    3.9000   27.3565 C   0  0  0  0  0  0  0  0  0  0  0  0
  -14.1068    3.2372   28.5143 C   0  0  0  0  0  0  0  0  0  0  0  0
  -13.2042    2.6864   29.3508 C   0  0  0  0  0  0  0  0  0  0  0  0
  -11.8124    2.8411   29.0601 C   0  0  0  0  0  0  0  0  0  0  0  0
   -7.1107    1.4690   26.7671 C   0  0  0  0  0  0  0  0  0  0  0  0
   -7.3565    0.4672   27.3115 O   0  0  0  0  0  0  0  0  0  0  0  0
   -5.8038    1.6498   26.7206 O   0  0  0  0  0  0  0  0  0  0  0  0
   -7.3223    6.1198   28.1323 N   0  0  0  0  0  0  0  0  0  0  0  0
   -4.9117    0.7832   27.4672 C   0  0  0  0  0  0  0  0  0  0  0  0
   -4.1029   -0.0577   26.9095 C   0  0  0  0  0  0  0  0  0  0  0  0
   -2.8383   -0.0605   27.2712 C   0  0  0  0  0  0  0  0  0  0  0  0
   -2.5062    0.1305   28.7515 C   0  0  0  0  0  0  0  0  0  0  0  0
   -3.5520    0.8412   29.4686 C   0  0  0  0  0  0  0  0  0  0  0  0
   -4.5940    1.2084   28.8581 C   0  0  0  0  0  0  0  0  0  0  0  0
  -15.4604    3.1347   28.7287 F   0  0  0  0  0  0  0  0  0  0  0  0
  6  7  1  0
  4 13  1  0
 13 14  2  0
 13 15  1  0
  2 16  1  0
 15 17  1  0
 10 23  1  0
 17 18  2  0
 18 19  1  0
 19 20  2  0
 20 21  1  0
 21 22  2  0
 22 17  1  0
  1  2  2  0
  2  3  1  0
  3  6  2  0
  6  5  1  0
  5  4  2  0
  4  1  1  0
  7  8  2  0
  8  9  1  0
  9 10  2  0
 10 11  1  0
 11 12  2  0
 12  7  1  0
M  END
$$$$
