No_5326-complexes_sdf/6BKW-FPZ/2024-09-17-14-21-01/
     RDKit          3D

 21 23  0  0  0  0  0  0  0  0999 V2000
   -7.9040    3.9820   27.1177 C   0  0  0  0  0  0  0  0  0  0  0  0
   -9.0711    4.3164   27.0630 C   0  0  0  0  0  0  0  0  0  0  0  0
   -9.5182    5.5541   27.5777 C   0  0  0  0  0  0  0  0  0  0  0  0
   -7.4468    2.6843   26.6499 C   0  0  0  0  0  0  0  0  0  0  0  0
   -8.3856    1.7878   26.2216 C   0  0  0  0  0  0  0  0  0  0  0  0
   -9.6812    2.2328   26.0889 C   0  0  0  0  0  0  0  0  0  0  0  0
  -10.0147    3.4312   26.5259 C   0  0  0  0  0  0  0  0  0  0  0  0
   -7.9132    0.4733   25.8127 C   0  0  0  0  0  0  0  0  0  0  0  0
   -7.2603   -0.3570   26.7388 C   0  0  0  0  0  0  0  0  0  0  0  0
   -7.0994    0.1645   28.1085 C   0  0  0  0  0  0  0  0  0  0  0  0
   -5.9252   -0.2667   28.7529 C   0  0  0  0  0  0  0  0  0  0  0  0
   -5.4171    0.3752   29.9037 C   0  0  0  0  0  0  0  0  0  0  0  0
   -5.0904   -1.2800   28.1186 C   0  0  0  0  0  0  0  0  0  0  0  0
   -5.3626   -1.7294   26.8607 C   0  0  0  0  0  0  0  0  0  0  0  0
   -6.3979   -1.2322   26.1449 C   0  0  0  0  0  0  0  0  0  0  0  0
   -4.0235    0.0092   30.3391 C   0  0  0  0  0  0  0  0  0  0  0  0
   -3.2158   -0.9460   29.6699 C   0  0  0  0  0  0  0  0  0  0  0  0
   -3.7397   -1.4873   28.5357 C   0  0  0  0  0  0  0  0  0  0  0  0
  -10.7139    5.6864   28.1272 F   0  0  0  0  0  0  0  0  0  0  0  0
   -8.7384    6.0632   28.6700 F   0  0  0  0  0  0  0  0  0  0  0  0
   -9.2575    6.5926   26.6676 F   0  0  0  0  0  0  0  0  0  0  0  0
  2  3  1  0
  5  8  1  0
  3 19  1  0
  3 20  1  0
  3 21  1  0
  8  9  1  0
 11 12  2  0
 12 16  1  0
 16 17  2  0
 17 18  1  0
 18 13  2  0
  1  2  2  0
  2  7  1  0
  7  6  2  0
  6  5  1  0
  5  4  2  0
  4  1  1  0
  9 10  2  0
 10 11  1  0
 11 13  1  0
 13 14  1  0
 14 15  2  0
 15  9  1  0
M  END
$$$$
