No_5551-complexes_sdf/6BKW-FPZ/2024-09-17-14-21-01/
     RDKit          3D

 17 18  0  0  0  0  0  0  0  0999 V2000
   -7.7129    4.2099   27.0854 C   0  0  0  0  0  0  0  0  0  0  0  0
   -8.9134    4.4736   27.0998 C   0  0  0  0  0  0  0  0  0  0  0  0
   -9.4643    5.5426   27.7628 C   0  0  0  0  0  0  0  0  0  0  0  0
   -6.8373    4.9942   27.9785 C   0  0  0  0  0  0  0  0  0  0  0  0
   -7.3717    6.0428   28.6744 C   0  0  0  0  0  0  0  0  0  0  0  0
   -8.6869    6.3937   28.5345 C   0  0  0  0  0  0  0  0  0  0  0  0
   -9.8077    3.6185   26.2213 C   0  0  0  0  0  0  0  0  0  0  0  0
   -9.9211    2.3431   26.3757 C   0  0  0  0  0  0  0  0  0  0  0  0
   -9.5330    1.7263   27.4233 C   0  0  0  0  0  0  0  0  0  0  0  0
   -9.5975    0.2799   27.7094 C   0  0  0  0  0  0  0  0  0  0  0  0
  -10.3958    4.3570   25.0910 C   0  0  0  0  0  0  0  0  0  0  0  0
  -10.7930    3.7618   23.8790 C   0  0  0  0  0  0  0  0  0  0  0  0
  -10.8204    2.2849   24.0644 C   0  0  0  0  0  0  0  0  0  0  0  0
  -10.3859    1.5835   25.2350 C   0  0  0  0  0  0  0  0  0  0  0  0
  -10.6558   -0.1350   28.0661 C   0  0  0  0  0  0  0  0  0  0  0  0
  -10.8241   -1.5537   28.4366 C   0  0  0  0  0  0  0  0  0  0  0  0
   -9.6638   -2.3052   28.4049 C   0  0  0  0  0  0  0  0  0  0  0  0
  2  7  1  0
  9 10  1  0
 10 15  1  0
 15 16  2  3
 16 17  1  0
  9  8  1  0
  1  2  2  0
  2  3  1  0
  3  6  2  0
  6  5  1  0
  5  4  2  0
  4  1  1  0
  7  8  2  0
  8 14  1  0
 14 13  2  0
 13 12  1  0
 12 11  2  0
 11  7  1  0
M  END
$$$$
