No_5763-complexes_sdf/6BKW-FPZ/2024-09-17-14-21-01/
     RDKit          3D

 18 19  0  0  0  0  0  0  0  0999 V2000
   -7.7129    4.2099   27.0854 C   0  0  0  0  0  0  0  0  0  0  0  0
   -7.7814    5.1722   27.8972 C   0  0  0  0  0  0  0  0  0  0  0  0
   -8.8998    3.8713   26.3707 C   0  0  0  0  0  0  0  0  0  0  0  0
   -9.8197    4.2636   26.6487 C   0  0  0  0  0  0  0  0  0  0  0  0
  -10.0564    5.4056   27.4736 C   0  0  0  0  0  0  0  0  0  0  0  0
   -8.9370    5.9018   28.1282 C   0  0  0  0  0  0  0  0  0  0  0  0
   -8.6887    2.5919   25.4850 C   0  0  0  0  0  0  0  0  0  0  0  0
   -9.6127    2.3691   24.5800 N   0  0  0  0  0  0  0  0  0  0  0  0
  -10.3222    3.3053   24.0219 C   0  0  0  0  0  0  0  0  0  0  0  0
  -10.1520    1.0934   24.3627 C   0  0  0  0  0  0  0  0  0  0  0  0
  -10.7488    3.3054   22.9880 C   0  0  1  0  0  0  0  0  0  0  0  0
  -10.7593    0.9253   23.1127 C   0  0  0  0  0  0  0  0  0  0  0  0
  -11.1490    2.0395   22.4065 C   0  0  0  0  0  0  0  0  0  0  0  0
  -11.3205    4.4974   22.1377 C   0  0  0  0  0  0  0  0  0  0  0  0
   -7.8512    1.6915   25.8200 O   0  0  0  0  0  0  0  0  0  0  0  0
   -6.6726    5.6012   28.6326 O   0  0  0  0  0  0  0  0  0  0  0  0
  -11.2731    5.6332   22.9644 C   0  0  0  0  0  0  0  0  0  0  0  0
  -11.7405    4.4189   20.9247 C   0  0  0  0  0  0  0  0  0  0  0  0
  3  7  1  0
  7  8  1  0
  8  9  1  0
  8 10  1  0
 11 13  1  0
 12 13  1  0
 11 14  1  1
  7 15  2  0
  2 16  1  0
 14 17  1  0
 14 18  1  0
  9 11  1  0
 12 10  1  0
  1  2  2  0
  2  6  1  0
  6  5  2  0
  5  4  1  0
  4  3  2  0
  3  1  1  0
M  END
$$$$
