No_5829-complexes_sdf/6BKW-FPZ/2024-09-17-14-21-01/
     RDKit          3D

 40 46  0  0  0  0  0  0  0  0999 V2000
   -7.2496    3.8871   27.4508 C   0  0  0  0  0  0  0  0  0  0  0  0
   -7.6161    2.7143   27.1523 C   0  0  0  0  0  0  0  0  0  0  0  0
   -8.8827    2.2318   27.1220 C   0  0  0  0  0  0  0  0  0  0  0  0
   -8.2837    4.9116   27.6108 C   0  0  0  0  0  0  0  0  0  0  0  0
   -9.6088    4.5175   27.5560 C   0  0  0  0  0  0  0  0  0  0  0  0
  -10.6384    5.5154   27.8063 C   0  0  0  0  0  0  0  0  0  0  0  0
   -9.9864    3.1894   27.3795 C   0  0  0  0  0  0  0  0  0  0  0  0
   -9.0578    0.7715   26.9009 C   0  0  0  0  0  0  0  0  0  0  0  0
  -10.1730    0.2422   27.1752 C   0  0  0  0  0  0  0  0  0  0  0  0
  -10.3870   -1.1847   27.0418 C   0  0  0  0  0  0  0  0  0  0  0  0
  -11.5667   -1.7877   27.4776 C   0  0  0  0  0  0  0  0  0  0  0  0
  -12.5918   -0.9707   28.0576 C   0  0  0  0  0  0  0  0  0  0  0  0
  -12.4343    0.3651   28.2293 C   0  0  0  0  0  0  0  0  0  0  0  0
  -13.3968    1.1961   28.8448 C   0  0  1  0  0  0  0  0  0  0  0  0
  -11.2790    0.9633   27.9202 C   0  0  0  0  0  0  0  0  0  0  0  0
  -14.3617    0.8573   29.4831 N   0  0  0  0  0  0  0  0  0  0  0  0
  -13.1889    2.6997   28.7765 C   0  0  1  0  0  0  0  0  0  0  0  0
  -15.1424    1.4718   30.1201 C   0  0  0  0  0  0  0  0  0  0  0  0
  -14.0363    3.5319   29.5179 C   0  0  0  0  0  0  0  0  0  0  0  0
  -15.0801    2.9430   30.2330 C   0  0  0  0  0  0  0  0  0  0  0  0
  -11.0531    2.4554   27.9958 C   0  0  0  0  0  0  0  0  0  0  0  0
  -11.9697    3.2045   28.2851 C   0  0  0  0  0  0  0  0  0  0  0  0
  -11.9633    4.7939   28.1594 C   0  0  0  0  0  0  0  0  0  0  0  0
   -7.8492    6.3268   27.7500 C   0  0  0  0  0  0  0  0  0  0  0  0
  -16.0357    3.7544   31.0003 C   0  0  0  0  0  0  0  0  0  0  0  0
  -15.6888    4.0598   32.2515 C   0  0  0  0  0  0  0  0  0  0  0  0
  -16.3947    4.9930   32.9364 C   0  0  0  0  0  0  0  0  0  0  0  0
  -16.0560    5.4564   34.3204 C   0  0  0  0  0  0  0  0  0  0  0  0
  -14.8325    5.0086   34.8683 C   0  0  0  0  0  0  0  0  0  0  0  0
  -14.0487    4.0850   34.1274 C   0  0  0  0  0  0  0  0  0  0  0  0
  -14.4350    3.7076   32.8368 C   0  0  0  0  0  0  0  0  0  0  0  0
  -16.2576    1.0781   30.7714 O   0  0  0  0  0  0  0  0  0  0  0  0
  -12.7553    3.6674   34.7506 C   0  0  1  0  0  0  0  0  0  0  0  0
  -12.4975    2.3506   34.8829 C   0  0  0  0  0  0  0  0  0  0  0  0
  -11.7993    4.7231   35.0319 C   0  0  0  0  0  0  0  0  0  0  0  0
  -11.0651    4.7452   36.0363 C   0  0  0  0  0  0  0  0  0  0  0  0
  -11.3160    4.8076   37.3413 C   0  0  0  0  0  0  0  0  0  0  0  0
  -12.5448    5.2255   37.8166 C   0  0  0  0  0  0  0  0  0  0  0  0
  -12.7746    5.4514   39.2173 C   0  0  0  0  0  0  0  0  0  0  0  0
  -13.9008    6.0336   39.6602 C   0  0  0  0  0  0  0  0  0  0  0  0
  5  6  1  0
 13 14  1  0
 14 17  1  0
 16 18  1  0
 18 20  1  0
 19 20  1  0
 17 22  1  0
 21 22  1  0
  6 23  1  0
 22 23  1  0
  4 24  1  0
 20 25  1  0
 25 26  1  0
 18 32  2  0
 30 33  1  0
 33 34  1  6
 33 35  1  0
 35 36  2  3
 36 37  1  0
 37 38  2  3
 38 39  1  0
 39 40  2  0
 14 16  1  1
 17 19  1  1
  9 10  2  0
 10 11  1  0
 11 12  2  0
 12 13  1  0
 13 15  2  0
  7 21  2  0
 21 15  1  0
 15  9  1  0
  9  8  1  0
  8  3  2  0
  1  2  2  0
  2  3  1  0
  3  7  1  0
  7  5  1  0
  5  4  2  0
  4  1  1  0
 26 27  2  0
 27 28  1  0
 28 29  2  0
 29 30  1  0
 30 31  2  0
 31 26  1  0
M  END
$$$$
