No_5197-complexes_sdf/6BKW-FPZ/2024-09-17-14-21-01/
     RDKit          3D

  9  9  0  0  0  0  0  0  0  0999 V2000
   -7.7129    4.2099   27.0854 C   0  0  0  0  0  0  0  0  0  0  0  0
   -8.9133    4.4736   27.0998 C   0  0  0  0  0  0  0  0  0  0  0  0
   -9.8363    3.8127   27.2418 C   0  0  0  0  0  0  0  0  0  0  0  0
   -7.2995    2.8520   27.3808 C   0  0  0  0  0  0  0  0  0  0  0  0
   -8.3404    1.9507   27.4989 C   0  0  0  0  0  0  0  0  0  0  0  0
  -11.2701    4.1623   27.2136 C   0  0  0  0  0  0  0  0  0  0  0  0
   -9.6402    2.4062   27.4900 C   0  0  0  0  0  0  0  0  0  0  0  0
  -12.1648    4.2280   26.7153 C   0  0  0  0  0  0  0  0  0  0  0  0
  -13.4395    4.7078   27.1622 C   0  0  0  0  0  0  0  0  0  0  0  0
  3  6  1  0
  6  8  3  0
  8  9  1  0
  1  2  2  0
  2  3  1  0
  3  7  2  0
  7  5  1  0
  5  4  2  0
  4  1  1  0
M  END
$$$$
