No_5039-complexes_sdf/6BKW-FPZ/2024-09-17-14-21-01/
     RDKit          3D

 19 21  0  0  0  0  0  0  0  0999 V2000
   -7.2496    3.8871   27.4508 C   0  0  0  0  0  0  0  0  0  0  0  0
   -7.6161    2.7143   27.1523 C   0  0  0  0  0  0  0  0  0  0  0  0
   -8.6212    2.2239   26.4073 C   0  0  0  0  0  0  0  0  0  0  0  0
   -8.2540    4.9237   27.1711 C   0  0  0  0  0  0  0  0  0  0  0  0
   -9.3729    4.5806   26.4433 C   0  0  0  0  0  0  0  0  0  0  0  0
   -8.9159    0.9340   26.0822 C   0  0  0  0  0  0  0  0  0  0  0  0
   -9.6005    3.2666   26.0852 C   0  0  0  0  0  0  0  0  0  0  0  0
   -7.9109    6.3338   27.5235 C   0  0  0  0  0  0  0  0  0  0  0  0
   -9.2458    0.5132   25.1029 N   0  0  0  0  0  0  0  0  0  0  0  0
   -9.5177    1.4275   24.1110 C   0  0  0  0  0  0  0  0  0  0  0  0
  -10.0363    2.7234   24.5223 C   0  0  0  0  0  0  0  0  0  0  0  0
   -8.8310    7.3645   27.0263 C   0  0  0  0  0  0  0  0  0  0  0  0
  -10.5889    3.7622   23.7012 C   0  0  0  0  0  0  0  0  0  0  0  0
  -10.7475    3.5910   22.3694 C   0  0  0  0  0  0  0  0  0  0  0  0
  -11.3452    4.6135   21.5710 C   0  0  0  0  0  0  0  0  0  0  0  0
  -11.8754    5.7079   22.3293 C   0  0  0  0  0  0  0  0  0  0  0  0
  -11.8421    5.6534   23.7251 C   0  0  0  0  0  0  0  0  0  0  0  0
  -11.2155    4.7031   24.4340 C   0  0  0  0  0  0  0  0  0  0  0  0
   -6.4086    1.4662   27.7696 Cl  0  0  0  0  0  0  0  0  0  0  0  0
  4  8  1  0
  8 12  2  0
 11 13  1  0
  2 19  1  0
 13 14  2  0
 14 15  1  0
 15 16  2  0
 16 17  1  0
 17 18  2  0
 18 13  1  0
  1  2  2  0
  2  3  1  0
  7  5  1  0
  5  4  2  0
  4  1  1  0
  3  6  2  0
  6  9  1  0
  9 10  2  0
 10 11  1  0
 11  7  2  0
  7  3  1  0
M  END
$$$$
