No_5242-complexes_sdf/6BKW-FPZ/2024-09-17-14-21-01/
     RDKit          3D

 40 44  0  0  0  0  0  0  0  0999 V2000
   -7.9040    3.9820   27.1177 C   0  0  0  0  0  0  0  0  0  0  0  0
   -8.2057    2.8231   26.8733 C   0  0  0  0  0  0  0  0  0  0  0  0
   -8.7695    5.0740   26.7916 C   0  0  0  0  0  0  0  0  0  0  0  0
   -9.9618    4.7598   26.1630 C   0  0  0  0  0  0  0  0  0  0  0  0
   -9.4200    2.4524   26.2849 C   0  0  0  0  0  0  0  0  0  0  0  0
  -10.2590    3.4815   25.9250 C   0  0  0  0  0  0  0  0  0  0  0  0
   -8.3840    6.4693   27.0829 C   0  0  0  0  0  0  0  0  0  0  0  0
   -7.9676    7.4862   26.9931 N   0  0  0  0  0  0  0  0  0  0  0  0
   -7.2799    1.6688   27.3023 C   0  0  0  0  0  0  0  0  0  0  0  0
   -7.6065    0.3908   27.2179 N   0  0  0  0  0  0  0  0  0  0  0  0
   -6.0237    1.9302   27.7330 N   0  0  0  0  0  0  0  0  0  0  0  0
   -6.4943   -0.2246   27.7190 C   0  0  0  0  0  0  0  0  0  0  0  0
   -5.5314    0.6908   28.0042 C   0  0  0  0  0  0  0  0  0  0  0  0
   -4.1522    0.5279   28.5596 C   0  0  0  0  0  0  0  0  0  0  0  0
   -3.1013    0.5815   27.9058 C   0  0  0  0  0  0  0  0  0  0  0  0
   -4.1014    0.2690   30.0410 C   0  0  0  0  0  0  0  0  0  0  0  0
   -2.9287   -0.1128   30.6271 C   0  0  0  0  0  0  0  0  0  0  0  0
   -2.6578   -1.3485   30.4616 C   0  0  1  0  0  0  0  0  0  0  0  0
   -1.7060   -1.6634   29.3934 C   0  0  2  0  0  0  0  0  0  0  0  0
   -2.2707   -1.0010   28.0455 C   0  0  0  0  0  0  0  0  0  0  0  0
   -2.1183   -1.6870   26.8205 C   0  0  0  0  0  0  0  0  0  0  0  0
   -2.8139   -2.8500   26.7330 C   0  0  1  0  0  0  0  0  0  0  0  0
   -4.1790   -2.6026   26.5125 C   0  0  0  0  0  0  0  0  0  0  0  0
   -4.6733   -1.9546   25.4859 C   0  0  0  0  0  0  0  0  0  0  0  0
   -5.5983   -2.5197   24.6301 C   0  0  0  0  0  0  0  0  0  0  0  0
   -5.6454   -3.6311   24.3858 C   0  0  0  0  0  0  0  0  0  0  0  0
   -6.6949   -4.2650   23.4778 C   0  0  0  0  0  0  0  0  0  0  0  0
   -7.5062   -3.3920   22.8047 C   0  0  0  0  0  0  0  0  0  0  0  0
   -7.3849   -1.9875   22.9585 C   0  0  0  0  0  0  0  0  0  0  0  0
   -6.4429   -1.4826   23.8715 C   0  0  0  0  0  0  0  0  0  0  0  0
   -2.2184   -4.1104   26.7403 C   0  0  0  0  0  0  0  0  0  0  0  0
   -1.1228   -4.3164   26.2117 N   0  0  0  0  0  0  0  0  0  0  0  0
   -2.9892   -5.1424   26.9597 O   0  0  0  0  0  0  0  0  0  0  0  0
   -2.9267   -2.4830   31.2864 C   0  0  0  0  0  0  0  0  0  0  0  0
   -2.3984   -3.5746   31.2179 C   0  0  0  0  0  0  0  0  0  0  0  0
   -1.4341   -3.7909   30.2598 C   0  0  0  0  0  0  0  0  0  0  0  0
   -1.5708   -3.0767   29.0849 C   0  0  2  0  0  0  0  0  0  0  0  0
   -0.2034   -3.3102   25.6600 C   0  0  0  0  0  0  0  0  0  0  0  0
   -0.3062   -0.9225   29.5532 C   0  0  0  0  0  0  0  0  0  0  0  0
    0.0368   -3.2971   28.6339 C   0  0  0  0  0  0  0  0  0  0  0  0
  3  7  1  0
  7  8  3  0
  2  9  1  0
  9 10  2  0
  9 11  1  0
 10 12  1  0
 11 13  1  0
 12 13  1  0
 13 14  1  0
 14 15  2  0
 14 16  1  0
 16 17  1  0
 18 17  1  1
 18 19  1  0
 15 20  1  0
 19 20  1  0
 20 21  1  0
 22 21  1  6
 22 23  1  0
 23 24  2  3
 24 25  1  0
 22 31  1  0
 31 32  1  0
 31 33  2  0
 18 34  1  0
 34 35  1  0
 19 37  1  0
 36 37  1  0
 32 38  1  0
 19 39  1  1
 37 40  1  6
 35 36  1  0
 25 26  2  0
 26 27  1  0
 27 28  2  0
 28 29  1  0
 29 30  2  0
 30 25  1  0
  1  2  2  0
  2  5  1  0
  5  6  2  0
  6  4  1  0
  4  3  2  0
  3  1  1  0
M  END
$$$$
