No_5725-complexes_sdf/6BKW-FPZ/2024-09-17-14-21-01/
     RDKit          3D

 20 22  0  0  0  0  0  0  0  0999 V2000
   -7.2496    3.8871   27.4508 C   0  0  0  0  0  0  0  0  0  0  0  0
   -7.9379    4.9063   27.8518 C   0  0  0  0  0  0  0  0  0  0  0  0
   -9.3376    4.8647   27.7795 C   0  0  0  0  0  0  0  0  0  0  0  0
   -7.8544    2.6294   27.0414 C   0  0  0  0  0  0  0  0  0  0  0  0
   -9.2665    2.6175   27.0340 C   0  0  0  0  0  0  0  0  0  0  0  0
   -9.9836    3.7042   27.4150 C   0  0  0  0  0  0  0  0  0  0  0  0
   -9.9053    1.3367   26.6546 C   0  0  0  0  0  0  0  0  0  0  0  0
  -10.8602    1.3508   25.9026 C   0  0  0  0  0  0  0  0  0  0  0  0
  -11.3322    2.2544   25.2929 C   0  0  0  0  0  0  0  0  0  0  0  0
  -12.3567    2.1413   24.3498 C   0  0  0  0  0  0  0  0  0  0  0  0
  -12.8925    0.9521   24.1248 C   0  0  0  0  0  0  0  0  0  0  0  0
  -11.4835    0.0531   25.5006 C   0  0  0  0  0  0  0  0  0  0  0  0
  -12.4822   -0.1113   24.7020 C   0  0  0  0  0  0  0  0  0  0  0  0
   -9.3988    0.1964   27.5586 C   0  0  0  0  0  0  0  0  0  0  0  0
   -7.3312    6.0659   28.1874 O   0  0  0  0  0  0  0  0  0  0  0  0
  -10.1952   -0.7636   27.9988 C   0  0  0  0  0  0  0  0  0  0  0  0
  -11.2388   -0.9467   26.9086 C   0  0  0  0  0  0  0  0  0  0  0  0
  -12.0765   -2.1815   26.8682 C   0  0  0  0  0  0  0  0  0  0  0  0
  -13.2758   -2.0078   27.2903 C   0  0  0  0  0  0  0  0  0  0  0  0
  -14.1153   -3.1734   27.3407 C   0  0  0  0  0  0  0  0  0  0  0  0
  5  7  1  0
  2 15  1  0
 17 18  1  0
 18 19  2  3
 19 20  1  0
  1  2  2  0
  2  3  1  0
  3  6  2  0
  6  5  1  0
  5  4  2  0
  4  1  1  0
  7  8  1  0
 12 17  1  0
 17 16  2  0
 16 14  1  0
 14  7  2  0
  8  9  2  0
  9 10  1  0
 10 11  2  0
 11 13  1  0
 13 12  2  0
 12  8  1  0
M  END
$$$$
