No_5306-complexes_sdf/6BKW-FPZ/2024-09-17-14-21-01/
     RDKit          3D

  7  7  0  0  0  0  0  0  0  0999 V2000
   -7.9040    3.9820   27.1177 C   0  0  0  0  0  0  0  0  0  0  0  0
   -8.2057    2.8231   26.8733 C   0  0  0  0  0  0  0  0  0  0  0  0
   -9.3234    2.2125   27.0599 C   0  0  0  0  0  0  0  0  0  0  0  0
   -6.6405    4.6569   27.3815 C   0  0  0  0  0  0  0  0  0  0  0  0
  -10.4627    2.9667   27.4287 C   0  0  0  0  0  0  0  0  0  0  0  0
  -10.2348    4.2970   27.8339 C   0  0  0  0  0  0  0  0  0  0  0  0
   -8.9801    4.8726   27.7820 C   0  0  0  0  0  0  0  0  0  0  0  0
  1  4  1  0
  1  2  2  0
  2  3  1  0
  3  5  2  0
  5  6  1  0
  6  7  2  0
  7  1  1  0
M  END
$$$$
