No_5023-complexes_sdf/6BKW-FPZ/2024-09-17-14-21-01/
     RDKit          3D

 36 39  0  0  0  0  0  0  0  0999 V2000
   -7.9040    3.9820   27.1177 C   0  0  0  0  0  0  0  0  0  0  0  0
   -7.8663    4.8694   27.9238 C   0  0  0  0  0  0  0  0  0  0  0  0
   -9.0491    3.8523   26.2542 C   0  0  0  0  0  0  0  0  0  0  0  0
   -8.7661    5.9491   27.9690 C   0  0  0  0  0  0  0  0  0  0  0  0
   -9.9295    4.8502   26.2323 C   0  0  0  0  0  0  0  0  0  0  0  0
   -9.8077    5.9288   27.0933 C   0  0  0  0  0  0  0  0  0  0  0  0
   -6.9996    2.9096   27.1565 O   0  0  0  0  0  0  0  0  0  0  0  0
   -7.3398    1.5998   26.9303 C   0  0  0  0  0  0  0  0  0  0  0  0
   -8.4690    1.2494   26.3568 C   0  0  0  0  0  0  0  0  0  0  0  0
   -9.3723    2.4824   25.7650 C   0  0  1  0  0  0  0  0  0  0  0  0
   -6.4067    0.6011   27.3932 C   0  0  0  0  0  0  0  0  0  0  0  0
   -5.1998    1.0317   27.8455 N   0  0  0  0  0  0  0  0  0  0  0  0
   -4.2320    0.2537   28.4897 C   0  0  0  0  0  0  0  0  0  0  0  0
   -4.7154   -0.3994   29.5749 C   0  0  0  0  0  0  0  0  0  0  0  0
   -4.2415   -1.5161   29.9223 C   0  0  0  0  0  0  0  0  0  0  0  0
   -4.8521   -2.2475   31.0388 C   0  0  0  0  0  0  0  0  0  0  0  0
   -5.9740   -1.6901   31.6876 C   0  0  0  0  0  0  0  0  0  0  0  0
   -6.4145   -0.4776   31.3109 C   0  0  0  0  0  0  0  0  0  0  0  0
   -5.7842    0.1908   30.2504 C   0  0  0  0  0  0  0  0  0  0  0  0
   -3.0611    0.2138   28.0479 O   0  0  0  0  0  0  0  0  0  0  0  0
   -6.5897   -0.5981   27.2392 O   0  0  0  0  0  0  0  0  0  0  0  0
  -10.7273    2.4060   25.6173 C   0  0  1  0  0  0  0  0  0  0  0  0
  -11.0252    2.4348   24.1874 C   0  0  0  0  0  0  0  0  0  0  0  0
  -12.1779    2.9873   23.8386 C   0  0  0  0  0  0  0  0  0  0  0  0
  -12.4501    3.3420   22.4666 C   0  0  0  0  0  0  0  0  0  0  0  0
  -11.4902    2.9988   21.4635 C   0  0  0  0  0  0  0  0  0  0  0  0
  -10.2750    2.4237   21.8831 C   0  0  0  0  0  0  0  0  0  0  0  0
  -10.0069    2.2187   23.2353 C   0  0  0  0  0  0  0  0  0  0  0  0
  -11.6858    1.8226   26.4090 C   0  0  0  0  0  0  0  0  0  0  0  0
  -11.9962    0.6804   26.5010 N   0  0  0  0  0  0  0  0  0  0  0  0
  -11.4208   -0.3023   26.1215 C   0  0  0  0  0  0  0  0  0  0  0  0
  -11.4834   -1.2707   25.6143 C   0  0  0  0  0  0  0  0  0  0  0  0
  -10.5439   -2.2777   25.1974 C   0  0  0  0  0  0  0  0  0  0  0  0
  -10.7277   -3.3217   24.3700 C   0  0  0  0  0  0  0  0  0  0  0  0
  -12.0280   -3.4921   23.8768 C   0  0  0  0  0  0  0  0  0  0  0  0
  -13.0217   -2.5770   24.1570 C   0  0  0  0  0  0  0  0  0  0  0  0
  1  7  1  0
  7  8  1  0
  8  9  2  0
  3 10  1  0
 10  9  1  1
  8 11  1  0
 11 12  1  0
 12 13  1  0
 13 14  1  0
 13 20  2  0
 11 21  2  0
 10 22  1  0
 22 23  1  0
 22 29  1  6
 29 30  1  0
 30 31  1  0
 31 32  2  3
 32 33  1  0
 33 34  1  0
 34 35  2  3
 35 36  1  0
 14 15  2  0
 15 16  1  0
 16 17  2  0
 17 18  1  0
 18 19  2  0
 19 14  1  0
 23 24  2  0
 24 25  1  0
 25 26  2  0
 26 27  1  0
 27 28  2  0
 28 23  1  0
  1  2  2  0
  2  4  1  0
  4  6  2  0
  6  5  1  0
  5  3  2  0
  3  1  1  0
M  END
$$$$
