No_507-complexes_sdf/6BKW-FPZ/2024-09-17-14-21-01/
     RDKit          3D

 21 23  0  0  0  0  0  0  0  0999 V2000
   -7.7129    4.2099   27.0854 C   0  0  0  0  0  0  0  0  0  0  0  0
   -7.7814    5.1722   27.8972 C   0  0  0  0  0  0  0  0  0  0  0  0
   -8.8776    3.8408   26.3416 C   0  0  0  0  0  0  0  0  0  0  0  0
   -9.9844    4.6492   26.4743 C   0  0  0  0  0  0  0  0  0  0  0  0
   -8.8033    6.1375   27.8728 C   0  0  0  0  0  0  0  0  0  0  0  0
   -9.9554    5.8280   27.1736 C   0  0  0  0  0  0  0  0  0  0  0  0
   -8.8651    2.7495   25.6146 F   0  0  0  0  0  0  0  0  0  0  0  0
  -11.0695    4.3570   25.6982 O   0  0  0  0  0  0  0  0  0  0  0  0
  -12.2126    3.9742   26.1585 C   0  0  0  0  0  0  0  0  0  0  0  0
  -12.4132    3.6743   27.4192 C   0  0  0  0  0  0  0  0  0  0  0  0
  -13.6466    3.3005   28.0017 C   0  0  0  0  0  0  0  0  0  0  0  0
  -14.7470    3.3629   27.1463 C   0  0  0  0  0  0  0  0  0  0  0  0
  -13.3355    4.0762   25.3269 C   0  0  0  0  0  0  0  0  0  0  0  0
  -14.5811    3.8073   25.8134 C   0  0  0  0  0  0  0  0  0  0  0  0
  -15.7640    3.8397   24.9132 C   0  0  0  0  0  0  0  0  0  0  0  0
  -15.6947    4.4054   23.9033 C   0  0  0  0  0  0  0  0  0  0  0  0
  -14.3312    4.8465   23.3181 C   0  0  0  0  0  0  0  0  0  0  0  0
  -13.2140    4.6998   24.0400 C   0  0  0  0  0  0  0  0  0  0  0  0
  -13.7831    2.9024   29.4209 C   0  0  0  0  0  0  0  0  0  0  0  0
  -13.1779    3.7067   30.2434 C   0  0  0  0  0  0  0  0  0  0  0  0
  -13.4762    1.4691   29.5983 C   0  0  0  0  0  0  0  0  0  0  0  0
  3  7  1  0
  4  8  1  0
  8  9  1  0
 11 19  1  0
 19 20  2  0
 19 21  1  0
 14 15  2  0
 15 16  1  0
 16 17  2  0
 17 18  1  0
 18 13  2  0
  1  2  2  0
  2  5  1  0
  5  6  2  0
  6  4  1  0
  4  3  2  0
  3  1  1  0
  9 10  2  0
 10 11  1  0
 11 12  2  0
 12 14  1  0
 14 13  1  0
 13  9  1  0
M  END
$$$$
