No_5664-complexes_sdf/6BKW-FPZ/2024-09-17-14-21-01/
     RDKit          3D

  9  9  0  0  0  0  0  0  0  0999 V2000
   -7.9040    3.9820   27.1177 C   0  0  0  0  0  0  0  0  0  0  0  0
   -7.8663    4.8694   27.9238 C   0  0  0  0  0  0  0  0  0  0  0  0
   -7.4698    2.6989   27.4277 C   0  0  0  0  0  0  0  0  0  0  0  0
   -7.9683    1.5964   26.8266 C   0  0  0  0  0  0  0  0  0  0  0  0
   -7.5288    0.3101   27.1202 C   0  0  0  0  0  0  0  0  0  0  0  0
   -6.3497    0.1847   27.8178 C   0  0  0  0  0  0  0  0  0  0  0  0
   -5.5906    1.2910   28.2274 C   0  0  0  0  0  0  0  0  0  0  0  0
   -6.0970    2.5759   27.9285 C   0  0  0  0  0  0  0  0  0  0  0  0
   -8.4420    6.2502   27.7420 C   0  0  0  0  0  0  0  0  0  0  0  0
  1  2  2  3
  1  3  1  0
  3  4  1  0
  4  5  1  0
  5  6  1  0
  6  7  1  0
  3  8  1  0
  7  8  1  0
  2  9  1  0
M  END
$$$$
