No_5846-complexes_sdf/6BKW-FPZ/2024-09-17-14-21-01/
     RDKit          3D

 33 36  0  0  0  0  0  0  0  0999 V2000
   -7.7129    4.2099   27.0854 C   0  0  0  0  0  0  0  0  0  0  0  0
   -7.7814    5.1722   27.8972 C   0  0  0  0  0  0  0  0  0  0  0  0
   -8.8776    3.8408   26.3416 C   0  0  0  0  0  0  0  0  0  0  0  0
   -9.9844    4.6492   26.4743 C   0  0  0  0  0  0  0  0  0  0  0  0
   -8.8033    6.1375   27.8728 C   0  0  0  0  0  0  0  0  0  0  0  0
   -9.9554    5.8280   27.1737 C   0  0  0  0  0  0  0  0  0  0  0  0
   -8.8704    2.7021   25.6054 N   0  0  0  0  0  0  0  0  0  0  0  0
   -8.3267    1.5520   26.1094 C   0  0  0  0  0  0  0  0  0  0  0  0
   -8.3033    0.4009   25.2886 C   0  0  0  0  0  0  0  0  0  0  0  0
   -9.5161    2.6185   24.3994 C   0  0  0  0  0  0  0  0  0  0  0  0
   -9.5883    1.5112   23.6522 C   0  0  2  0  0  0  0  0  0  0  0  0
   -8.9086    0.3979   24.1086 C   0  0  0  0  0  0  0  0  0  0  0  0
  -10.2010    1.5362   22.3261 C   0  0  0  0  0  0  0  0  0  0  0  0
  -10.4021    2.6335   21.7370 N   0  0  0  0  0  0  0  0  0  0  0  0
   -9.8333    3.5358   21.5490 C   0  0  0  0  0  0  0  0  0  0  0  0
  -11.8275    2.5674   21.0711 C   0  0  0  0  0  0  0  0  0  0  0  0
  -10.2665    0.4103   21.7065 O   0  0  0  0  0  0  0  0  0  0  0  0
   -6.6213    5.4729   28.6100 O   0  0  0  0  0  0  0  0  0  0  0  0
   -7.5680   -0.7549   25.8203 C   0  0  1  0  0  0  0  0  0  0  0  0
   -7.8694   -1.2471   27.0821 C   0  0  0  0  0  0  0  0  0  0  0  0
   -8.9057   -1.2537   27.6885 C   0  0  0  0  0  0  0  0  0  0  0  0
   -9.1279   -1.8279   29.0383 C   0  0  0  0  0  0  0  0  0  0  0  0
   -8.0211   -2.3410   29.6816 C   0  0  0  0  0  0  0  0  0  0  0  0
   -6.7779   -2.2619   29.0925 C   0  0  0  0  0  0  0  0  0  0  0  0
   -6.6231   -1.7409   27.8263 C   0  0  0  0  0  0  0  0  0  0  0  0
   -6.6899   -1.4249   24.9255 C   0  0  0  0  0  0  0  0  0  0  0  0
   -8.2545   -2.8703   31.0577 C   0  0  0  0  0  0  0  0  0  0  0  0
   -9.4836   -2.9357   31.6549 C   0  0  0  0  0  0  0  0  0  0  0  0
   -9.4931   -3.2085   33.0046 C   0  0  0  0  0  0  0  0  0  0  0  0
   -8.3547   -3.4417   33.7568 C   0  0  0  0  0  0  0  0  0  0  0  0
   -7.1242   -3.3466   33.1383 C   0  0  0  0  0  0  0  0  0  0  0  0
   -7.0582   -2.9746   31.8586 C   0  0  0  0  0  0  0  0  0  0  0  0
   -5.3768   -0.8825   24.8857 C   0  0  0  0  0  0  0  0  0  0  0  0
  3  7  1  0
  7  8  1  0
  7 10  1  0
  9 12  1  0
 11 12  1  0
 11 13  1  6
 13 14  1  0
 14 15  1  0
 14 16  1  0
 13 17  2  0
  2 18  1  0
  9 19  1  0
 19 20  1  0
 19 26  1  6
 23 27  1  0
 26 33  1  0
  8  9  1  0
 11 10  1  0
 20 21  2  0
 21 22  1  0
 22 23  2  0
 23 24  1  0
 24 25  2  0
 25 20  1  0
 27 28  2  0
 28 29  1  0
 29 30  2  0
 30 31  1  0
 31 32  2  0
 32 27  1  0
  1  2  2  0
  2  5  1  0
  5  6  2  0
  6  4  1  0
  4  3  2  0
  3  1  1  0
M  END
$$$$
