No_5330-complexes_sdf/6BKW-FPZ/2024-09-17-14-21-01/
     RDKit          3D

 15 16  0  0  0  0  0  0  0  0999 V2000
   -7.7129    4.2099   27.0854 C   0  0  0  0  0  0  0  0  0  0  0  0
   -7.7814    5.1722   27.8972 C   0  0  0  0  0  0  0  0  0  0  0  0
   -8.8998    3.8713   26.3707 C   0  0  0  0  0  0  0  0  0  0  0  0
   -9.9938    4.6774   26.5446 C   0  0  0  0  0  0  0  0  0  0  0  0
   -8.7789    6.1536   27.9256 C   0  0  0  0  0  0  0  0  0  0  0  0
   -9.9428    5.8398   27.2296 C   0  0  0  0  0  0  0  0  0  0  0  0
   -9.1381    2.6848   25.5884 C   0  0  0  0  0  0  0  0  0  0  0  0
   -9.8765    2.6895   24.5183 N   0  0  0  0  0  0  0  0  0  0  0  0
   -9.9310    1.5630   23.7762 C   0  0  0  0  0  0  0  0  0  0  0  0
   -8.4004    1.5498   25.8580 C   0  0  0  0  0  0  0  0  0  0  0  0
   -8.4413    0.4108   25.1400 C   0  0  0  0  0  0  0  0  0  0  0  0
   -9.2385    0.4625   24.0362 C   0  0  0  0  0  0  0  0  0  0  0  0
  -10.7459    1.6540   22.6357 N   0  0  0  0  0  0  0  0  0  0  0  0
  -10.7691    0.7918   21.6906 C   0  0  0  0  0  0  0  0  0  0  0  0
  -11.6378    0.8830   20.6003 C   0  0  0  0  0  0  0  0  0  0  0  0
  3  7  1  0
  9 13  1  0
 13 14  2  3
 14 15  1  0
  1  2  2  0
  2  5  1  0
  5  6  2  0
  6  4  1  0
  4  3  2  0
  3  1  1  0
  7  8  2  0
  8  9  1  0
  9 12  2  0
 12 11  1  0
 11 10  2  0
 10  7  1  0
M  END
$$$$
