No_5067-complexes_sdf/6BKW-FPZ/2024-09-17-14-21-01/
     RDKit          3D

 21 23  0  0  0  0  0  0  0  0999 V2000
   -7.9040    3.9820   27.1177 C   0  0  0  0  0  0  0  0  0  0  0  0
   -7.8663    4.8694   27.9238 C   0  0  0  0  0  0  0  0  0  0  0  0
   -9.0491    3.8523   26.2542 C   0  0  0  0  0  0  0  0  0  0  0  0
   -8.7661    5.9491   27.9690 C   0  0  0  0  0  0  0  0  0  0  0  0
   -9.9295    4.8502   26.2323 C   0  0  0  0  0  0  0  0  0  0  0  0
   -9.8077    5.9288   27.0933 C   0  0  0  0  0  0  0  0  0  0  0  0
   -6.8002    2.6256   27.2024 Cl  0  0  0  0  0  0  0  0  0  0  0  0
   -9.0982    2.7752   25.3575 N   0  0  0  0  0  0  0  0  0  0  0  0
  -10.0250    2.7945   24.3338 C   0  0  0  0  0  0  0  0  0  0  0  0
  -10.7177    3.7721   24.0336 C   0  0  0  0  0  0  0  0  0  0  0  0
  -10.8391    4.8280   25.0646 C   0  0  0  0  0  0  0  0  0  0  0  0
   -9.9285    1.6870   23.5406 N   0  0  0  0  0  0  0  0  0  0  0  0
   -9.2996    0.5148   23.8243 C   0  0  0  0  0  0  0  0  0  0  0  0
   -9.1514   -0.0016   24.8196 C   0  0  0  0  0  0  0  0  0  0  0  0
   -8.2644   -1.1260   25.0350 C   0  0  0  0  0  0  0  0  0  0  0  0
   -7.6787   -1.6580   23.9075 C   0  0  0  0  0  0  0  0  0  0  0  0
   -8.5569   -0.0053   22.6554 C   0  0  0  0  0  0  0  0  0  0  0  0
   -7.7699   -1.0471   22.6952 C   0  0  0  0  0  0  0  0  0  0  0  0
  -10.7299    1.7513   22.3386 C   0  0  0  0  0  0  0  0  0  0  0  0
  -10.3994    2.1962   21.4425 C   0  0  0  0  0  0  0  0  0  0  0  0
  -11.1539    2.3051   20.1695 C   0  0  0  0  0  0  0  0  0  0  0  0
  1  7  1  0
  9 12  1  0
 12 13  1  0
 12 19  1  0
 19 20  2  3
 20 21  1  0
  1  2  2  0
  2  4  1  0
  4  6  2  0
  6  5  1  0
  3  1  1  0
 13 14  2  0
 14 15  1  0
 15 16  2  0
 16 18  1  0
 18 17  2  0
 17 13  1  0
  3  5  2  0
  5 11  1  0
 11 10  2  0
 10  9  1  0
  9  8  2  0
  8  3  1  0
M  END
$$$$
