No_5582-complexes_sdf/6BKW-FPZ/2024-09-17-14-21-01/
     RDKit          3D

 20 21  0  0  0  0  0  0  0  0999 V2000
   -7.9040    3.9820   27.1177 C   0  0  0  0  0  0  0  0  0  0  0  0
   -7.8663    4.8694   27.9238 C   0  0  0  0  0  0  0  0  0  0  0  0
   -9.0491    3.8523   26.2542 C   0  0  0  0  0  0  0  0  0  0  0  0
   -8.7661    5.9491   27.9690 C   0  0  0  0  0  0  0  0  0  0  0  0
   -9.9295    4.8502   26.2323 C   0  0  0  0  0  0  0  0  0  0  0  0
   -9.8077    5.9288   27.0933 C   0  0  0  0  0  0  0  0  0  0  0  0
   -7.0575    2.9102   27.0247 F   0  0  0  0  0  0  0  0  0  0  0  0
   -9.1390    2.5624   25.0850 Cl  0  0  0  0  0  0  0  0  0  0  0  0
  -10.9235    4.8510   25.3313 O   0  0  0  0  0  0  0  0  0  0  0  0
  -11.8493    3.9162   25.4397 C   0  0  1  0  0  0  0  0  0  0  0  0
  -12.5598    3.7805   26.3639 C   0  0  0  0  0  0  0  0  0  0  0  0
  -13.6479    2.9119   26.5010 C   0  0  0  0  0  0  0  0  0  0  0  0
  -14.4588    2.7448   27.6379 C   0  0  0  0  0  0  0  0  0  0  0  0
  -14.0187    3.2407   28.6383 C   0  0  0  0  0  0  0  0  0  0  0  0
  -12.9052    4.1024   28.8650 C   0  0  0  0  0  0  0  0  0  0  0  0
  -12.2180    4.3633   27.8066 C   0  0  0  0  0  0  0  0  0  0  0  0
  -12.5449    3.7403   24.1424 C   0  0  0  0  0  0  0  0  0  0  0  0
  -12.0660    3.2222   23.1914 C   0  0  0  0  0  0  0  0  0  0  0  0
  -12.6993    3.0609   21.8773 C   0  0  0  0  0  0  0  0  0  0  0  0
  -14.0264    3.4397   21.8348 C   0  0  0  0  0  0  0  0  0  0  0  0
  1  7  1  0
  3  8  1  0
  5  9  1  0
 10  9  1  6
 10 11  1  0
 10 17  1  0
 17 18  2  3
 18 19  1  0
 19 20  2  0
 11 12  2  0
 12 13  1  0
 13 14  2  0
 14 15  1  0
 15 16  2  0
 16 11  1  0
  1  2  2  0
  2  4  1  0
  4  6  2  0
  6  5  1  0
  5  3  2  0
  3  1  1  0
M  END
$$$$
