No_5480-complexes_sdf/6BKW-FPZ/2024-09-17-14-21-01/
     RDKit          3D

 16 17  0  0  0  0  0  0  0  0999 V2000
   -7.2496    3.8871   27.4508 C   0  0  0  0  0  0  0  0  0  0  0  0
   -7.6161    2.7143   27.1523 C   0  0  0  0  0  0  0  0  0  0  0  0
   -8.8302    2.4659   26.5056 C   0  0  0  0  0  0  0  0  0  0  0  0
   -8.1584    5.0089   27.3234 C   0  0  0  0  0  0  0  0  0  0  0  0
   -9.3788    4.7965   26.7695 C   0  0  0  0  0  0  0  0  0  0  0  0
   -9.7028    3.5649   26.3276 C   0  0  0  0  0  0  0  0  0  0  0  0
   -6.7182    1.5519   27.3631 C   0  0  0  0  0  0  0  0  0  0  0  0
   -5.4694    1.7365   28.0694 C   0  0  0  0  0  0  0  0  0  0  0  0
   -4.5986    0.6519   28.2611 C   0  0  0  0  0  0  0  0  0  0  0  0
   -5.0102   -0.6262   27.9715 C   0  0  0  0  0  0  0  0  0  0  0  0
   -6.9338    0.1692   27.2539 C   0  0  0  0  0  0  0  0  0  0  0  0
   -6.2308   -0.8175   27.4839 C   0  0  0  0  0  0  0  0  0  0  0  0
   -7.6146    6.5781   27.8648 Cl  0  0  0  0  0  0  0  0  0  0  0  0
  -10.9903    3.3629   25.6302 C   0  0  0  0  0  0  0  0  0  0  0  0
  -12.1422    3.3018   26.2730 C   0  0  0  0  0  0  0  0  0  0  0  0
  -13.4056    3.2217   25.6565 C   0  0  0  0  0  0  0  0  0  0  0  0
  2  7  1  0
  4 13  1  0
  6 14  1  0
 14 15  2  3
 15 16  1  0
  7  8  2  0
  8  9  1  0
  9 10  2  0
 10 12  1  0
 12 11  2  0
 11  7  1  0
  1  2  2  0
  2  3  1  0
  3  6  2  0
  6  5  1  0
  5  4  2  0
  4  1  1  0
M  END
$$$$
