No_5554-complexes_sdf/6BKW-FPZ/2024-09-17-14-21-01/
     RDKit          3D

 38 41  0  0  0  0  0  0  0  0999 V2000
   -7.9040    3.9820   27.1177 C   0  0  0  0  0  0  0  0  0  0  0  0
   -8.2057    2.8231   26.8733 C   0  0  0  0  0  0  0  0  0  0  0  0
   -9.2962    2.4021   26.1155 C   0  0  0  0  0  0  0  0  0  0  0  0
   -8.7358    5.0662   26.5917 C   0  0  0  0  0  0  0  0  0  0  0  0
   -9.7618    4.7023   25.7546 C   0  0  0  0  0  0  0  0  0  0  0  0
  -10.0066    3.4105   25.4922 C   0  0  0  0  0  0  0  0  0  0  0  0
   -8.3936    6.4769   26.8843 C   0  0  0  0  0  0  0  0  0  0  0  0
   -8.0595    6.8026   28.2082 C   0  0  0  0  0  0  0  0  0  0  0  0
   -8.5406    7.4550   25.9076 C   0  0  0  0  0  0  0  0  0  0  0  0
   -7.3559    1.6546   27.4783 C   0  0  0  0  0  0  0  0  0  0  0  0
   -6.5301    0.9299   26.7669 C   0  0  0  0  0  0  0  0  0  0  0  0
   -5.7569   -0.0507   27.5083 C   0  0  0  0  0  0  0  0  0  0  0  0
   -5.5211   -0.0412   28.6748 C   0  0  0  0  0  0  0  0  0  0  0  0
   -6.0982    1.0200   29.4968 C   0  0  0  0  0  0  0  0  0  0  0  0
   -7.0326    1.8467   28.9117 C   0  0  0  0  0  0  0  0  0  0  0  0
   -4.5262   -0.9237   29.3948 C   0  0  0  0  0  0  0  0  0  0  0  0
   -3.9549   -1.7158   29.0080 N   0  0  0  0  0  0  0  0  0  0  0  0
   -4.1552   -0.4441   30.6837 N   0  0  0  0  0  0  0  0  0  0  0  0
   -3.1978   -1.3612   31.0913 C   0  0  1  0  0  0  0  0  0  0  0  0
   -3.0096   -2.1641   30.0309 C   0  0  0  0  0  0  0  0  0  0  0  0
   -2.5797   -1.2788   32.4058 C   0  0  0  0  0  0  0  0  0  0  0  0
   -1.5859   -1.9030   32.5612 O   0  0  0  0  0  0  0  0  0  0  0  0
   -3.0692   -0.3837   33.3692 N   0  0  0  0  0  0  0  0  0  0  0  0
  -11.0840    3.0742   24.5596 C   0  0  2  0  0  0  0  0  0  0  0  0
  -11.1009    3.5323   23.4775 N   0  0  0  0  0  0  0  0  0  0  0  0
  -10.8061    3.4953   22.4428 C   0  0  0  0  0  0  0  0  0  0  0  0
  -10.8706    4.5474   21.3742 C   0  0  0  0  0  0  0  0  0  0  0  0
  -10.1331    2.3055   21.9075 C   0  0  0  0  0  0  0  0  0  0  0  0
  -10.3471    4.3017   20.1269 C   0  0  0  0  0  0  0  0  0  0  0  0
   -9.6873    2.0896   20.6109 C   0  0  0  0  0  0  0  0  0  0  0  0
   -9.8252    3.2158   19.6995 C   0  0  0  0  0  0  0  0  0  0  0  0
  -12.4091    4.5035   23.4206 C   0  0  0  0  0  0  0  0  0  0  0  0
  -12.3607    2.8382   25.3168 C   0  0  2  0  0  0  0  0  0  0  0  0
  -12.4286    2.0058   26.3533 C   0  0  0  0  0  0  0  0  0  0  0  0
  -13.5099    3.4836   24.7581 C   0  0  0  0  0  0  0  0  0  0  0  0
  -12.2825    5.3022   22.7179 C   0  0  0  0  0  0  0  0  0  0  0  0
  -13.3820    4.7103   22.8093 Cl  0  0  0  0  0  0  0  0  0  0  0  0
  -14.6078    3.8028   25.2197 C   0  0  0  0  0  0  0  0  0  0  0  0
  4  7  1  0
  7  8  2  0
  7  9  1  0
  2 10  1  0
 13 16  1  0
 16 17  2  0
 16 18  1  0
 18 19  1  0
 17 20  1  0
 19 20  1  0
 19 21  1  6
 21 22  2  0
 21 23  1  0
  6 24  1  0
 24 25  1  6
 25 26  1  0
 25 32  1  0
 24 33  1  0
 33 34  1  6
 33 35  1  0
 32 36  2  0
 32 37  1  0
 35 38  2  0
 26 27  2  0
 27 29  1  0
 29 31  2  0
 31 30  1  0
 30 28  2  0
 28 26  1  0
  1  2  2  0
  2  3  1  0
  3  6  2  0
  6  5  1  0
  5  4  2  0
  4  1  1  0
 10 11  2  0
 11 12  1  0
 12 13  2  0
 13 14  1  0
 14 15  2  0
 15 10  1  0
M  END
$$$$
