No_5374-complexes_sdf/6BKW-FPZ/2024-09-17-14-21-01/
     RDKit          3D

 16 17  0  0  0  0  0  0  0  0999 V2000
   -7.7129    4.2099   27.0854 C   0  0  0  0  0  0  0  0  0  0  0  0
   -8.9133    4.4736   27.0998 C   0  0  2  0  0  0  0  0  0  0  0  0
   -9.7135    3.9633   26.0300 C   0  0  0  0  0  0  0  0  0  0  0  0
   -6.8420    4.9760   28.0851 C   0  0  0  0  0  0  0  0  0  0  0  0
   -9.6552    4.2399   24.9004 C   0  0  0  0  0  0  0  0  0  0  0  0
  -10.4285    3.7872   23.7716 C   0  0  0  0  0  0  0  0  0  0  0  0
  -11.2878    2.7733   24.0202 C   0  0  0  0  0  0  0  0  0  0  0  0
  -10.6770    2.9126   26.2852 C   0  0  0  0  0  0  0  0  0  0  0  0
  -11.4583    2.3723   25.3212 C   0  0  0  0  0  0  0  0  0  0  0  0
   -9.5239    5.3476   28.0386 C   0  0  0  0  0  0  0  0  0  0  0  0
  -12.1426    2.3312   22.9045 C   0  0  0  0  0  0  0  0  0  0  0  0
  -11.9990    2.5842   21.7942 C   0  0  0  0  0  0  0  0  0  0  0  0
  -10.7757    3.1852   21.3635 C   0  0  0  0  0  0  0  0  0  0  0  0
  -10.0606    4.0861   22.3609 C   0  0  0  0  0  0  0  0  0  0  0  0
  -12.4302    1.3626   25.6588 C   0  0  0  0  0  0  0  0  0  0  0  0
  -12.2344    0.1231   25.8154 C   0  0  0  0  0  0  0  0  0  0  0  0
  1  2  1  0
  2  3  1  0
  1  4  1  0
  2 10  1  6
  9 15  1  0
 15 16  2  0
  7 11  2  0
 11 12  1  0
 12 13  2  0
 13 14  1  0
 14  6  2  0
  3  5  2  0
  5  6  1  0
  6  7  1  0
  7  9  1  0
  9  8  2  0
  8  3  1  0
M  END
$$$$
