No_5774-complexes_sdf/6BKW-FPZ/2024-09-17-14-21-01/
     RDKit          3D

 13 14  0  0  0  0  0  0  0  0999 V2000
   -7.7129    4.2099   27.0854 C   0  0  0  0  0  0  0  0  0  0  0  0
   -8.2112    3.0637   26.9225 C   0  0  0  0  0  0  0  0  0  0  0  0
   -8.5108    5.3904   26.9436 C   0  0  0  0  0  0  0  0  0  0  0  0
   -7.9752    6.6981   27.2112 C   0  0  0  0  0  0  0  0  0  0  0  0
   -7.4938    1.8178   27.3608 C   0  0  0  0  0  0  0  0  0  0  0  0
   -6.1616    2.0743   27.7406 C   0  0  0  0  0  0  0  0  0  0  0  0
   -5.3842    0.9111   28.1468 C   0  0  0  0  0  0  0  0  0  0  0  0
   -5.9508   -0.3230   28.1725 C   0  0  0  0  0  0  0  0  0  0  0  0
   -7.9245    0.5644   27.3513 C   0  0  0  0  0  0  0  0  0  0  0  0
   -7.2288   -0.4857   27.7892 C   0  0  0  0  0  0  0  0  0  0  0  0
   -9.5833    2.8745   26.6976 C   0  0  0  0  0  0  0  0  0  0  0  0
  -10.1490    1.7070   26.4494 C   0  0  0  0  0  0  0  0  0  0  0  0
   -9.3613    0.4795   26.9490 C   0  0  0  0  0  0  0  0  0  0  0  0
  1  2  1  0
  1  3  2  3
  3  4  1  0
  5  6  1  0
  6  7  2  0
  7  8  1  0
  8 10  2  0
 10  9  1  0
  2  5  2  0
  5  9  1  0
  9 13  2  0
 13 12  1  0
 12 11  2  0
 11  2  1  0
M  END
$$$$
