No_5989-complexes_sdf/6BKW-FPZ/2024-09-17-14-21-01/
     RDKit          3D

 26 29  0  0  0  0  0  0  0  0999 V2000
   -7.9040    3.9820   27.1177 C   0  0  0  0  0  0  0  0  0  0  0  0
   -7.8663    4.8694   27.9238 C   0  0  0  0  0  0  0  0  0  0  0  0
   -9.0491    3.8523   26.2542 C   0  0  0  0  0  0  0  0  0  0  0  0
   -8.7661    5.9491   27.9690 C   0  0  0  0  0  0  0  0  0  0  0  0
   -9.9295    4.8502   26.2323 C   0  0  0  0  0  0  0  0  0  0  0  0
   -9.8077    5.9288   27.0933 C   0  0  0  0  0  0  0  0  0  0  0  0
   -6.9183    2.9825   27.3734 N   0  0  0  0  0  0  0  0  0  0  0  0
   -6.8699    1.7515   27.6722 C   0  0  0  0  0  0  0  0  0  0  0  0
   -5.6753    1.1327   27.8299 N   0  0  0  0  0  0  0  0  0  0  0  0
   -7.9838    0.8777   27.4306 C   0  0  0  0  0  0  0  0  0  0  0  0
   -5.5762   -0.1651   28.0778 C   0  0  0  0  0  0  0  0  0  0  0  0
   -7.9270   -0.4637   27.7083 C   0  0  0  0  0  0  0  0  0  0  0  0
   -6.6439   -0.9787   28.0543 C   0  0  0  0  0  0  0  0  0  0  0  0
   -4.3064   -0.6476   28.4527 N   0  0  0  0  0  0  0  0  0  0  0  0
   -4.0163   -1.5406   29.0819 C   0  0  0  0  0  0  0  0  0  0  0  0
   -3.1893    0.2272   27.9706 C   0  0  0  0  0  0  0  0  0  0  0  0
   -2.9513   -2.0455   29.1677 C   0  0  0  0  0  0  0  0  0  0  0  0
   -1.8920   -0.3291   27.9815 C   0  0  0  0  0  0  0  0  0  0  0  0
   -1.6744   -1.3949   28.8138 C   0  0  0  0  0  0  0  0  0  0  0  0
   -8.8738    2.8161   25.4025 O   0  0  0  0  0  0  0  0  0  0  0  0
   -9.8527    2.7430   24.3851 C   0  0  0  0  0  0  0  0  0  0  0  0
   -9.7200    1.5359   23.6411 C   0  0  0  0  0  0  0  0  0  0  0  0
  -10.2144    1.4923   22.3672 C   0  0  0  0  0  0  0  0  0  0  0  0
  -10.9885    2.5954   21.8673 C   0  0  0  0  0  0  0  0  0  0  0  0
  -11.0787    3.7581   22.6351 C   0  0  0  0  0  0  0  0  0  0  0  0
  -10.4133    3.8460   23.8367 C   0  0  0  0  0  0  0  0  0  0  0  0
  1  7  1  0
  7  8  1  0
 11 14  1  0
 14 15  1  0
 14 16  1  0
 17 19  1  0
 18 19  1  0
  3 20  1  0
 20 21  1  0
 15 17  1  0
 18 16  1  0
  8  9  2  0
  9 11  1  0
 11 13  2  0
 13 12  1  0
 12 10  2  0
 10  8  1  0
  1  2  2  0
  2  4  1  0
  4  6  2  0
  6  5  1  0
  5  3  2  0
  3  1  1  0
 21 22  2  0
 22 23  1  0
 23 24  2  0
 24 25  1  0
 25 26  2  0
 26 21  1  0
M  END
$$$$
