No_5604-complexes_sdf/6BKW-FPZ/2024-09-17-14-21-01/
     RDKit          3D

 23 25  0  0  0  0  0  0  0  0999 V2000
   -7.7129    4.2099   27.0854 C   0  0  0  0  0  0  0  0  0  0  0  0
   -8.2112    3.0637   26.9225 C   0  0  0  0  0  0  0  0  0  0  0  0
   -7.5138    1.9223   27.4249 C   0  0  0  0  0  0  0  0  0  0  0  0
   -6.5434    4.4363   27.9024 C   0  0  0  0  0  0  0  0  0  0  0  0
   -6.2005    2.1121   27.9323 C   0  0  0  0  0  0  0  0  0  0  0  0
   -5.7560    3.3924   28.1795 C   0  0  0  0  0  0  0  0  0  0  0  0
   -8.4051    5.5648   26.8603 C   0  0  0  0  0  0  0  0  0  0  0  0
   -9.5276    5.7740   26.8750 Cl  0  0  0  0  0  0  0  0  0  0  0  0
   -5.4321    0.9053   28.3029 C   0  0  0  0  0  0  0  0  0  0  0  0
   -5.8885   -0.3979   28.1080 C   0  0  0  0  0  0  0  0  0  0  0  0
   -7.2169   -0.4470   27.5397 C   0  0  0  0  0  0  0  0  0  0  0  0
   -8.0853    0.5757   27.2395 C   0  0  0  0  0  0  0  0  0  0  0  0
   -7.5002    6.5185   26.6326 F   0  0  0  0  0  0  0  0  0  0  0  0
   -4.0543    1.1111   28.8400 C   0  0  0  0  0  0  0  0  0  0  0  0
   -3.1202    1.1030   28.1523 O   0  0  0  0  0  0  0  0  0  0  0  0
   -3.9559    0.9792   30.1903 O   0  0  0  0  0  0  0  0  0  0  0  0
   -9.3646    0.4317   26.6934 C   0  0  0  0  0  0  0  0  0  0  0  0
  -10.2866    0.8698   26.8666 C   0  0  0  0  0  0  0  0  0  0  0  0
  -11.6073    0.7174   26.6987 C   0  0  0  0  0  0  0  0  0  0  0  0
  -12.7020    1.4932   27.2233 C   0  0  0  0  0  0  0  0  0  0  0  0
  -12.3882    2.2179   28.0183 C   0  0  0  0  0  0  0  0  0  0  0  0
  -11.1736    2.7136   28.5445 C   0  0  0  0  0  0  0  0  0  0  0  0
  -10.1498    2.0632   28.1252 C   0  0  0  0  0  0  0  0  0  0  0  0
  1  7  1  0
  7  8  1  0
  7 13  1  0
  9 14  1  0
 14 15  2  0
 14 16  1  0
 12 17  1  0
 17 18  1  0
 18 19  2  0
 19 20  1  0
 20 21  2  0
 21 22  1  0
 22 23  2  0
 23 18  1  0
  1  2  2  0
  2  3  1  0
  5  6  1  0
  6  4  2  0
  4  1  1  0
  3  5  2  0
  5  9  1  0
  9 10  2  0
 10 11  1  0
 11 12  2  0
 12  3  1  0
M  END
$$$$
