No_5250-complexes_sdf/6BKW-FPZ/2024-09-17-14-21-01/
     RDKit          3D

 12 13  0  0  0  0  0  0  0  0999 V2000
   -7.7129    4.2099   27.0854 C   0  0  0  0  0  0  0  0  0  0  0  0
   -8.9133    4.4736   27.0998 C   0  0  0  0  0  0  0  0  0  0  0  0
   -9.4616    5.6470   27.6290 C   0  0  0  0  0  0  0  0  0  0  0  0
   -6.8722    5.1130   27.9248 C   0  0  0  0  0  0  0  0  0  0  0  0
   -7.3801    6.2535   28.4126 C   0  0  0  0  0  0  0  0  0  0  0  0
   -8.6734    6.5530   28.2150 C   0  0  0  0  0  0  0  0  0  0  0  0
   -9.8157    3.4887   26.3527 C   0  0  0  0  0  0  0  0  0  0  0  0
  -10.0926    2.3125   26.8650 C   0  0  0  0  0  0  0  0  0  0  0  0
  -10.6754    1.3266   26.3730 C   0  0  0  0  0  0  0  0  0  0  0  0
  -10.2378    3.7847   25.0427 C   0  0  0  0  0  0  0  0  0  0  0  0
  -10.9048    2.7691   24.3585 C   0  0  0  0  0  0  0  0  0  0  0  0
  -11.1462    1.5601   25.0248 C   0  0  0  0  0  0  0  0  0  0  0  0
  2  7  1  0
  1  2  2  0
  2  3  1  0
  3  6  2  0
  6  5  1  0
  5  4  2  0
  4  1  1  0
  7  8  2  0
  8  9  1  0
  9 12  2  0
 12 11  1  0
 11 10  2  0
 10  7  1  0
M  END
$$$$
