No_5958-complexes_sdf/6BKW-FPZ/2024-09-17-14-21-01/
     RDKit          3D

 19 20  0  0  0  0  0  0  0  0999 V2000
   -7.2496    3.8871   27.4508 C   0  0  0  0  0  0  0  0  0  0  0  0
   -7.9379    4.9063   27.8518 C   0  0  0  0  0  0  0  0  0  0  0  0
   -9.3460    4.8223   27.8695 C   0  0  0  0  0  0  0  0  0  0  0  0
   -7.8628    2.6163   27.1065 C   0  0  0  0  0  0  0  0  0  0  0  0
   -9.2787    2.5744   27.1970 C   0  0  0  0  0  0  0  0  0  0  0  0
  -10.0108    3.6770   27.6340 C   0  0  0  0  0  0  0  0  0  0  0  0
  -11.5178    3.7574   27.7698 C   0  0  0  0  0  0  0  0  0  0  0  0
  -12.2297    4.3986   26.9821 C   0  0  0  0  0  0  0  0  0  0  0  0
  -13.6570    4.5105   27.0489 C   0  0  0  0  0  0  0  0  0  0  0  0
  -12.1091    2.9208   28.7742 C   0  0  0  0  0  0  0  0  0  0  0  0
  -13.5103    2.9904   28.9573 C   0  0  0  0  0  0  0  0  0  0  0  0
  -14.2673    3.7867   28.0787 C   0  0  0  0  0  0  0  0  0  0  0  0
   -7.1803    1.5556   26.7918 O   0  0  0  0  0  0  0  0  0  0  0  0
   -7.7179    0.5229   26.1664 C   0  0  0  0  0  0  0  0  0  0  0  0
   -8.5084    0.7366   25.2260 C   0  0  0  0  0  0  0  0  0  0  0  0
   -9.0220   -0.2757   24.3252 C   0  0  0  0  0  0  0  0  0  0  0  0
   -9.9573    0.1175   23.3319 C   0  0  0  0  0  0  0  0  0  0  0  0
  -10.3370    1.4770   23.1441 C   0  0  0  0  0  0  0  0  0  0  0  0
   -9.8865    2.4308   23.9848 C   0  0  0  0  0  0  0  0  0  0  0  0
  6  7  1  0
  4 13  1  0
 13 14  1  0
 14 15  2  3
 15 16  1  0
 16 17  2  3
 17 18  1  0
 18 19  2  0
  1  2  2  0
  2  3  1  0
  3  6  2  0
  6  5  1  0
  5  4  2  0
  4  1  1  0
  7  8  2  0
  8  9  1  0
  9 12  2  0
 12 11  1  0
 11 10  2  0
 10  7  1  0
M  END
$$$$
