No_5880-complexes_sdf/6BKW-FPZ/2024-09-17-14-21-01/
     RDKit          3D

 29 31  0  0  0  0  0  0  0  0999 V2000
   -7.7129    4.2099   27.0854 C   0  0  0  0  0  0  0  0  0  0  0  0
   -8.9133    4.4736   27.0998 C   0  0  0  0  0  0  0  0  0  0  0  0
   -9.8363    3.8127   27.2418 C   0  0  0  0  0  0  0  0  0  0  0  0
   -7.2995    2.8520   27.3808 C   0  0  0  0  0  0  0  0  0  0  0  0
   -8.3404    1.9507   27.4989 C   0  0  0  0  0  0  0  0  0  0  0  0
   -9.6166    2.3791   27.4719 C   0  0  0  0  0  0  0  0  0  0  0  0
   -9.1653    6.0330   26.9186 C   0  0  0  0  0  0  0  0  0  0  0  0
   -8.9572    6.8340   28.0170 C   0  0  0  0  0  0  0  0  0  0  0  0
   -8.0145    0.4938   27.6845 C   0  0  0  0  0  0  0  0  0  0  0  0
   -9.0221   -0.4592   27.6674 C   0  0  0  0  0  0  0  0  0  0  0  0
   -8.7052   -1.7890   27.9143 C   0  0  0  0  0  0  0  0  0  0  0  0
   -7.3631   -2.1233   28.0974 C   0  0  0  0  0  0  0  0  0  0  0  0
   -6.6840   -0.0746   27.8855 C   0  0  0  0  0  0  0  0  0  0  0  0
   -6.3464   -1.2340   28.0389 C   0  0  0  0  0  0  0  0  0  0  0  0
   -8.2499    6.5531   25.7147 C   0  0  0  0  0  0  0  0  0  0  0  0
  -11.3212    4.1458   27.3656 C   0  0  0  0  0  0  0  0  0  0  0  0
  -11.9958    3.7318   28.5993 C   0  0  0  0  0  0  0  0  0  0  0  0
  -11.6746    2.8185   29.3821 C   0  0  0  0  0  0  0  0  0  0  0  0
  -12.5375    2.3151   30.4311 C   0  0  0  0  0  0  0  0  0  0  0  0
  -13.7032    3.1518   30.6704 C   0  0  0  0  0  0  0  0  0  0  0  0
  -14.0692    4.2054   29.8535 C   0  0  0  0  0  0  0  0  0  0  0  0
  -13.2745    4.4790   28.7886 C   0  0  0  0  0  0  0  0  0  0  0  0
  -14.5259    2.7328   31.8738 C   0  0  0  0  0  0  0  0  0  0  0  0
  -15.3647    3.3433   31.9875 F   0  0  0  0  0  0  0  0  0  0  0  0
  -13.6872    2.8695   32.9552 F   0  0  0  0  0  0  0  0  0  0  0  0
  -14.7272    1.3970   31.7662 F   0  0  0  0  0  0  0  0  0  0  0  0
   -9.8284   -2.7516   27.9858 C   0  0  0  0  0  0  0  0  0  0  0  0
  -10.1303   -3.6653   28.4611 F   0  0  0  0  0  0  0  0  0  0  0  0
  -10.8467   -2.2754   27.1014 F   0  0  0  0  0  0  0  0  0  0  0  0
  2  7  1  0
  7  8  1  0
  5  9  1  0
  7 15  1  0
  3 16  1  0
 16 17  1  0
 20 23  1  0
 23 24  1  0
 23 25  1  0
 23 26  1  0
 11 27  1  0
 27 28  1  0
 27 29  1  0
 17 18  2  0
 18 19  1  0
 19 20  2  0
 20 21  1  0
 21 22  2  0
 22 17  1  0
  1  2  2  0
  2  3  1  0
  3  6  2  0
  6  5  1  0
  5  4  2  0
  4  1  1  0
  9 10  2  0
 10 11  1  0
 11 12  2  0
 12 14  1  0
 14 13  2  0
 13  9  1  0
M  END
$$$$
