No_5607-complexes_sdf/6BKW-FPZ/2024-09-17-14-21-01/
     RDKit          3D

 11 12  0  0  0  0  0  0  0  0999 V2000
   -7.2496    3.8871   27.4508 C   0  0  0  0  0  0  0  0  0  0  0  0
   -7.6161    2.7143   27.1523 C   0  0  0  0  0  0  0  0  0  0  0  0
   -8.8302    2.4659   26.5056 C   0  0  0  0  0  0  0  0  0  0  0  0
   -8.1584    5.0090   27.3234 C   0  0  0  0  0  0  0  0  0  0  0  0
   -9.2382    4.8823   26.8337 C   0  0  0  0  0  0  0  0  0  0  0  0
   -9.6533    3.6268   26.3156 C   0  0  0  0  0  0  0  0  0  0  0  0
   -6.9998    1.4972   27.2875 N   0  0  0  0  0  0  0  0  0  0  0  0
   -7.4693    0.4040   26.8573 C   0  0  0  0  0  0  0  0  0  0  0  0
   -6.9779   -0.8457   27.0345 C   0  0  0  0  0  0  0  0  0  0  0  0
   -8.7895    0.5343   26.2639 C   0  0  0  0  0  0  0  0  0  0  0  0
   -9.2942    1.1933   26.1208 N   0  0  0  0  0  0  0  0  0  0  0  0
  8  9  1  0
  1  2  2  0
  3  6  2  0
  6  5  1  0
  5  4  2  0
  4  1  1  0
  2  3  1  0
  3 11  1  0
 11 10  2  0
 10  8  1  0
  8  7  2  0
  7  2  1  0
M  END
$$$$
