No_5098-complexes_sdf/6BKW-FPZ/2024-09-17-14-21-01/
     RDKit          3D

 40 44  0  0  0  0  0  0  0  0999 V2000
   -7.2496    3.8871   27.4508 C   0  0  0  0  0  0  0  0  0  0  0  0
   -7.6161    2.7143   27.1523 C   0  0  0  0  0  0  0  0  0  0  0  0
   -8.8302    2.4659   26.5056 C   0  0  0  0  0  0  0  0  0  0  0  0
   -8.1584    5.0090   27.3234 C   0  0  0  0  0  0  0  0  0  0  0  0
   -9.3788    4.7965   26.7695 C   0  0  0  0  0  0  0  0  0  0  0  0
  -10.2565    5.9224   26.5388 C   0  0  0  0  0  0  0  0  0  0  0  0
   -9.7413    3.5289   26.3208 C   0  0  0  0  0  0  0  0  0  0  0  0
   -6.7167    1.5314   27.3525 C   0  0  0  0  0  0  0  0  0  0  0  0
   -5.4590    1.7292   28.0373 C   0  0  0  0  0  0  0  0  0  0  0  0
   -4.5898    0.6403   28.2577 C   0  0  0  0  0  0  0  0  0  0  0  0
   -5.0129   -0.6376   27.9742 C   0  0  0  0  0  0  0  0  0  0  0  0
   -7.0552    0.2155   27.1488 C   0  0  0  0  0  0  0  0  0  0  0  0
   -6.2866   -0.8240   27.4642 C   0  0  0  0  0  0  0  0  0  0  0  0
   -7.6961    6.3198   27.8353 C   0  0  0  0  0  0  0  0  0  0  0  0
   -3.4092    0.9165   28.8206 F   0  0  0  0  0  0  0  0  0  0  0  0
  -10.9795    3.3059   25.6199 C   0  0  1  0  0  0  0  0  0  0  0  0
  -11.2131    2.1085   25.1475 N   0  0  0  0  0  0  0  0  0  0  0  0
  -11.3863    1.8673   23.9639 C   0  0  0  0  0  0  0  0  0  0  0  0
  -11.4452    0.5371   23.4471 C   0  0  0  0  0  0  0  0  0  0  0  0
  -10.5296    2.6961   23.0458 C   0  0  0  0  0  0  0  0  0  0  0  0
  -10.3919    2.3847   21.6569 C   0  0  0  0  0  0  0  0  0  0  0  0
  -11.3693    0.2389   22.0402 C   0  0  0  0  0  0  0  0  0  0  0  0
  -10.7557    1.1614   21.2102 C   0  0  0  0  0  0  0  0  0  0  0  0
  -11.7725    1.1135   26.1324 C   0  0  0  0  0  0  0  0  0  0  0  0
  -12.6524    1.4704   26.9461 C   0  0  0  0  0  0  0  0  0  0  0  0
  -13.2508    2.3093   27.2435 C   0  0  0  0  0  0  0  0  0  0  0  0
  -14.0528    2.7773   28.2149 C   0  0  0  0  0  0  0  0  0  0  0  0
  -14.5879    4.0858   28.4783 C   0  0  0  0  0  0  0  0  0  0  0  0
  -14.2623    5.0406   27.4549 C   0  0  0  0  0  0  0  0  0  0  0  0
  -13.4189    4.7349   26.4855 C   0  0  0  0  0  0  0  0  0  0  0  0
  -12.8994    3.5533   26.3104 C   0  0  0  0  0  0  0  0  0  0  0  0
  -11.5909    3.8710   25.8303 N   0  0  0  0  0  0  0  0  0  0  0  0
   -9.7663    3.3760   20.7587 C   0  0  0  0  0  0  0  0  0  0  0  0
  -10.2945    4.4739   20.3133 N   0  0  0  0  0  0  0  0  0  0  0  0
  -14.4864    1.7600   29.2978 C   0  0  2  0  0  0  0  0  0  0  0  0
  -13.5338    1.6851   30.3032 C   0  0  0  0  0  0  0  0  0  0  0  0
  -15.5688    1.0024   29.1416 C   0  0  0  0  0  0  0  0  0  0  0  0
  -16.1747    0.5975   30.0748 C   0  0  0  0  0  0  0  0  0  0  0  0
  -17.2887   -0.1558   30.0636 C   0  0  0  0  0  0  0  0  0  0  0  0
  -14.0763    0.9784   31.5021 C   0  0  0  0  0  0  0  0  0  0  0  0
  5  6  1  0
  2  8  1  0
  4 14  1  0
 10 15  1  0
 16  7  1  1
 16 17  1  0
 17 18  1  0
 17 24  1  0
 24 25  1  0
 16 32  1  0
 31 32  1  0
 21 33  1  0
 33 34  1  0
 27 35  1  0
 35 36  1  0
 35 37  1  6
 37 38  1  0
 38 39  2  0
 36 40  2  0
 25 26  1  0
 26 27  2  0
 27 28  1  0
 28 29  2  0
 29 30  1  0
 30 31  2  0
 31 26  1  0
 18 19  2  0
 19 22  1  0
 22 23  2  0
 23 21  1  0
 21 20  2  0
 20 18  1  0
  1  2  2  0
  2  3  1  0
  3  7  2  0
  7  5  1  0
  5  4  2  0
  4  1  1  0
  8  9  2  0
  9 10  1  0
 10 11  2  0
 11 13  1  0
 13 12  2  0
 12  8  1  0
M  END
$$$$
