No_5668-complexes_sdf/6BKW-FPZ/2024-09-17-14-21-01/
     RDKit          3D

 32 34  0  0  0  0  0  0  0  0999 V2000
   -7.9040    3.9820   27.1177 C   0  0  0  0  0  0  0  0  0  0  0  0
   -8.2057    2.8231   26.8733 C   0  0  0  0  0  0  0  0  0  0  0  0
   -9.2962    2.4021   26.1155 C   0  0  0  0  0  0  0  0  0  0  0  0
   -8.7358    5.0662   26.5917 C   0  0  0  0  0  0  0  0  0  0  0  0
   -9.7618    4.7023   25.7546 C   0  0  0  0  0  0  0  0  0  0  0  0
  -10.0066    3.4105   25.4922 C   0  0  0  0  0  0  0  0  0  0  0  0
   -8.3943    6.4761   26.8801 C   0  0  0  0  0  0  0  0  0  0  0  0
   -8.0394    6.8605   28.0789 N   0  0  0  0  0  0  0  0  0  0  0  0
   -8.8559    7.3880   26.0750 O   0  0  0  0  0  0  0  0  0  0  0  0
   -7.5338    1.5216   27.3866 C   0  0  0  0  0  0  0  0  0  0  0  0
   -5.8759    1.5346   27.5878 P   0  0  1  0  0  0  0  0  0  0  0  0
   -5.4084    2.6654   28.2080 O   0  0  0  0  0  0  0  0  0  0  0  0
   -5.7948    0.4385   28.7688 O   0  0  0  0  0  0  0  0  0  0  0  0
   -5.2311    0.9729   26.4310 O   0  0  0  0  0  0  0  0  0  0  0  0
   -4.5406    0.1381   29.3062 C   0  0  0  0  0  0  0  0  0  0  0  0
   -4.5595   -0.5571   30.5654 C   0  0  0  0  0  0  0  0  0  0  0  0
   -5.4806   -1.3347   30.9251 C   0  0  0  0  0  0  0  0  0  0  0  0
   -5.4658   -2.0170   31.9655 C   0  0  0  0  0  0  0  0  0  0  0  0
   -4.4251   -1.8361   32.9860 C   0  0  0  0  0  0  0  0  0  0  0  0
   -3.3639   -0.9937   32.6387 C   0  0  0  0  0  0  0  0  0  0  0  0
   -3.3896   -0.3275   31.4194 C   0  0  0  0  0  0  0  0  0  0  0  0
   -2.2186   -0.8241   33.5864 C   0  0  0  0  0  0  0  0  0  0  0  0
   -2.2206   -1.4479   34.5248 O   0  0  0  0  0  0  0  0  0  0  0  0
   -1.4417    0.1845   33.2983 O   0  0  0  0  0  0  0  0  0  0  0  0
   -8.2364    0.5147   27.6896 O   0  0  0  0  0  0  0  0  0  0  0  0
   -6.6685   -2.8265   32.4713 C   0  0  0  0  0  0  0  0  0  0  0  0
   -6.4696   -4.1494   32.5403 C   0  0  0  0  0  0  0  0  0  0  0  0
   -7.5915   -4.9764   32.9361 C   0  0  0  0  0  0  0  0  0  0  0  0
   -7.5109   -6.2791   33.0585 C   0  0  0  0  0  0  0  0  0  0  0  0
   -6.2513   -6.8763   32.7674 C   0  0  0  0  0  0  0  0  0  0  0  0
   -5.1844   -6.1814   32.3827 C   0  0  0  0  0  0  0  0  0  0  0  0
   -5.2623   -4.7963   32.2954 C   0  0  0  0  0  0  0  0  0  0  0  0
  4  7  1  0
  7  8  1  0
  7  9  2  0
  2 10  1  0
 10 11  1  0
 11 12  2  0
 11 13  1  0
 11 14  1  6
 13 15  1  0
 15 16  1  0
 20 22  1  0
 22 23  2  0
 22 24  1  0
 10 25  2  0
 18 26  1  0
 26 27  1  0
 27 28  2  0
 28 29  1  0
 29 30  2  0
 30 31  1  0
 31 32  2  0
 32 27  1  0
  1  2  2  0
  2  3  1  0
  3  6  2  0
  6  5  1  0
  5  4  2  0
  4  1  1  0
 16 17  2  0
 17 18  1  0
 18 19  2  0
 19 20  1  0
 20 21  2  0
 21 16  1  0
M  END
$$$$
