No_5993-complexes_sdf/6BKW-FPZ/2024-09-17-14-21-01/
     RDKit          3D

 18 20  0  0  0  0  0  0  0  0999 V2000
   -7.9040    3.9820   27.1177 C   0  0  0  0  0  0  0  0  0  0  0  0
   -7.8663    4.8694   27.9238 C   0  0  0  0  0  0  0  0  0  0  0  0
   -9.0491    3.8523   26.2542 C   0  0  0  0  0  0  0  0  0  0  0  0
   -8.7661    5.9491   27.9690 C   0  0  0  0  0  0  0  0  0  0  0  0
   -9.1798    2.6731   25.4786 C   0  0  0  0  0  0  0  0  0  0  0  0
   -9.8964    5.8854   27.1460 C   0  0  0  0  0  0  0  0  0  0  0  0
   -9.9958    4.8034   26.3470 C   0  0  0  0  0  0  0  0  0  0  0  0
   -8.6595    1.4511   25.8687 C   0  0  0  0  0  0  0  0  0  0  0  0
   -8.5497    0.3944   25.0091 C   0  0  0  0  0  0  0  0  0  0  0  0
   -9.8011    2.7295   24.2436 C   0  0  0  0  0  0  0  0  0  0  0  0
   -9.8245    1.6452   23.3877 C   0  0  0  0  0  0  0  0  0  0  0  0
   -9.1647    0.4794   23.7858 C   0  0  0  0  0  0  0  0  0  0  0  0
   -9.1721   -0.6901   22.8319 C   0  0  0  0  0  0  0  0  0  0  0  0
   -9.9499   -1.7323   23.2237 C   0  0  0  0  0  0  0  0  0  0  0  0
   -9.9591   -2.7724   22.4605 C   0  0  0  0  0  0  0  0  0  0  0  0
   -9.2472   -2.8374   21.1771 C   0  0  0  0  0  0  0  0  0  0  0  0
   -8.4748   -1.7445   20.7929 C   0  0  0  0  0  0  0  0  0  0  0  0
   -8.3828   -0.6007   21.6390 C   0  0  0  0  0  0  0  0  0  0  0  0
  3  5  1  0
 12 13  1  0
 13 14  2  0
 14 15  1  0
 15 16  2  0
 16 17  1  0
 17 18  2  0
 18 13  1  0
  1  2  2  0
  2  4  1  0
  4  6  2  0
  6  7  1  0
  7  3  2  0
  3  1  1  0
  5  8  2  0
  8  9  1  0
  9 12  2  0
 12 11  1  0
 11 10  2  0
 10  5  1  0
M  END
$$$$
