No_5141-complexes_sdf/6BKW-FPZ/2024-09-17-14-21-01/
     RDKit          3D

 12 13  0  0  0  0  0  0  0  0999 V2000
   -7.9040    3.9820   27.1177 C   0  0  0  0  0  0  0  0  0  0  0  0
   -7.8663    4.8694   27.9238 C   0  0  0  0  0  0  0  0  0  0  0  0
   -9.0491    3.8523   26.2542 C   0  0  0  0  0  0  0  0  0  0  0  0
   -8.6019    5.9544   27.7203 C   0  0  0  0  0  0  0  0  0  0  0  0
   -9.7838    4.9247   26.0626 C   0  0  0  0  0  0  0  0  0  0  0  0
   -9.6083    6.0325   26.8808 C   0  0  0  0  0  0  0  0  0  0  0  0
   -7.0940    2.6762   27.3407 C   0  0  0  0  0  0  0  0  0  0  0  0
   -5.8866    2.7587   28.0174 C   0  0  0  0  0  0  0  0  0  0  0  0
   -5.0498    1.6145   28.1310 C   0  0  0  0  0  0  0  0  0  0  0  0
   -5.5086    0.3839   27.6990 C   0  0  0  0  0  0  0  0  0  0  0  0
   -7.5010    1.4405   26.9053 C   0  0  0  0  0  0  0  0  0  0  0  0
   -6.7593    0.3053   27.1521 C   0  0  0  0  0  0  0  0  0  0  0  0
  1  7  1  0
  7  8  2  0
  8  9  1  0
  9 10  2  0
 10 12  1  0
 12 11  2  0
 11  7  1  0
  1  2  2  0
  2  4  1  0
  4  6  2  0
  6  5  1  0
  5  3  2  0
  3  1  1  0
M  END
$$$$
