No_5875-complexes_sdf/6BKW-FPZ/2024-09-17-14-21-01/
     RDKit          3D

 27 28  0  0  0  0  0  0  0  0999 V2000
   -7.7129    4.2099   27.0854 C   0  0  0  0  0  0  0  0  0  0  0  0
   -7.7814    5.1722   27.8972 C   0  0  0  0  0  0  0  0  0  0  0  0
   -8.8998    3.8713   26.3707 C   0  0  0  0  0  0  0  0  0  0  0  0
   -8.9563    2.6796   25.5490 C   0  0  0  0  0  0  0  0  0  0  0  0
   -8.8131    6.1334   27.9344 C   0  0  0  0  0  0  0  0  0  0  0  0
   -9.9804    5.8121   27.1929 C   0  0  0  0  0  0  0  0  0  0  0  0
   -9.9861    4.6836   26.4532 C   0  0  0  0  0  0  0  0  0  0  0  0
   -9.6412    2.6088   24.5241 O   0  0  0  0  0  0  0  0  0  0  0  0
   -8.1923    1.6655   25.8857 O   0  0  0  0  0  0  0  0  0  0  0  0
   -8.3654    0.4283   25.3013 C   0  0  0  0  0  0  0  0  0  0  0  0
   -7.2987   -0.3824   25.4255 C   0  0  0  0  0  0  0  0  0  0  0  0
   -7.3692   -1.4714   26.0325 C   0  0  0  0  0  0  0  0  0  0  0  0
   -8.6163   -2.1262   26.2367 C   0  0  0  0  0  0  0  0  0  0  0  0
   -9.7531   -1.2384   26.1209 C   0  0  0  0  0  0  0  0  0  0  0  0
   -9.5909   -0.1546   25.3859 C   0  0  0  0  0  0  0  0  0  0  0  0
   -6.6480    5.4426   28.6209 O   0  0  0  0  0  0  0  0  0  0  0  0
  -11.1078   -1.8294   26.3509 C   0  0  0  0  0  0  0  0  0  0  0  0
  -11.8352   -1.3418   27.2609 C   0  0  0  0  0  0  0  0  0  0  0  0
  -11.3154   -0.1857   28.1065 C   0  0  0  0  0  0  0  0  0  0  0  0
  -12.0662    0.8150   28.4467 C   0  0  0  0  0  0  0  0  0  0  0  0
  -13.4589    0.6568   28.6442 C   0  0  0  0  0  0  0  0  0  0  0  0
  -14.0137   -0.4780   27.9901 C   0  0  0  0  0  0  0  0  0  0  0  0
  -13.2636   -1.3277   27.3086 C   0  0  1  0  0  0  0  0  0  0  0  0
  -11.8339   -2.2544   28.3303 C   0  0  0  0  0  0  0  0  0  0  0  0
  -13.9286   -2.3486   26.5838 C   0  0  0  0  0  0  0  0  0  0  0  0
  -12.9422   -0.5582   26.4909 O   0  0  0  0  0  0  0  0  0  0  0  0
  -13.5866    0.4331   26.1393 C   0  0  0  0  0  0  0  0  0  0  0  0
  3  4  1  0
  4  8  2  0
  4  9  1  0
  9 10  1  0
  2 16  1  0
 14 17  1  0
 17 18  2  3
 18 19  1  0
 19 20  2  3
 20 21  1  0
 21 22  2  3
 22 23  1  0
 18 24  1  0
 23 25  1  6
 23 26  1  0
 26 27  1  0
  1  2  2  0
  2  5  1  0
  5  6  2  0
  6  7  1  0
  7  3  2  0
  3  1  1  0
 10 11  2  0
 11 12  1  0
 12 13  2  0
 13 14  1  0
 14 15  2  0
 15 10  1  0
M  END
$$$$
