No_5134-complexes_sdf/6BKW-FPZ/2024-09-17-14-21-01/
     RDKit          3D

 32 34  0  0  0  0  0  0  0  0999 V2000
   -7.9040    3.9820   27.1177 C   0  0  0  0  0  0  0  0  0  0  0  0
   -8.2057    2.8231   26.8733 C   0  0  0  0  0  0  0  0  0  0  0  0
   -8.7695    5.0740   26.7916 C   0  0  0  0  0  0  0  0  0  0  0  0
   -8.4337    6.4678   27.0913 C   0  0  0  0  0  0  0  0  0  0  0  0
   -9.3742    2.4311   26.2346 C   0  0  0  0  0  0  0  0  0  0  0  0
  -10.2395    3.4267   25.8887 C   0  0  0  0  0  0  0  0  0  0  0  0
   -9.9567    4.7548   26.1374 C   0  0  0  0  0  0  0  0  0  0  0  0
   -7.8894    6.9001   28.1379 N   0  0  0  0  0  0  0  0  0  0  0  0
   -8.7733    7.4068   26.1720 N   0  0  0  0  0  0  0  0  0  0  0  0
   -7.2482    1.6795   27.2786 C   0  0  0  0  0  0  0  0  0  0  0  0
   -7.5710    0.3945   27.1907 N   0  0  0  0  0  0  0  0  0  0  0  0
   -6.2016    2.0456   27.9354 O   0  0  0  0  0  0  0  0  0  0  0  0
   -6.6589   -0.6671   27.5847 C   0  0  0  0  0  0  0  0  0  0  0  0
   -6.1737   -1.1961   26.8588 C   0  0  0  0  0  0  0  0  0  0  0  0
   -5.0687   -2.1165   27.1577 C   0  0  0  0  0  0  0  0  0  0  0  0
   -4.7712   -2.3811   28.5046 C   0  0  0  0  0  0  0  0  0  0  0  0
   -5.5061   -1.6238   29.4630 C   0  0  0  0  0  0  0  0  0  0  0  0
   -6.4041   -0.6931   29.0697 C   0  0  0  0  0  0  0  0  0  0  0  0
   -5.1890   -1.7149   30.9397 C   0  0  1  0  0  0  0  0  0  0  0  0
   -6.0848   -2.2804   31.8065 C   0  0  0  0  0  0  0  0  0  0  0  0
   -6.9640   -2.9667   31.6610 C   0  0  0  0  0  0  0  0  0  0  0  0
   -7.8872   -3.1501   32.2549 C   0  0  0  0  0  0  0  0  0  0  0  0
   -7.8979   -2.8260   33.7179 C   0  0  0  0  0  0  0  0  0  0  0  0
   -6.8314   -2.0940   34.1387 C   0  0  0  0  0  0  0  0  0  0  0  0
   -5.9225   -1.6789   33.1991 C   0  0  0  0  0  0  0  0  0  0  0  0
   -3.8215   -1.2878   31.2714 C   0  0  0  0  0  0  0  0  0  0  0  0
   -3.0101   -0.6641   30.4036 C   0  0  0  0  0  0  0  0  0  0  0  0
   -3.3761   -1.6017   32.6141 C   0  0  0  0  0  0  0  0  0  0  0  0
   -2.2084   -1.1855   32.9935 C   0  0  0  0  0  0  0  0  0  0  0  0
   -1.7974   -1.4799   34.3309 C   0  0  0  0  0  0  0  0  0  0  0  0
   -2.6114   -2.0809   35.1719 C   0  0  0  0  0  0  0  0  0  0  0  0
   -3.8030   -2.5634   34.7543 C   0  0  0  0  0  0  0  0  0  0  0  0
  3  4  1  0
  4  8  2  0
  4  9  1  0
  2 10  1  0
 10 11  1  0
 10 12  2  0
 11 13  1  0
 17 19  1  0
 19 20  1  0
 19 26  1  6
 26 27  1  0
 26 28  1  0
 28 29  2  3
 29 30  1  0
 30 31  2  3
 31 32  1  0
 13 14  2  0
 14 15  1  0
 15 16  2  0
 16 17  1  0
 17 18  2  0
 18 13  1  0
  1  2  2  0
  2  5  1  0
  5  6  2  0
  6  7  1  0
  7  3  2  0
  3  1  1  0
 20 21  2  0
 21 22  1  0
 22 23  2  0
 23 24  1  0
 24 25  2  0
 25 20  1  0
M  END
$$$$
