No_5879-complexes_sdf/6BKW-FPZ/2024-09-17-14-21-01/
     RDKit          3D

 20 22  0  0  0  0  0  0  0  0999 V2000
   -7.9040    3.9820   27.1177 C   0  0  0  0  0  0  0  0  0  0  0  0
   -7.8663    4.8694   27.9238 C   0  0  0  0  0  0  0  0  0  0  0  0
   -9.0491    3.8523   26.2542 C   0  0  0  0  0  0  0  0  0  0  0  0
   -8.7661    5.9491   27.9690 C   0  0  0  0  0  0  0  0  0  0  0  0
   -9.1798    2.6731   25.4786 C   0  0  0  0  0  0  0  0  0  0  0  0
   -9.8964    5.8854   27.1460 C   0  0  0  0  0  0  0  0  0  0  0  0
   -9.9958    4.8034   26.3470 C   0  0  0  0  0  0  0  0  0  0  0  0
   -8.6595    1.4511   25.8687 C   0  0  0  0  0  0  0  0  0  0  0  0
   -9.6988    2.8049   24.0965 C   0  0  0  0  0  0  0  0  0  0  0  0
   -8.1924    1.2755   27.1863 C   0  0  0  0  0  0  0  0  0  0  0  0
   -9.8918    1.6724   23.2947 C   0  0  0  0  0  0  0  0  0  0  0  0
   -9.3595    0.4183   23.7981 C   0  0  0  0  0  0  0  0  0  0  0  0
   -8.8182    0.3290   25.0161 C   0  0  0  0  0  0  0  0  0  0  0  0
   -7.3707   -0.0069   27.2314 C   0  0  0  0  0  0  0  0  0  0  0  0
   -7.6455   -1.0780   26.6222 C   0  0  0  0  0  0  0  0  0  0  0  0
   -8.2257   -0.9213   25.3326 C   0  0  0  0  0  0  0  0  0  0  0  0
   -8.2751   -2.0583   24.4490 C   0  0  0  0  0  0  0  0  0  0  0  0
   -8.4920   -3.0062   24.0628 C   0  0  0  0  0  0  0  0  0  0  0  0
   -8.7876   -4.2309   23.5205 C   0  0  0  0  0  0  0  0  0  0  0  0
   -8.5731   -5.1091   22.7786 Br  0  0  0  0  0  0  0  0  0  0  0  0
  3  5  1  0
 16 17  1  0
 17 18  3  0
 18 19  1  0
 19 20  1  0
  8 10  1  0
 10 14  2  0
 14 15  1  0
 15 16  2  0
 16 13  1  0
  1  2  2  0
  2  4  1  0
  4  6  2  0
  6  7  1  0
  7  3  2  0
  3  1  1  0
  5  8  2  0
  8 13  1  0
 13 12  2  0
 12 11  1  0
 11  9  2  0
  9  5  1  0
M  END
$$$$
