No_5241-complexes_sdf/6BKW-FPZ/2024-09-17-14-21-01/
     RDKit          3D

 40 45  0  0  0  0  0  0  0  0999 V2000
   -7.9040    3.9820   27.1177 C   0  0  0  0  0  0  0  0  0  0  0  0
   -7.8663    4.8694   27.9238 C   0  0  0  0  0  0  0  0  0  0  0  0
   -9.0501    3.8017   26.2617 C   0  0  0  0  0  0  0  0  0  0  0  0
  -10.0189    4.7608   26.3707 C   0  0  0  0  0  0  0  0  0  0  0  0
   -8.6770    5.9780   27.9222 C   0  0  0  0  0  0  0  0  0  0  0  0
   -9.8040    5.8752   27.0958 C   0  0  0  0  0  0  0  0  0  0  0  0
   -9.1484    2.6214   25.4213 C   0  0  0  0  0  0  0  0  0  0  0  0
  -10.0295    2.6889   24.3385 C   0  0  1  0  0  0  0  0  0  0  0  0
  -10.7604    3.8422   24.0810 C   0  0  0  0  0  0  0  0  0  0  0  0
  -10.8762    4.8066   25.2154 N   0  0  0  0  0  0  0  0  0  0  0  0
  -10.0677    1.6498   23.3504 C   0  0  0  0  0  0  0  0  0  0  0  0
  -10.5281    1.8836   22.0880 C   0  0  0  0  0  0  0  0  0  0  0  0
  -10.5708    0.8577   21.1685 C   0  0  0  0  0  0  0  0  0  0  0  0
  -10.0245   -0.3939   21.4520 C   0  0  0  0  0  0  0  0  0  0  0  0
   -9.4560   -0.6187   22.6959 C   0  0  0  0  0  0  0  0  0  0  0  0
   -9.4424    0.3711   23.6748 C   0  0  0  0  0  0  0  0  0  0  0  0
  -11.5897    4.0753   23.2137 O   0  0  0  0  0  0  0  0  0  0  0  0
   -6.7600    2.6324   27.2553 Cl  0  0  0  0  0  0  0  0  0  0  0  0
  -10.0433   -1.4223   20.4217 C   0  0  0  0  0  0  0  0  0  0  0  0
   -9.0503   -2.1268   20.1897 N   0  0  0  0  0  0  0  0  0  0  0  0
   -8.7048   -2.7248   19.0407 C   0  0  0  0  0  0  0  0  0  0  0  0
   -9.2837   -2.3690   17.9862 C   0  0  0  0  0  0  0  0  0  0  0  0
  -10.4488   -1.5241   18.0985 C   0  0  0  0  0  0  0  0  0  0  0  0
  -10.6947   -0.9258   19.2803 C   0  0  0  0  0  0  0  0  0  0  0  0
   -7.6385   -3.5997   19.0241 N   0  0  0  0  0  0  0  0  0  0  0  0
   -6.9348   -3.8735   20.1774 C   0  0  0  0  0  0  0  0  0  0  0  0
   -7.2015   -4.1505   17.8187 C   0  0  0  0  0  0  0  0  0  0  0  0
   -5.7691   -3.4271   20.3630 C   0  0  0  0  0  0  0  0  0  0  0  0
   -5.2747   -3.1529   21.6764 C   0  0  0  0  0  0  0  0  0  0  0  0
   -6.0471   -3.5236   22.8350 C   0  0  0  0  0  0  0  0  0  0  0  0
   -5.5740   -3.2492   24.0889 C   0  0  0  0  0  0  0  0  0  0  0  0
   -6.2910   -2.5579   24.8700 C   0  0  0  0  0  0  0  0  0  0  0  0
   -5.7253   -1.6496   25.8232 C   0  0  0  0  0  0  0  0  0  0  0  0
   -4.3294   -1.7838   26.1872 C   0  0  0  0  0  0  0  0  0  0  0  0
   -3.5733   -2.6212   25.3757 C   0  0  0  0  0  0  0  0  0  0  0  0
   -4.1715   -3.2460   24.3357 C   0  0  0  0  0  0  0  0  0  0  0  0
   -7.3109   -4.0337   22.5726 C   0  0  0  0  0  0  0  0  0  0  0  0
   -7.8079   -4.1640   21.2543 C   0  0  0  0  0  0  0  0  0  0  0  0
   -6.5999   -5.3082   17.8693 C   0  0  0  0  0  0  0  0  0  0  0  0
   -6.0970   -5.7822   16.7337 C   0  0  0  0  0  0  0  0  0  0  0  0
  3  7  1  0
  8  9  1  0
  4 10  1  0
  9 10  1  0
  8 11  1  6
  9 17  2  0
  1 18  1  0
 14 19  1  0
 21 25  1  0
 25 26  1  0
 25 27  1  0
 30 31  1  0
 27 39  1  0
 39 40  2  0
  8  7  1  0
 26 28  2  0
 28 29  1  0
 29 30  2  0
 30 37  1  0
 37 38  2  0
 38 26  1  0
 31 32  2  0
 32 33  1  0
 33 34  2  0
 34 35  1  0
 35 36  2  0
 36 31  1  0
 19 20  2  0
 20 21  1  0
 21 22  2  0
 22 23  1  0
 23 24  2  0
 24 19  1  0
 11 12  2  0
 12 13  1  0
 13 14  2  0
 14 15  1  0
 15 16  2  0
 16 11  1  0
  1  2  2  0
  2  5  1  0
  5  6  2  0
  6  4  1  0
  4  3  2  0
  3  1  1  0
M  END
$$$$
