No_5942-complexes_sdf/6BKW-FPZ/2024-09-17-14-21-01/
     RDKit          3D

 34 38  0  0  0  0  0  0  0  0999 V2000
   -7.2496    3.8871   27.4508 C   0  0  0  0  0  0  0  0  0  0  0  0
   -7.9379    4.9063   27.8518 C   0  0  0  0  0  0  0  0  0  0  0  0
   -8.7729    5.5444   27.0168 C   0  0  0  0  0  0  0  0  0  0  0  0
   -7.7708    3.0049   26.4155 C   0  0  0  0  0  0  0  0  0  0  0  0
   -9.4150    4.8195   25.9760 C   0  0  0  0  0  0  0  0  0  0  0  0
   -8.8843    3.5312   25.7385 C   0  0  0  0  0  0  0  0  0  0  0  0
   -9.3387    2.6983   24.6197 C   0  0  0  0  0  0  0  0  0  0  0  0
  -10.2240    3.2528   23.7089 C   0  0  0  0  0  0  0  0  0  0  0  0
  -10.7460    2.4668   22.6844 C   0  0  0  0  0  0  0  0  0  0  0  0
  -10.2050    1.1298   22.5227 C   0  0  0  0  0  0  0  0  0  0  0  0
   -9.3178    0.6189   23.4493 C   0  0  0  0  0  0  0  0  0  0  0  0
   -8.8701    1.4015   24.4750 C   0  0  0  0  0  0  0  0  0  0  0  0
   -6.2160    3.3041   28.1470 O   0  0  0  0  0  0  0  0  0  0  0  0
   -8.8344   -0.7587   23.2659 C   0  0  0  0  0  0  0  0  0  0  0  0
   -7.6850   -1.0989   23.6239 C   0  0  0  0  0  0  0  0  0  0  0  0
   -7.1734   -2.4711   23.5571 C   0  0  0  0  0  0  0  0  0  0  0  0
   -7.9236   -3.3101   22.8487 C   0  0  0  0  0  0  0  0  0  0  0  0
   -9.5807   -1.7119   22.5984 C   0  0  0  0  0  0  0  0  0  0  0  0
   -9.1490   -2.9603   22.3564 C   0  0  0  0  0  0  0  0  0  0  0  0
   -5.6764    2.1394   27.8602 C   0  0  0  0  0  0  0  0  0  0  0  0
   -6.3360    0.9502   27.8553 C   0  0  0  0  0  0  0  0  0  0  0  0
   -5.6793   -0.2603   27.6772 C   0  0  0  0  0  0  0  0  0  0  0  0
   -6.4471   -1.4683   27.5972 C   0  0  0  0  0  0  0  0  0  0  0  0
   -7.8606   -1.2974   27.5698 C   0  0  0  0  0  0  0  0  0  0  0  0
   -8.5147   -0.1196   27.6453 C   0  0  0  0  0  0  0  0  0  0  0  0
   -7.7381    1.0564   27.7901 C   0  0  0  0  0  0  0  0  0  0  0  0
   -7.3459    2.1130   25.9889 F   0  0  0  0  0  0  0  0  0  0  0  0
   -8.2621    1.8420   27.2875 F   0  0  0  0  0  0  0  0  0  0  0  0
   -8.4854   -2.6552   27.3666 C   0  0  0  0  0  0  0  0  0  0  0  0
   -9.7905   -2.6422   27.0123 C   0  0  0  0  0  0  0  0  0  0  0  0
  -10.4488   -3.8864   26.7186 C   0  0  0  0  0  0  0  0  0  0  0  0
   -9.6810   -5.0290   26.7519 C   0  0  0  0  0  0  0  0  0  0  0  0
   -7.8834   -3.8467   27.2094 C   0  0  0  0  0  0  0  0  0  0  0  0
   -8.4102   -5.0070   26.9741 C   0  0  0  0  0  0  0  0  0  0  0  0
  6  7  1  0
  1 13  1  0
 11 14  1  0
 13 20  1  0
  4 27  1  0
 26 28  1  0
 24 29  1  0
 20 21  1  0
  1  2  2  0
  2  3  1  0
  3  5  2  0
  5  6  1  0
  6  4  2  0
  4  1  1  0
 29 30  2  0
 30 31  1  0
 31 32  2  0
 32 34  1  0
 34 33  2  0
 33 29  1  0
  7  8  2  0
  8  9  1  0
  9 10  2  0
 10 11  1  0
 11 12  2  0
 12  7  1  0
 14 15  2  0
 15 16  1  0
 16 17  2  0
 17 19  1  0
 19 18  2  0
 18 14  1  0
 21 22  2  0
 22 23  1  0
 23 24  2  0
 24 25  1  0
 25 26  2  0
 26 21  1  0
M  END
$$$$
