No_5042-complexes_sdf/6BKW-FPZ/2024-09-17-14-21-01/
     RDKit          3D

 31 34  0  0  0  0  0  0  0  0999 V2000
   -7.7129    4.2099   27.0854 C   0  0  0  0  0  0  0  0  0  0  0  0
   -8.2112    3.0637   26.9225 C   0  0  0  0  0  0  0  0  0  0  0  0
   -9.4446    2.8304   26.1868 C   0  0  0  0  0  0  0  0  0  0  0  0
   -8.4697    5.3956   26.7238 C   0  0  0  0  0  0  0  0  0  0  0  0
   -9.6172    5.2111   25.9513 C   0  0  0  0  0  0  0  0  0  0  0  0
  -10.0424    3.9782   25.6873 C   0  0  0  0  0  0  0  0  0  0  0  0
   -7.5056    1.8167   27.4088 C   0  0  0  0  0  0  0  0  0  0  0  0
   -6.1365    1.8782   27.7502 C   0  0  0  0  0  0  0  0  0  0  0  0
   -5.4402    0.7398   28.2080 C   0  0  0  0  0  0  0  0  0  0  0  0
   -6.0836   -0.4843   28.1647 C   0  0  0  0  0  0  0  0  0  0  0  0
   -8.0402    0.5377   27.3754 C   0  0  0  0  0  0  0  0  0  0  0  0
   -7.4090   -0.5410   27.8089 C   0  0  0  0  0  0  0  0  0  0  0  0
   -7.9626    6.7387   27.0503 C   0  0  0  0  0  0  0  0  0  0  0  0
   -8.5313    7.8184   26.6519 O   0  0  0  0  0  0  0  0  0  0  0  0
   -6.9343    6.7796   27.8875 O   0  0  0  0  0  0  0  0  0  0  0  0
   -4.0171    0.9117   28.6276 C   0  0  0  0  0  0  0  0  0  0  0  0
   -3.2646    1.3476   27.8892 O   0  0  0  0  0  0  0  0  0  0  0  0
   -3.6890    0.4513   29.8273 O   0  0  0  0  0  0  0  0  0  0  0  0
  -11.2459    3.8286   24.8337 C   0  0  0  0  0  0  0  0  0  0  0  0
  -11.1769    2.9881   23.7714 C   0  0  0  0  0  0  0  0  0  0  0  0
  -11.0604    1.7796   23.8421 C   0  0  0  0  0  0  0  0  0  0  0  0
  -10.9505    0.8730   22.6824 C   0  0  0  0  0  0  0  0  0  0  0  0
  -11.0123    1.5122   21.4250 C   0  0  0  0  0  0  0  0  0  0  0  0
  -11.0828    2.8765   21.3303 C   0  0  0  0  0  0  0  0  0  0  0  0
  -11.1640    3.6881   22.4282 C   0  0  0  0  0  0  0  0  0  0  0  0
   -8.1206   -1.8388   27.8594 C   0  0  0  0  0  0  0  0  0  0  0  0
   -7.8110   -2.8225   28.1852 C   0  0  0  0  0  0  0  0  0  0  0  0
   -8.6260   -4.0517   28.2834 C   0  0  0  0  0  0  0  0  0  0  0  0
   -9.9308   -3.9054   27.8578 C   0  0  0  0  0  0  0  0  0  0  0  0
  -10.3907   -2.6832   27.4216 C   0  0  0  0  0  0  0  0  0  0  0  0
   -9.5643   -1.5980   27.4485 C   0  0  0  0  0  0  0  0  0  0  0  0
  2  7  1  0
  4 13  1  0
 13 14  2  0
 13 15  1  0
  9 16  1  0
 16 17  2  0
 16 18  1  0
  6 19  1  0
 19 20  1  0
 12 26  1  0
  7  8  2  0
  8  9  1  0
  9 10  2  0
 10 12  1  0
 12 11  2  0
 11  7  1  0
  1  2  2  0
  2  3  1  0
  3  6  2  0
  6  5  1  0
  5  4  2  0
  4  1  1  0
 20 21  2  0
 21 22  1  0
 22 23  2  0
 23 24  1  0
 24 25  2  0
 25 20  1  0
 26 27  2  0
 27 28  1  0
 28 29  2  0
 29 30  1  0
 30 31  2  0
 31 26  1  0
M  END
$$$$
