No_5534-complexes_sdf/6BKW-FPZ/2024-09-17-14-21-01/
     RDKit          3D

 21 22  0  0  0  0  0  0  0  0999 V2000
   -7.7129    4.2099   27.0854 C   0  0  0  0  0  0  0  0  0  0  0  0
   -8.2112    3.0637   26.9225 C   0  0  0  0  0  0  0  0  0  0  0  0
   -8.5108    5.3904   26.9436 C   0  0  0  0  0  0  0  0  0  0  0  0
   -9.7256    5.1955   26.3518 C   0  0  0  0  0  0  0  0  0  0  0  0
   -9.4995    2.8258   26.4878 C   0  0  0  0  0  0  0  0  0  0  0  0
  -10.2542    3.9691   26.2055 C   0  0  0  0  0  0  0  0  0  0  0  0
   -7.9384    6.6116   27.1768 O   0  0  0  0  0  0  0  0  0  0  0  0
   -7.3651    1.8259   27.2504 C   0  0  0  0  0  0  0  0  0  0  0  0
   -6.0592    2.0067   27.7271 C   0  0  0  0  0  0  0  0  0  0  0  0
   -5.2545    0.8510   28.0594 C   0  0  0  0  0  0  0  0  0  0  0  0
   -5.7664   -0.4060   27.9365 C   0  0  0  0  0  0  0  0  0  0  0  0
   -7.9304    0.5308   27.1689 C   0  0  0  0  0  0  0  0  0  0  0  0
   -7.1308   -0.5447   27.5511 C   0  0  0  0  0  0  0  0  0  0  0  0
   -3.6526    1.1226   28.5879 Cl  0  0  0  0  0  0  0  0  0  0  0  0
   -8.2858    7.7554   26.5258 C   0  0  0  0  0  0  0  0  0  0  0  0
  -11.5852    3.8225   25.5964 C   0  0  0  0  0  0  0  0  0  0  0  0
  -11.9927    4.2268   24.7759 C   0  0  0  0  0  0  0  0  0  0  0  0
  -13.3625    4.1308   24.1955 C   0  0  0  0  0  0  0  0  0  0  0  0
  -13.8136    4.7623   23.0870 C   0  0  0  0  0  0  0  0  0  0  0  0
  -12.4671    2.9445   26.4400 C   0  0  0  0  0  0  0  0  0  0  0  0
  -13.7832    2.8278   26.0849 C   0  0  0  0  0  0  0  0  0  0  0  0
  3  7  1  0
  2  8  1  0
 10 14  1  0
  7 15  1  0
  6 16  1  0
 16 17  1  0
 17 18  2  3
 18 19  1  0
 16 20  1  0
 20 21  2  0
  1  2  2  0
  2  5  1  0
  5  6  2  0
  6  4  1  0
  4  3  2  0
  3  1  1  0
  8  9  2  0
  9 10  1  0
 10 11  2  0
 11 13  1  0
 13 12  2  0
 12  8  1  0
M  END
$$$$
