No_5893-complexes_sdf/6BKW-FPZ/2024-09-17-14-21-01/
     RDKit          3D

 33 36  0  0  0  0  0  0  0  0999 V2000
   -7.7129    4.2099   27.0854 C   0  0  0  0  0  0  0  0  0  0  0  0
   -8.2112    3.0637   26.9225 C   0  0  0  0  0  0  0  0  0  0  0  0
   -8.5108    5.3904   26.9436 C   0  0  0  0  0  0  0  0  0  0  0  0
   -9.7256    5.1955   26.3518 C   0  0  0  0  0  0  0  0  0  0  0  0
   -9.4995    2.8258   26.4878 C   0  0  0  0  0  0  0  0  0  0  0  0
  -10.2542    3.9691   26.2055 C   0  0  0  0  0  0  0  0  0  0  0  0
   -7.8124    6.9180   27.2380 Cl  0  0  0  0  0  0  0  0  0  0  0  0
   -7.2077    1.6453   27.3224 Cl  0  0  0  0  0  0  0  0  0  0  0  0
  -11.4789    3.8299   25.6926 F   0  0  0  0  0  0  0  0  0  0  0  0
  -10.0201    1.4714   26.2523 C   0  0  0  0  0  0  0  0  0  0  0  0
  -10.9038    1.1829   25.3647 C   0  0  0  0  0  0  0  0  0  0  0  0
  -11.3458   -0.1525   25.1982 C   0  0  0  0  0  0  0  0  0  0  0  0
  -10.8596   -1.1196   26.0991 C   0  0  0  0  0  0  0  0  0  0  0  0
   -9.9668   -0.8072   27.0901 C   0  0  0  0  0  0  0  0  0  0  0  0
   -9.5472    0.4632   27.2462 C   0  0  0  0  0  0  0  0  0  0  0  0
   -9.5936   -1.8510   28.0839 C   0  0  1  0  0  0  0  0  0  0  0  0
   -8.3416   -1.9624   28.3519 N   0  0  0  0  0  0  0  0  0  0  0  0
   -7.8244   -2.6159   29.4555 C   0  0  0  0  0  0  0  0  0  0  0  0
   -8.5168   -3.2132   30.3151 C   0  0  0  0  0  0  0  0  0  0  0  0
  -10.8450   -2.4141   29.0957 Cl  0  0  0  0  0  0  0  0  0  0  0  0
   -6.3298   -2.6209   29.4709 C   0  0  0  0  0  0  0  0  0  0  0  0
   -5.7131   -3.1758   30.6109 C   0  0  0  0  0  0  0  0  0  0  0  0
   -7.8404   -3.7661   31.5317 C   0  0  0  0  0  0  0  0  0  0  0  0
   -4.2181   -3.0928   30.7108 C   0  0  0  0  0  0  0  0  0  0  0  0
   -6.4180   -3.7026   31.6424 C   0  0  0  0  0  0  0  0  0  0  0  0
   -3.5540   -3.3707   29.7745 C   0  0  0  0  0  0  0  0  0  0  0  0
   -2.0862   -3.0640   29.8055 C   0  0  0  0  0  0  0  0  0  0  0  0
   -1.6797   -2.0353   29.9893 C   0  0  0  0  0  0  0  0  0  0  0  0
   -2.4830   -1.1855   31.0401 C   0  0  0  0  0  0  0  0  0  0  0  0
   -3.8524   -1.5896   31.2214 C   0  0  0  0  0  0  0  0  0  0  0  0
   -4.6546   -0.8008   32.1567 C   0  0  0  0  0  0  0  0  0  0  0  0
   -5.0831    0.2785   31.7140 N   0  0  0  0  0  0  0  0  0  0  0  0
   -4.9774   -1.3474   33.2639 O   0  0  0  0  0  0  0  0  0  0  0  0
  3  7  1  0
  2  8  1  0
  6  9  1  0
  5 10  1  0
 14 16  1  0
 16 17  1  0
 17 18  1  0
 16 20  1  1
 22 24  1  0
 30 31  1  0
 31 32  1  0
 31 33  2  0
 18 19  2  0
 19 23  1  0
 23 25  2  0
 25 22  1  0
 22 21  2  0
 21 18  1  0
 24 26  2  0
 26 27  1  0
 27 28  2  0
 28 29  1  0
 29 30  2  0
 30 24  1  0
  1  2  2  0
  2  5  1  0
  5  6  2  0
  6  4  1  0
  4  3  2  0
  3  1  1  0
 10 11  2  0
 11 12  1  0
 12 13  2  0
 13 14  1  0
 14 15  2  0
 15 10  1  0
M  END
$$$$
