No_5472-complexes_sdf/6BKW-FPZ/2024-09-17-14-21-01/
     RDKit          3D

 26 28  0  0  0  0  0  0  0  0999 V2000
   -7.2496    3.8871   27.4508 C   0  0  0  0  0  0  0  0  0  0  0  0
   -7.6161    2.7143   27.1523 C   0  0  0  0  0  0  0  0  0  0  0  0
   -8.6212    2.2239   26.4074 C   0  0  0  0  0  0  0  0  0  0  0  0
   -8.2540    4.9237   27.1711 C   0  0  0  0  0  0  0  0  0  0  0  0
   -9.3729    4.5806   26.4433 C   0  0  0  0  0  0  0  0  0  0  0  0
   -9.5686    3.1037   26.1337 C   0  0  0  0  0  0  0  0  0  0  0  0
   -7.9877    6.2214   27.4792 N   0  0  0  0  0  0  0  0  0  0  0  0
   -8.6363    0.7850   26.1588 C   0  0  0  0  0  0  0  0  0  0  0  0
   -9.4153    0.2922   25.3783 C   0  0  0  0  0  0  0  0  0  0  0  0
   -9.4758   -1.1246   25.0660 C   0  0  0  0  0  0  0  0  0  0  0  0
   -8.5993   -1.9230   25.7571 C   0  0  0  0  0  0  0  0  0  0  0  0
   -7.7340   -1.4260   26.6651 C   0  0  0  0  0  0  0  0  0  0  0  0
   -7.6930   -0.0514   26.9470 C   0  0  0  0  0  0  0  0  0  0  0  0
   -8.8380    7.2788   27.0827 C   0  0  0  0  0  0  0  0  0  0  0  0
   -6.7970   -2.2487   27.4904 C   0  0  2  0  0  0  0  0  0  0  0  0
   -7.2291   -2.7872   28.5519 C   0  0  0  0  0  0  0  0  0  0  0  0
   -7.1964   -2.4948   29.5916 C   0  0  0  0  0  0  0  0  0  0  0  0
   -7.6262   -3.1648   30.8984 C   0  0  0  0  0  0  0  0  0  0  0  0
   -8.4292   -4.2470   30.7024 C   0  0  0  0  0  0  0  0  0  0  0  0
   -8.6030   -4.6860   29.3987 C   0  0  0  0  0  0  0  0  0  0  0  0
   -8.0952   -4.0190   28.3306 C   0  0  0  0  0  0  0  0  0  0  0  0
   -5.4090   -2.2179   27.1420 C   0  0  0  0  0  0  0  0  0  0  0  0
   -4.4902   -1.6991   27.9795 C   0  0  0  0  0  0  0  0  0  0  0  0
   -4.8141   -0.9871   29.2160 C   0  0  0  0  0  0  0  0  0  0  0  0
   -3.7772   -0.3091   29.9804 C   0  0  0  0  0  0  0  0  0  0  0  0
   -3.9861    0.3983   31.1709 C   0  0  0  0  0  0  0  0  0  0  0  0
  4  7  1  0
  3  8  1  0
  7 14  1  0
 15 12  1  1
 15 16  1  0
 15 22  1  0
 22 23  2  3
 23 24  1  0
 24 25  2  3
 25 26  1  0
  1  2  2  0
  2  3  1  0
  3  6  2  0
  6  5  1  0
  5  4  2  0
  4  1  1  0
  8  9  2  0
  9 10  1  0
 10 11  2  0
 11 12  1  0
 12 13  2  0
 13  8  1  0
 16 17  2  0
 17 18  1  0
 18 19  2  0
 19 20  1  0
 20 21  2  0
 21 16  1  0
M  END
$$$$
