No_5259-complexes_sdf/6BKW-FPZ/2024-09-17-14-21-01/
     RDKit          3D

 15 17  0  0  0  0  0  0  0  0999 V2000
   -7.2496    3.8871   27.4508 C   0  0  0  0  0  0  0  0  0  0  0  0
   -7.6161    2.7143   27.1523 C   0  0  0  0  0  0  0  0  0  0  0  0
   -8.6212    2.2239   26.4073 C   0  0  0  0  0  0  0  0  0  0  0  0
   -8.1953    4.9310   27.1292 C   0  0  0  0  0  0  0  0  0  0  0  0
   -9.3500    4.6042   26.4181 C   0  0  0  0  0  0  0  0  0  0  0  0
   -9.5766    3.2803   26.0949 C   0  0  0  0  0  0  0  0  0  0  0  0
   -8.1255    6.2620   27.4364 N   0  0  0  0  0  0  0  0  0  0  0  0
   -9.1166    7.0539   26.9686 C   0  0  0  0  0  0  0  0  0  0  0  0
   -6.7935    1.4363   27.5003 C   0  0  0  0  0  0  0  0  0  0  0  0
   -7.1718    0.2024   27.3798 C   0  0  0  0  0  0  0  0  0  0  0  0
   -8.3692   -0.0585   26.7241 C   0  0  0  0  0  0  0  0  0  0  0  0
   -9.1079    0.9800   26.2021 C   0  0  0  0  0  0  0  0  0  0  0  0
  -10.0987    5.6615   26.0002 C   0  0  0  0  0  0  0  0  0  0  0  0
  -10.0111    6.8553   26.1976 C   0  0  0  0  0  0  0  0  0  0  0  0
   -5.2698    1.7165   28.4176 Cl  0  0  0  0  0  0  0  0  0  0  0  0
  4  7  1  0
  7  8  1  0
  5 13  1  0
  8 14  1  0
 13 14  1  0
  9 15  1  0
  1  2  2  0
  3  6  2  0
  6  5  1  0
  5  4  2  0
  4  1  1  0
  2  3  1  0
  3 12  1  0
 12 11  2  0
 11 10  1  0
 10  9  2  0
  9  2  1  0
M  END
$$$$
