No_5157-complexes_sdf/6BKW-FPZ/2024-09-17-14-21-01/
     RDKit          3D

 20 21  0  0  0  0  0  0  0  0999 V2000
   -7.9040    3.9820   27.1177 C   0  0  0  0  0  0  0  0  0  0  0  0
   -9.0711    4.3164   27.0630 C   0  0  0  0  0  0  0  0  0  0  0  0
   -9.8698    3.9665   25.9494 C   0  0  0  0  0  0  0  0  0  0  0  0
   -7.4046    2.7946   26.4568 C   0  0  0  0  0  0  0  0  0  0  0  0
   -8.3659    2.1310   25.6816 C   0  0  0  0  0  0  0  0  0  0  0  0
   -9.5390    2.7825   25.4030 C   0  0  0  0  0  0  0  0  0  0  0  0
   -6.7759    4.6875   28.2951 Cl  0  0  0  0  0  0  0  0  0  0  0  0
  -10.3529    2.0037   24.4153 C   0  0  0  0  0  0  0  0  0  0  0  0
  -10.8865    2.6079   23.3638 C   0  0  0  0  0  0  0  0  0  0  0  0
  -11.6691    1.9228   22.3703 C   0  0  0  0  0  0  0  0  0  0  0  0
  -11.7982    0.5276   22.5490 C   0  0  0  0  0  0  0  0  0  0  0  0
  -10.5342    0.6195   24.3450 C   0  0  0  0  0  0  0  0  0  0  0  0
  -11.1956   -0.0719   23.5063 C   0  0  0  0  0  0  0  0  0  0  0  0
   -9.4823    5.7268   27.6682 C   0  0  2  0  0  0  0  0  0  0  0  0
  -11.2512   -1.3696   23.6565 F   0  0  0  0  0  0  0  0  0  0  0  0
  -10.7758    4.1538   23.1272 C   0  0  0  0  0  0  0  0  0  0  0  0
  -10.8534    4.6992   21.8861 C   0  0  0  0  0  0  0  0  0  0  0  0
  -10.8030    5.7976   28.0147 N   0  0  0  0  0  0  0  0  0  0  0  0
   -8.6997    6.7508   27.7638 N   0  0  0  0  0  0  0  0  0  0  0  0
   -7.4973    6.8052   27.1296 C   0  0  0  0  0  0  0  0  0  0  0  0
  1  7  1  0
  6  8  1  0
  2 14  1  0
 13 15  1  0
  9 16  1  0
 16 17  2  0
 14 18  1  6
 14 19  1  0
 19 20  1  0
  1  2  2  0
  2  3  1  0
  3  6  2  0
  6  5  1  0
  5  4  2  0
  4  1  1  0
  8  9  2  0
  9 10  1  0
 10 11  2  0
 11 13  1  0
 13 12  2  0
 12  8  1  0
M  END
$$$$
