No_5379-complexes_sdf/6BKW-FPZ/2024-09-17-14-21-01/
     RDKit          3D

 18 20  0  0  0  0  0  0  0  0999 V2000
   -7.7129    4.2099   27.0854 C   0  0  0  0  0  0  0  0  0  0  0  0
   -8.9133    4.4736   27.0998 C   0  0  2  0  0  0  0  0  0  0  0  0
   -9.7135    3.9633   26.0300 C   0  0  0  0  0  0  0  0  0  0  0  0
   -6.8655    4.8824   28.1822 C   0  0  0  0  0  0  0  0  0  0  0  0
  -10.8856    4.5824   25.6430 C   0  0  0  0  0  0  0  0  0  0  0  0
   -7.6664    5.7849   28.7962 N   0  0  0  0  0  0  0  0  0  0  0  0
   -8.8934    5.5511   27.9459 C   0  0  0  0  0  0  0  0  0  0  0  0
  -11.7566    4.0566   24.6254 C   0  0  0  0  0  0  0  0  0  0  0  0
  -11.3129    2.8894   23.9740 C   0  0  0  0  0  0  0  0  0  0  0  0
  -10.1595    2.2702   24.3585 C   0  0  0  0  0  0  0  0  0  0  0  0
   -9.3211    2.7782   25.3932 C   0  0  0  0  0  0  0  0  0  0  0  0
  -12.1753    2.3386   22.9344 C   0  0  0  0  0  0  0  0  0  0  0  0
  -13.2488    1.7754   23.0611 C   0  0  0  0  0  0  0  0  0  0  0  0
  -13.7163    1.6194   24.4310 C   0  0  0  0  0  0  0  0  0  0  0  0
  -15.0304    0.9679   24.6495 C   0  0  0  0  0  0  0  0  0  0  0  0
  -15.6738    0.5249   23.5257 C   0  0  0  0  0  0  0  0  0  0  0  0
  -15.2587    0.6592   22.2698 C   0  0  0  0  0  0  0  0  0  0  0  0
  -14.0199    1.2965   22.0088 C   0  0  0  0  0  0  0  0  0  0  0  0
  1  2  1  0
  1  4  1  0
  4  6  2  0
  2  7  1  0
  6  7  1  0
  9 12  1  0
  2  3  1  6
 12 13  1  0
 13 14  2  0
 14 15  1  0
 15 16  2  0
 16 17  1  0
 17 18  2  0
 18 13  1  0
  3  5  2  0
  5  8  1  0
  8  9  2  0
  9 10  1  0
 10 11  2  0
 11  3  1  0
M  END
$$$$
