No_5054-complexes_sdf/6BKW-FPZ/2024-09-17-14-21-01/
     RDKit          3D

 18 19  0  0  0  0  0  0  0  0999 V2000
   -7.2496    3.8871   27.4508 C   0  0  0  0  0  0  0  0  0  0  0  0
   -7.6161    2.7143   27.1523 C   0  0  0  0  0  0  0  0  0  0  0  0
   -8.6212    2.2239   26.4074 C   0  0  0  0  0  0  0  0  0  0  0  0
   -8.2540    4.9237   27.1711 C   0  0  0  0  0  0  0  0  0  0  0  0
   -8.0299    6.2902   27.5027 C   0  0  0  0  0  0  0  0  0  0  0  0
   -9.4433    4.5560   26.5450 C   0  0  0  0  0  0  0  0  0  0  0  0
   -9.6358    3.2653   26.1683 C   0  0  0  0  0  0  0  0  0  0  0  0
   -8.8849    7.3458   27.0379 C   0  0  0  0  0  0  0  0  0  0  0  0
   -6.5279    1.5668   27.5122 C   0  0  0  0  0  0  0  0  0  0  0  0
   -6.7692    0.1890   27.4692 C   0  0  0  0  0  0  0  0  0  0  0  0
   -5.9008   -0.7057   27.9501 C   0  0  0  0  0  0  0  0  0  0  0  0
   -4.7098   -0.2343   28.5981 C   0  0  0  0  0  0  0  0  0  0  0  0
   -4.4739    1.1366   28.6518 C   0  0  0  0  0  0  0  0  0  0  0  0
   -5.3326    2.0067   28.1955 C   0  0  0  0  0  0  0  0  0  0  0  0
  -10.8134    2.8543   25.3828 C   0  0  0  0  0  0  0  0  0  0  0  0
  -10.8611    3.1238   24.0844 C   0  0  0  0  0  0  0  0  0  0  0  0
  -10.6449    4.0434   23.4880 C   0  0  0  0  0  0  0  0  0  0  0  0
  -10.6746    4.3704   22.0383 C   0  0  0  0  0  0  0  0  0  0  0  0
  4  5  1  0
  5  8  1  0
  2  9  1  0
  7 15  1  0
 15 16  1  0
 16 17  2  3
 17 18  1  0
  9 10  2  0
 10 11  1  0
 11 12  2  0
 12 13  1  0
 13 14  2  0
 14  9  1  0
  1  2  2  0
  2  3  1  0
  3  7  2  0
  7  6  1  0
  6  4  2  0
  4  1  1  0
M  END
$$$$
