No_5714-complexes_sdf/6BKW-FPZ/2024-09-17-14-21-01/
     RDKit          3D

 40 44  0  0  0  0  0  0  0  0999 V2000
   -7.9040    3.9820   27.1177 C   0  0  0  0  0  0  0  0  0  0  0  0
   -8.2057    2.8231   26.8733 C   0  0  0  0  0  0  0  0  0  0  0  0
   -8.7695    5.0740   26.7916 C   0  0  0  0  0  0  0  0  0  0  0  0
   -8.4337    6.4678   27.0913 C   0  0  0  0  0  0  0  0  0  0  0  0
   -9.3742    2.4311   26.2346 C   0  0  0  0  0  0  0  0  0  0  0  0
  -10.2395    3.4267   25.8887 C   0  0  0  0  0  0  0  0  0  0  0  0
   -9.9567    4.7548   26.1374 C   0  0  0  0  0  0  0  0  0  0  0  0
   -7.9839    7.5474   27.0128 N   0  0  0  0  0  0  0  0  0  0  0  0
   -7.3179    1.7942   27.2914 F   0  0  0  0  0  0  0  0  0  0  0  0
  -11.4998    3.1040   25.1573 C   0  0  1  0  0  0  0  0  0  0  0  0
  -11.5367    2.0163   24.3750 C   0  0  0  0  0  0  0  0  0  0  0  0
  -11.3289    0.9917   24.5668 C   0  0  0  0  0  0  0  0  0  0  0  0
  -11.4033   -0.1830   23.6187 C   0  0  0  0  0  0  0  0  0  0  0  0
  -11.7260    0.1794   22.3291 C   0  0  0  0  0  0  0  0  0  0  0  0
  -11.9349    1.4913   21.9763 C   0  0  0  0  0  0  0  0  0  0  0  0
  -11.8555    2.4811   22.9094 C   0  0  0  0  0  0  0  0  0  0  0  0
  -12.5830    2.9677   26.2794 C   0  0  0  0  0  0  0  0  0  0  0  0
  -11.8412    4.5154   24.4032 C   0  0  0  0  0  0  0  0  0  0  0  0
  -12.2624    2.9068   27.5382 C   0  0  0  0  0  0  0  0  0  0  0  0
  -12.9292    2.7736   28.6264 C   0  0  0  0  0  0  0  0  0  0  0  0
  -12.3676    2.7282   29.9741 C   0  0  0  0  0  0  0  0  0  0  0  0
  -14.3986    2.7104   28.5515 C   0  0  0  0  0  0  0  0  0  0  0  0
  -15.1894    2.5350   29.7348 C   0  0  0  0  0  0  0  0  0  0  0  0
  -13.1925    2.7121   31.1301 C   0  0  0  0  0  0  0  0  0  0  0  0
  -14.5811    2.6104   30.9758 C   0  0  0  0  0  0  0  0  0  0  0  0
  -13.9499    2.8012   25.8065 C   0  0  0  0  0  0  0  0  0  0  0  0
  -15.4199    2.5551   32.2218 C   0  0  0  0  0  0  0  0  0  0  0  0
  -15.7500    1.5321   32.6702 O   0  0  0  0  0  0  0  0  0  0  0  0
  -15.7387    3.7064   32.7052 F   0  0  0  0  0  0  0  0  0  0  0  0
  -14.6637    1.9034   25.4548 C   0  0  0  0  0  0  0  0  0  0  0  0
  -15.9375    1.9669   24.9681 C   0  0  0  0  0  0  0  0  0  0  0  0
  -16.5418    3.1963   24.9984 C   0  0  0  0  0  0  0  0  0  0  0  0
  -14.7223    4.1236   25.7570 C   0  0  0  0  0  0  0  0  0  0  0  0
  -15.8997    4.2978   25.3505 C   0  0  0  0  0  0  0  0  0  0  0  0
  -12.0827    3.8015   22.7349 N   0  0  0  0  0  0  0  0  0  0  0  0
  -12.3864    4.5898   21.7219 C   0  0  0  0  0  0  0  0  0  0  0  0
  -16.5893    5.6131   25.3181 C   0  0  0  0  0  0  0  0  0  0  0  0
  -16.7367    6.2071   24.5179 C   0  0  0  0  0  0  0  0  0  0  0  0
  -16.2072    5.8431   23.1343 C   0  0  0  0  0  0  0  0  0  0  0  0
  -16.3052    6.7330   22.0463 C   0  0  0  0  0  0  0  0  0  0  0  0
  3  4  1  0
  4  8  3  0
  2  9  1  0
 10  6  1  1
 10 11  1  0
 10 17  1  0
 10 18  1  0
 17 19  2  3
 19 20  1  0
 17 26  1  0
 25 27  1  0
 27 28  2  0
 27 29  1  0
 16 35  1  0
 18 35  1  0
 35 36  1  0
 34 37  1  0
 37 38  2  3
 38 39  1  0
 39 40  2  0
 26 30  2  0
 30 31  1  0
 31 32  2  0
 32 34  1  0
 34 33  2  0
 33 26  1  0
 11 12  2  0
 12 13  1  0
 13 14  2  0
 14 15  1  0
 15 16  2  0
 16 11  1  0
  1  2  2  0
  2  5  1  0
  5  6  2  0
  6  7  1  0
  7  3  2  0
  3  1  1  0
 20 21  2  0
 21 24  1  0
 24 25  2  0
 25 23  1  0
 23 22  2  0
 22 20  1  0
M  END
$$$$
