No_5712-complexes_sdf/6BKW-FPZ/2024-09-17-14-21-01/
     RDKit          3D

 40 45  0  0  0  0  0  0  0  0999 V2000
   -7.9040    3.9820   27.1177 C   0  0  0  0  0  0  0  0  0  0  0  0
   -7.8663    4.8694   27.9238 C   0  0  0  0  0  0  0  0  0  0  0  0
   -9.0953    3.1697   27.0532 C   0  0  0  0  0  0  0  0  0  0  0  0
   -9.1405    2.0104   26.1761 C   0  0  0  0  0  0  0  0  0  0  0  0
   -9.0299    5.5381   28.3948 C   0  0  0  0  0  0  0  0  0  0  0  0
  -10.2709    4.9222   28.1362 C   0  0  0  0  0  0  0  0  0  0  0  0
  -11.4515    5.3726   28.5639 C   0  0  0  0  0  0  0  0  0  0  0  0
  -10.2864    3.7166   27.4223 C   0  0  0  0  0  0  0  0  0  0  0  0
   -9.9458    1.5744   25.5076 C   0  0  0  0  0  0  0  0  0  0  0  0
   -9.8597    0.3828   24.6964 C   0  0  0  0  0  0  0  0  0  0  0  0
   -8.7116   -0.3564   24.7921 C   0  0  0  0  0  0  0  0  0  0  0  0
   -7.7241    0.0155   25.6517 C   0  0  0  0  0  0  0  0  0  0  0  0
   -7.8070    1.1852   26.4360 C   0  0  0  0  0  0  0  0  0  0  0  0
   -6.5216   -0.8420   25.8793 C   0  0  0  0  0  0  0  0  0  0  0  0
   -5.9267   -1.2107   24.8995 O   0  0  0  0  0  0  0  0  0  0  0  0
   -6.0526   -1.0581   27.0723 O   0  0  0  0  0  0  0  0  0  0  0  0
  -12.4754    4.8175   28.7374 C   0  0  0  0  0  0  0  0  0  0  0  0
  -11.4465    3.0129   27.3980 C   0  0  0  0  0  0  0  0  0  0  0  0
  -12.6192    3.5336   28.0500 C   0  0  0  0  0  0  0  0  0  0  0  0
   -6.4360   -0.6557   28.0889 C   0  0  0  0  0  0  0  0  0  0  0  0
   -6.3468   -1.5636   29.2287 C   0  0  0  0  0  0  0  0  0  0  0  0
   -5.2236   -1.3101   29.9984 C   0  0  0  0  0  0  0  0  0  0  0  0
   -4.4418   -0.0998   29.8531 C   0  0  0  0  0  0  0  0  0  0  0  0
   -4.8030    0.7684   28.8044 C   0  0  0  0  0  0  0  0  0  0  0  0
   -6.2781    0.5996   28.3843 O   0  0  0  0  0  0  0  0  0  0  0  0
   -3.2855    0.2283   30.5846 C   0  0  0  0  0  0  0  0  0  0  0  0
   -2.4796   -0.8364   31.1013 C   0  0  0  0  0  0  0  0  0  0  0  0
   -2.0076   -1.7471   30.3117 C   0  0  0  0  0  0  0  0  0  0  0  0
   -1.1675   -2.7844   30.8611 C   0  0  0  0  0  0  0  0  0  0  0  0
   -0.9278   -2.7948   32.2221 C   0  0  0  0  0  0  0  0  0  0  0  0
   -1.4660   -1.7770   33.0667 C   0  0  0  0  0  0  0  0  0  0  0  0
   -2.2002   -0.7834   32.5394 C   0  0  0  0  0  0  0  0  0  0  0  0
   -7.1478   -2.6490   29.4372 C   0  0  0  0  0  0  0  0  0  0  0  0
   -7.0132   -3.4477   30.4879 C   0  0  0  0  0  0  0  0  0  0  0  0
   -5.8595   -3.1878   31.3569 C   0  0  0  0  0  0  0  0  0  0  0  0
   -5.0130   -2.1286   31.1816 C   0  0  0  0  0  0  0  0  0  0  0  0
   -8.3208   -2.8826   28.5557 C   0  0  0  0  0  0  0  0  0  0  0  0
   -8.5877   -3.7088   27.7857 O   0  0  0  0  0  0  0  0  0  0  0  0
   -9.2882   -1.8521   28.6565 O   0  0  0  0  0  0  0  0  0  0  0  0
  -10.4501   -1.8524   27.9566 C   0  0  0  0  0  0  0  0  0  0  0  0
  3  4  1  0
 12 14  1  0
 14 15  2  0
 14 16  1  0
 16 20  1  0
 20 21  2  0
 22 23  2  0
 23 24  1  0
 20 25  1  0
 24 25  1  0
 23 26  1  0
 26 27  1  0
 33 37  1  0
 37 38  2  0
 37 39  1  0
 39 40  1  0
  4  9  2  0
  9 10  1  0
 10 11  2  0
 11 12  1  0
 12 13  2  0
 13  4  1  0
  1  2  2  0
  2  5  1  0
  5  6  2  0
  8  3  2  0
  3  1  1  0
  6  7  1  0
  7 17  2  0
 17 19  1  0
 19 18  2  0
 18  8  1  0
  8  6  1  0
 27 28  2  0
 28 29  1  0
 29 30  2  0
 30 31  1  0
 31 32  2  0
 32 27  1  0
 21 22  1  0
 22 36  1  0
 36 35  2  0
 35 34  1  0
 34 33  2  0
 33 21  1  0
M  END
$$$$
