No_5824-complexes_sdf/6BKW-FPZ/2024-09-17-14-21-01/
     RDKit          3D

 40 46  0  0  0  0  0  0  0  0999 V2000
   -7.9040    3.9820   27.1177 C   0  0  0  0  0  0  0  0  0  0  0  0
   -7.8663    4.8694   27.9238 C   0  0  0  0  0  0  0  0  0  0  0  0
   -9.0491    3.8523   26.2542 C   0  0  0  0  0  0  0  0  0  0  0  0
   -8.7661    5.9491   27.9690 C   0  0  0  0  0  0  0  0  0  0  0  0
   -9.9295    4.8502   26.2323 C   0  0  1  0  0  0  0  0  0  0  0  0
   -9.8077    5.9288   27.0933 C   0  0  0  0  0  0  0  0  0  0  0  0
   -9.0726    2.7074   25.3087 C   0  0  0  0  0  0  0  0  0  0  0  0
   -9.9759    2.7847   24.3262 N   0  0  0  0  0  0  0  0  0  0  0  0
  -10.5648    3.8085   23.8842 C   0  0  0  0  0  0  0  0  0  0  0  0
  -10.7598    4.8368   25.0396 N   0  0  0  0  0  0  0  0  0  0  0  0
   -9.9711    1.6839   23.3424 C   0  0  0  0  0  0  0  0  0  0  0  0
  -11.3160    4.0558   23.0073 O   0  0  0  0  0  0  0  0  0  0  0  0
   -6.9628    2.9327   27.2550 N   0  0  0  0  0  0  0  0  0  0  0  0
   -7.1855    1.5947   27.4875 C   0  0  1  0  0  0  0  0  0  0  0  0
   -8.2958    0.8474   27.4864 C   0  0  0  0  0  0  0  0  0  0  0  0
   -5.8374    0.9165   27.4797 C   0  0  0  0  0  0  0  0  0  0  0  0
   -5.7389   -0.4594   27.6815 C   0  0  0  0  0  0  0  0  0  0  0  0
   -8.2452   -0.5740   27.6737 C   0  0  0  0  0  0  0  0  0  0  0  0
   -6.9839   -1.1474   27.8054 C   0  0  1  0  0  0  0  0  0  0  0  0
   -6.9493   -2.6416   28.0022 C   0  0  0  0  0  0  0  0  0  0  0  0
   -7.9081   -3.2456   27.9459 C   0  0  0  0  0  0  0  0  0  0  0  0
   -9.2699   -2.6247   27.7725 C   0  0  0  0  0  0  0  0  0  0  0  0
   -9.3973   -1.3058   27.6828 C   0  0  0  0  0  0  0  0  0  0  0  0
   -9.4544    0.4980   23.8837 C   0  0  0  0  0  0  0  0  0  0  0  0
  -10.0692   -0.6561   23.6348 C   0  0  0  0  0  0  0  0  0  0  0  0
   -9.3573   -1.8327   23.5978 C   0  0  0  0  0  0  0  0  0  0  0  0
   -8.0324   -1.8918   24.2059 C   0  0  0  0  0  0  0  0  0  0  0  0
   -7.3483   -0.6519   24.3465 C   0  0  0  0  0  0  0  0  0  0  0  0
   -7.9944    0.4921   24.1115 C   0  0  0  0  0  0  0  0  0  0  0  0
   -7.3261   -3.1760   24.3139 C   0  0  0  0  0  0  0  0  0  0  0  0
   -5.9889   -3.1101   24.6461 C   0  0  0  0  0  0  0  0  0  0  0  0
   -8.0348   -4.3732   24.2207 C   0  0  1  0  0  0  0  0  0  0  0  0
   -5.1563   -2.0502   24.7205 C   0  0  0  0  0  0  0  0  0  0  0  0
   -5.8909   -0.7449   24.6225 C   0  0  0  0  0  0  0  0  0  0  0  0
   -7.4815   -5.7978   24.6579 Cl  0  0  0  0  0  0  0  0  0  0  0  0
   -9.4510   -4.3473   23.7613 C   0  0  0  0  0  0  0  0  0  0  0  0
  -10.1051   -3.0840   23.5572 C   0  0  0  0  0  0  0  0  0  0  0  0
  -10.4972   -3.4678   27.7128 C   0  0  0  0  0  0  0  0  0  0  0  0
  -11.0645   -3.5697   26.7630 F   0  0  0  0  0  0  0  0  0  0  0  0
  -11.3101   -2.9898   28.7022 F   0  0  0  0  0  0  0  0  0  0  0  0
  1  2  1  0
  1  3  2  0
  2  4  2  0
  3  5  1  0
  4  6  1  0
  5  6  1  6
  3  7  1  0
  7  8  1  0
  8  9  1  0
  5 10  1  0
  9 10  1  0
  8 11  1  0
  9 12  2  0
  1 13  1  0
 14 13  1  6
 14 15  1  0
 14 16  1  0
 16 17  2  0
 15 18  2  0
 19 17  1  6
 18 19  1  0
 19 20  1  0
 20 21  2  0
 21 22  1  0
 18 23  1  0
 22 23  2  0
 11 24  2  3
 24 25  1  0
 25 26  1  0
 26 27  2  0
 27 28  1  0
 24 29  1  0
 28 29  2  0
 27 30  1  0
 30 31  2  0
 30 32  1  0
 31 33  1  0
 28 34  1  0
 33 34  2  0
 32 35  1  1
 32 36  1  0
 26 37  1  0
 36 37  2  0
 22 38  1  0
 38 39  1  0
 38 40  1  0
M  END
$$$$
