No_5648-complexes_sdf/6BKW-FPZ/2024-09-17-14-21-01/
     RDKit          3D

 27 31  0  0  0  0  0  0  0  0999 V2000
   -7.7129    4.2099   27.0854 C   0  0  0  0  0  0  0  0  0  0  0  0
   -7.7814    5.1722   27.8972 C   0  0  0  0  0  0  0  0  0  0  0  0
   -8.8998    3.8713   26.3707 C   0  0  0  0  0  0  0  0  0  0  0  0
   -8.9563    2.6796   25.5490 C   0  0  0  0  0  0  0  0  0  0  0  0
   -8.8131    6.1334   27.9344 C   0  0  0  0  0  0  0  0  0  0  0  0
   -9.9804    5.8121   27.1929 C   0  0  0  0  0  0  0  0  0  0  0  0
   -9.9861    4.6836   26.4532 C   0  0  0  0  0  0  0  0  0  0  0  0
   -8.3357    1.4961   26.0703 C   0  0  0  0  0  0  0  0  0  0  0  0
   -8.3882    0.2953   25.3902 C   0  0  0  0  0  0  0  0  0  0  0  0
   -9.0085    0.3271   24.1355 C   0  0  0  0  0  0  0  0  0  0  0  0
   -9.5936    1.4698   23.6030 C   0  0  0  0  0  0  0  0  0  0  0  0
   -9.5290    2.6254   24.3242 C   0  0  0  0  0  0  0  0  0  0  0  0
  -10.2086    1.4433   22.2854 C   0  0  0  0  0  0  0  0  0  0  0  0
  -10.3909    2.5835   21.6612 C   0  0  0  0  0  0  0  0  0  0  0  0
  -11.0077    2.6309   20.4201 C   0  0  0  0  0  0  0  0  0  0  0  0
  -11.3632    1.4620   19.7509 C   0  0  0  0  0  0  0  0  0  0  0  0
  -11.1006    0.2391   20.3915 C   0  0  0  0  0  0  0  0  0  0  0  0
  -10.5339    0.2408   21.6430 C   0  0  0  0  0  0  0  0  0  0  0  0
   -6.6780    5.5743   28.6572 O   0  0  0  0  0  0  0  0  0  0  0  0
   -7.7278   -0.8577   25.9073 C   0  0  0  0  0  0  0  0  0  0  0  0
   -7.3356   -1.7575   25.2996 C   0  0  0  0  0  0  0  0  0  0  0  0
   -6.7410   -3.0106   25.8117 C   0  0  0  0  0  0  0  0  0  0  0  0
   -6.2888   -4.0177   25.0079 C   0  0  0  0  0  0  0  0  0  0  0  0
   -6.3699   -3.8759   23.6118 C   0  0  0  0  0  0  0  0  0  0  0  0
   -6.8912   -2.7498   23.0300 C   0  0  0  0  0  0  0  0  0  0  0  0
   -7.3092   -1.6953   23.8361 C   0  0  0  0  0  0  0  0  0  0  0  0
   -8.0881   -0.5891   23.2034 C   0  0  0  0  0  0  0  0  0  0  0  0
  3  4  1  0
 11 13  1  0
  2 19  1  0
  1  2  2  0
  2  5  1  0
  5  6  2  0
  6  7  1  0
  7  3  2  0
  3  1  1  0
 10 27  2  0
 27 26  1  0
 21 20  1  0
 20  9  2  0
  4  8  2  0
  8  9  1  0
  9 10  1  0
 10 11  1  0
 11 12  2  0
 12  4  1  0
 13 14  2  0
 14 15  1  0
 15 16  2  0
 16 17  1  0
 17 18  2  0
 18 13  1  0
 21 22  2  0
 22 23  1  0
 23 24  2  0
 24 25  1  0
 25 26  2  0
 26 21  1  0
M  END
$$$$
