No_5385-complexes_sdf/6BKW-FPZ/2024-09-17-14-21-01/
     RDKit          3D

 14 14  0  0  0  0  0  0  0  0999 V2000
   -7.9040    3.9820   27.1177 C   0  0  0  0  0  0  0  0  0  0  0  0
   -7.8663    4.8694   27.9238 C   0  0  0  0  0  0  0  0  0  0  0  0
   -9.0501    3.8017   26.2617 C   0  0  0  0  0  0  0  0  0  0  0  0
  -10.0189    4.7608   26.3707 C   0  0  0  0  0  0  0  0  0  0  0  0
   -8.6770    5.9780   27.9222 C   0  0  0  0  0  0  0  0  0  0  0  0
   -9.8040    5.8752   27.0958 C   0  0  0  0  0  0  0  0  0  0  0  0
   -9.3671    2.6647   25.4407 C   0  0  0  0  0  0  0  0  0  0  0  0
   -8.8080    1.5403   25.7249 N   0  0  0  0  0  0  0  0  0  0  0  0
   -9.2222    0.5788   25.9773 C   0  0  0  0  0  0  0  0  0  0  0  0
   -8.3990   -0.5728   26.3911 C   0  0  0  0  0  0  0  0  0  0  0  0
   -7.1196   -0.1768   26.5509 C   0  0  0  0  0  0  0  0  0  0  0  0
   -6.1795   -1.1906   27.0251 C   0  0  0  0  0  0  0  0  0  0  0  0
   -6.5924   -2.4169   27.2679 C   0  0  0  0  0  0  0  0  0  0  0  0
   -7.8965   -2.7937   27.1243 C   0  0  0  0  0  0  0  0  0  0  0  0
  3  7  1  0
  7  8  1  0
  8  9  1  0
  9 10  2  3
 10 11  1  0
 11 12  2  3
 12 13  1  0
 13 14  2  0
  1  2  2  0
  2  5  1  0
  5  6  2  0
  6  4  1  0
  4  3  2  0
  3  1  1  0
M  END
$$$$
