No_537-complexes_sdf/6BKW-FPZ/2024-09-17-14-21-01/
     RDKit          3D

 36 40  0  0  0  0  0  0  0  0999 V2000
   -7.2496    3.8871   27.4508 C   0  0  0  0  0  0  0  0  0  0  0  0
   -7.9379    4.9063   27.8518 C   0  0  0  0  0  0  0  0  0  0  0  0
   -9.3460    4.8223   27.8695 C   0  0  0  0  0  0  0  0  0  0  0  0
   -7.8628    2.6163   27.1065 C   0  0  0  0  0  0  0  0  0  0  0  0
   -9.2787    2.5744   27.1970 C   0  0  0  0  0  0  0  0  0  0  0  0
  -10.0108    3.6770   27.6340 C   0  0  0  0  0  0  0  0  0  0  0  0
  -11.4834    3.5674   27.7432 C   0  0  0  0  0  0  0  0  0  0  0  0
  -11.9395    2.6434   28.4995 C   0  0  0  0  0  0  0  0  0  0  0  0
  -13.2991    2.5755   28.9391 C   0  0  0  0  0  0  0  0  0  0  0  0
  -14.1285    3.5751   28.4315 C   0  0  0  0  0  0  0  0  0  0  0  0
  -13.6635    4.5859   27.6241 C   0  0  0  0  0  0  0  0  0  0  0  0
  -12.2733    4.7017   27.3545 C   0  0  0  0  0  0  0  0  0  0  0  0
   -7.0925    1.4743   26.7694 C   0  0  0  0  0  0  0  0  0  0  0  0
   -7.5714    0.7081   25.8724 O   0  0  0  0  0  0  0  0  0  0  0  0
   -5.9508    1.2543   27.3452 O   0  0  0  0  0  0  0  0  0  0  0  0
   -7.3148    6.1138   28.1245 N   0  0  0  0  0  0  0  0  0  0  0  0
   -5.6390    0.0849   28.0554 C   0  0  0  0  0  0  0  0  0  0  0  0
   -4.2937   -0.3436   27.7705 C   0  0  0  0  0  0  0  0  0  0  0  0
   -3.9011   -1.2765   28.3875 C   0  0  0  0  0  0  0  0  0  0  0  0
   -4.6100   -1.9446   29.4684 C   0  0  0  0  0  0  0  0  0  0  0  0
   -5.8794   -1.4606   29.7305 C   0  0  0  0  0  0  0  0  0  0  0  0
   -6.3736   -0.4037   29.0257 C   0  0  0  0  0  0  0  0  0  0  0  0
   -6.7191   -2.1204   30.8031 C   0  0  2  0  0  0  0  0  0  0  0  0
   -6.3282   -2.1175   32.0661 C   0  0  0  0  0  0  0  0  0  0  0  0
   -7.2121   -2.5898   33.1194 C   0  0  0  0  0  0  0  0  0  0  0  0
   -6.8657   -2.5997   34.4886 C   0  0  0  0  0  0  0  0  0  0  0  0
   -5.6112   -2.0536   34.8625 C   0  0  0  0  0  0  0  0  0  0  0  0
   -4.7629   -1.5233   33.8972 C   0  0  0  0  0  0  0  0  0  0  0  0
   -5.1252   -1.5240   32.5339 C   0  0  0  0  0  0  0  0  0  0  0  0
   -7.8514   -2.8053   30.2898 C   0  0  0  0  0  0  0  0  0  0  0  0
   -8.1774   -3.0141   29.3129 C   0  0  0  0  0  0  0  0  0  0  0  0
   -9.1597   -3.5802   28.6635 C   0  0  0  0  0  0  0  0  0  0  0  0
   -9.3581   -3.6939   27.2257 C   0  0  0  0  0  0  0  0  0  0  0  0
   -8.4735   -3.3032   26.6284 C   0  0  0  0  0  0  0  0  0  0  0  0
   -7.2481   -2.6907   26.9594 C   0  0  0  0  0  0  0  0  0  0  0  0
   -7.0518   -2.5852   28.3835 C   0  0  0  0  0  0  0  0  0  0  0  0
  6  7  1  0
  4 13  1  0
 13 14  2  0
 13 15  1  0
  2 16  1  0
 15 17  1  0
 21 23  1  0
 23 24  1  0
 23 30  1  6
 30 31  1  0
 24 25  2  0
 25 26  1  0
 26 27  2  0
 27 28  1  0
 28 29  2  0
 29 24  1  0
  1  2  2  0
  2  3  1  0
  3  6  2  0
  6  5  1  0
  5  4  2  0
  4  1  1  0
 31 32  2  0
 32 33  1  0
 33 34  2  0
 34 35  1  0
 35 36  2  0
 36 31  1  0
  7  8  2  0
  8  9  1  0
  9 10  2  0
 10 11  1  0
 11 12  2  0
 12  7  1  0
 17 18  2  0
 18 19  1  0
 19 20  2  0
 20 21  1  0
 21 22  2  0
 22 17  1  0
M  END
$$$$
