No_590-complexes_sdf/6BKW-FPZ/2024-09-17-14-21-01/
     RDKit          3D

 24 26  0  0  0  0  0  0  0  0999 V2000
   -7.7129    4.2099   27.0854 C   0  0  0  0  0  0  0  0  0  0  0  0
   -8.9133    4.4736   27.0998 C   0  0  0  0  0  0  0  0  0  0  0  0
   -9.4616    5.6470   27.6290 C   0  0  0  0  0  0  0  0  0  0  0  0
   -6.8722    5.1130   27.9248 C   0  0  0  0  0  0  0  0  0  0  0  0
   -7.3801    6.2535   28.4126 C   0  0  0  0  0  0  0  0  0  0  0  0
   -8.6734    6.5530   28.2150 C   0  0  0  0  0  0  0  0  0  0  0  0
   -9.8157    3.4887   26.3527 C   0  0  0  0  0  0  0  0  0  0  0  0
   -9.9163    3.5905   24.9383 C   0  0  0  0  0  0  0  0  0  0  0  0
  -10.5903    2.7150   24.1444 C   0  0  0  0  0  0  0  0  0  0  0  0
  -11.1844    1.6171   24.7355 C   0  0  0  0  0  0  0  0  0  0  0  0
  -10.4233    2.3367   26.7777 C   0  0  0  0  0  0  0  0  0  0  0  0
  -11.1146    1.4206   26.1199 C   0  0  0  0  0  0  0  0  0  0  0  0
  -10.6545    2.9692   22.7001 C   0  0  1  0  0  0  0  0  0  0  0  0
  -10.9230    4.1989   22.2075 C   0  0  0  0  0  0  0  0  0  0  0  0
  -10.2645    1.9468   21.7775 C   0  0  0  0  0  0  0  0  0  0  0  0
  -10.9810    1.1923   21.3421 C   0  0  0  0  0  0  0  0  0  0  0  0
  -10.4998    0.0664   20.4613 C   0  0  0  0  0  0  0  0  0  0  0  0
  -11.3569   -0.6459   19.7088 C   0  0  0  0  0  0  0  0  0  0  0  0
  -12.3127    1.3966   20.8462 C   0  0  0  0  0  0  0  0  0  0  0  0
  -13.1291    0.6831   20.1214 C   0  0  0  0  0  0  0  0  0  0  0  0
  -12.6066   -0.4054   19.4877 C   0  0  0  0  0  0  0  0  0  0  0  0
  -10.3622    4.6239   21.2636 F   0  0  0  0  0  0  0  0  0  0  0  0
  -10.9015    5.1305   23.2624 F   0  0  0  0  0  0  0  0  0  0  0  0
  -12.7157    4.2171   21.8458 Cl  0  0  0  0  0  0  0  0  0  0  0  0
  2  7  1  0
  9 13  1  0
 13 14  1  0
 13 15  1  6
 14 22  1  0
 14 23  1  0
 14 24  1  0
 15 16  1  0
  7  8  2  0
  8  9  1  0
  9 10  2  0
 10 12  1  0
 12 11  2  0
 11  7  1  0
  1  2  2  0
  2  3  1  0
  3  6  2  0
  6  5  1  0
  5  4  2  0
  4  1  1  0
 16 17  2  0
 17 18  1  0
 18 21  2  0
 21 20  1  0
 20 19  2  0
 19 16  1  0
M  END
$$$$
