No_5095-complexes_sdf/6BKW-FPZ/2024-09-17-14-21-01/
     RDKit          3D

 21 22  0  0  0  0  0  0  0  0999 V2000
   -7.2496    3.8871   27.4508 C   0  0  0  0  0  0  0  0  0  0  0  0
   -7.9379    4.9063   27.8518 C   0  0  0  0  0  0  0  0  0  0  0  0
   -7.5112    6.1898   27.6280 C   0  0  0  0  0  0  0  0  0  0  0  0
   -7.8078    2.6331   27.2522 C   0  0  0  0  0  0  0  0  0  0  0  0
   -9.1846    2.4724   27.5426 C   0  0  0  0  0  0  0  0  0  0  0  0
   -9.9168    3.5155   28.0405 C   0  0  0  0  0  0  0  0  0  0  0  0
   -9.3366    4.7962   28.1727 C   0  0  0  0  0  0  0  0  0  0  0  0
  -11.3249    3.2653   28.4083 C   0  0  0  0  0  0  0  0  0  0  0  0
  -11.7547    2.0707   28.7076 N   0  0  0  0  0  0  0  0  0  0  0  0
  -13.0120    1.8685   29.1400 C   0  0  2  0  0  0  0  0  0  0  0  0
  -12.3438    3.9209   27.6035 C   0  0  0  0  0  0  0  0  0  0  0  0
  -13.3655    0.5659   29.5569 C   0  0  0  0  0  0  0  0  0  0  0  0
  -14.0152    2.4627   28.1859 C   0  0  1  0  0  0  0  0  0  0  0  0
  -15.6322    2.2841   28.5889 Cl  0  0  0  0  0  0  0  0  0  0  0  0
  -13.5594    3.9446   28.1159 C   0  0  0  0  0  0  0  0  0  0  0  0
  -13.7602    1.8585   26.8349 C   0  0  0  0  0  0  0  0  0  0  0  0
  -13.6469    2.3755   25.9126 C   0  0  0  0  0  0  0  0  0  0  0  0
  -13.4893    1.7072   24.6158 C   0  0  0  0  0  0  0  0  0  0  0  0
  -13.2508    2.4121   23.4021 C   0  0  0  0  0  0  0  0  0  0  0  0
  -13.1682    3.8192   23.4281 C   0  0  0  0  0  0  0  0  0  0  0  0
  -13.2259    4.5164   24.6011 C   0  0  0  0  0  0  0  0  0  0  0  0
  6  8  1  0
  8  9  2  0
  9 10  1  0
  8 11  1  0
 10 12  1  6
 10 13  1  0
 13 14  1  1
 11 15  1  0
 13 15  1  0
 13 16  1  0
 16 17  2  3
 17 18  1  0
 18 19  2  3
 19 20  1  0
 20 21  2  0
  3  2  1  0
  1  2  2  0
  2  7  1  0
  7  6  2  0
  6  5  1  0
  5  4  2  0
  4  1  1  0
M  END
$$$$
