No_586-complexes_sdf/6BKW-FPZ/2024-09-17-14-21-01/
     RDKit          3D

 23 25  0  0  0  0  0  0  0  0999 V2000
   -7.2496    3.8871   27.4508 C   0  0  0  0  0  0  0  0  0  0  0  0
   -7.9379    4.9063   27.8518 C   0  0  0  0  0  0  0  0  0  0  0  0
   -9.3460    4.8223   27.8695 C   0  0  0  0  0  0  0  0  0  0  0  0
   -7.8628    2.6163   27.1065 C   0  0  0  0  0  0  0  0  0  0  0  0
   -9.2787    2.5744   27.1970 C   0  0  0  0  0  0  0  0  0  0  0  0
  -10.0108    3.6770   27.6340 C   0  0  0  0  0  0  0  0  0  0  0  0
  -11.4855    3.5731   27.7420 C   0  0  0  0  0  0  0  0  0  0  0  0
  -12.0293    2.8456   27.0189 C   0  0  0  0  0  0  0  0  0  0  0  0
  -13.5102    2.7812   27.1373 C   0  0  0  0  0  0  0  0  0  0  0  0
  -14.1668    3.6327   28.0205 C   0  0  0  0  0  0  0  0  0  0  0  0
  -13.4831    4.5355   28.7575 C   0  0  0  0  0  0  0  0  0  0  0  0
  -12.0877    4.5955   28.6456 C   0  0  0  0  0  0  0  0  0  0  0  0
   -6.8004    1.3669   26.6671 Cl  0  0  0  0  0  0  0  0  0  0  0  0
   -7.1746    6.1563   28.0521 C   0  0  0  0  0  0  0  0  0  0  0  0
  -15.6661    3.5801   28.1138 C   0  0  0  0  0  0  0  0  0  0  0  0
  -16.2796    3.5896   29.2415 C   0  0  0  0  0  0  0  0  0  0  0  0
  -16.4162    3.5351   26.9111 C   0  0  0  0  0  0  0  0  0  0  0  0
  -17.5550    3.2790   26.8936 C   0  0  0  0  0  0  0  0  0  0  0  0
  -17.6703    3.4213   29.3260 C   0  0  0  0  0  0  0  0  0  0  0  0
  -18.3290    3.3030   28.1254 C   0  0  0  0  0  0  0  0  0  0  0  0
  -19.6836    3.1254   28.0853 O   0  0  0  0  0  0  0  0  0  0  0  0
  -20.3982    2.7004   27.2698 C   0  0  0  0  0  0  0  0  0  0  0  0
  -21.4977    2.0453   27.5902 C   0  0  0  0  0  0  0  0  0  0  0  0
  6  7  1  0
  4 13  1  0
  2 14  1  0
 10 15  1  0
 20 21  1  0
 21 22  1  0
 22 23  2  0
  1  2  2  0
  2  3  1  0
  3  6  2  0
  6  5  1  0
  5  4  2  0
  4  1  1  0
  7  8  2  0
  8  9  1  0
  9 10  2  0
 10 11  1  0
 11 12  2  0
 12  7  1  0
 15 16  2  0
 16 19  1  0
 19 20  2  0
 20 18  1  0
 18 17  2  0
 17 15  1  0
M  END
$$$$
