No_5716-complexes_sdf/6BKW-FPZ/2024-09-17-14-21-01/
     RDKit          3D

 12 12  0  0  0  0  0  0  0  0999 V2000
   -7.7129    4.2099   27.0854 C   0  0  0  0  0  0  0  0  0  0  0  0
   -8.9133    4.4736   27.0998 C   0  0  0  0  0  0  0  0  0  0  0  0
   -9.4643    5.5426   27.7628 C   0  0  0  0  0  0  0  0  0  0  0  0
   -6.8373    4.9942   27.9785 C   0  0  0  0  0  0  0  0  0  0  0  0
   -7.3932    6.0303   28.6784 C   0  0  0  0  0  0  0  0  0  0  0  0
   -8.7122    6.3429   28.5485 C   0  0  0  0  0  0  0  0  0  0  0  0
   -9.9365    3.7115   26.2896 C   0  0  0  0  0  0  0  0  0  0  0  0
  -10.3661    3.6821   25.2953 C   0  0  0  0  0  0  0  0  0  0  0  0
  -10.1591    4.8004   24.2797 C   0  0  0  0  0  0  0  0  0  0  0  0
  -10.6252    4.8129   22.9718 C   0  0  0  0  0  0  0  0  0  0  0  0
  -11.2536    3.6524   22.5262 C   0  0  0  0  0  0  0  0  0  0  0  0
  -11.4659    2.5538   23.3107 C   0  0  0  0  0  0  0  0  0  0  0  0
  2  7  1  0
  7  8  3  0
  8  9  1  0
  9 10  2  3
 10 11  1  0
 11 12  2  0
  1  2  2  0
  2  3  1  0
  3  6  2  0
  6  5  1  0
  5  4  2  0
  4  1  1  0
M  END
$$$$
