No_5677-complexes_sdf/6BKW-FPZ/2024-09-17-14-21-01/
     RDKit          3D

 28 30  0  0  0  0  0  0  0  0999 V2000
   -7.9040    3.9820   27.1177 C   0  0  0  0  0  0  0  0  0  0  0  0
   -8.2057    2.8231   26.8733 C   0  0  0  0  0  0  0  0  0  0  0  0
   -9.2962    2.4021   26.1155 C   0  0  0  0  0  0  0  0  0  0  0  0
   -8.7358    5.0662   26.5917 C   0  0  0  0  0  0  0  0  0  0  0  0
   -9.7618    4.7023   25.7546 C   0  0  0  0  0  0  0  0  0  0  0  0
  -10.0066    3.4105   25.4922 C   0  0  0  0  0  0  0  0  0  0  0  0
   -8.3943    6.4760   26.8801 C   0  0  0  0  0  0  0  0  0  0  0  0
   -8.0394    6.8605   28.0789 N   0  0  0  0  0  0  0  0  0  0  0  0
   -8.3800    7.3307   25.9466 O   0  0  0  0  0  0  0  0  0  0  0  0
   -7.3592    1.6694   27.4989 C   0  0  0  0  0  0  0  0  0  0  0  0
   -7.7172    0.3307   27.3726 C   0  0  0  0  0  0  0  0  0  0  0  0
   -6.8169   -0.6196   27.7652 C   0  0  0  0  0  0  0  0  0  0  0  0
   -5.5840   -0.2385   28.3481 C   0  0  0  0  0  0  0  0  0  0  0  0
   -5.1919    1.1167   28.3154 C   0  0  0  0  0  0  0  0  0  0  0  0
   -5.9904    2.0250   27.8809 C   0  0  0  0  0  0  0  0  0  0  0  0
   -4.4944   -1.1605   28.8811 C   0  0  2  0  0  0  0  0  0  0  0  0
   -4.5271   -1.5778   29.9573 C   0  0  0  0  0  0  0  0  0  0  0  0
   -5.5048   -1.0874   31.0455 C   0  0  0  0  0  0  0  0  0  0  0  0
   -5.3847   -1.4885   32.4109 C   0  0  0  0  0  0  0  0  0  0  0  0
   -4.4100   -2.3911   32.7611 C   0  0  0  0  0  0  0  0  0  0  0  0
   -3.4843   -2.8442   31.8764 C   0  0  0  0  0  0  0  0  0  0  0  0
   -3.4923   -2.4354   30.5860 C   0  0  0  0  0  0  0  0  0  0  0  0
   -3.2835   -0.8035   28.2431 C   0  0  0  0  0  0  0  0  0  0  0  0
   -2.8324   -1.9662   27.4422 C   0  0  0  0  0  0  0  0  0  0  0  0
   -2.0632   -0.5319   29.0898 C   0  0  0  0  0  0  0  0  0  0  0  0
   -3.3037    0.2792   27.0715 C   0  0  0  0  0  0  0  0  0  0  0  0
   -1.6587   -2.3702   27.5036 C   0  0  0  0  0  0  0  0  0  0  0  0
   -3.7874   -2.6081   26.5544 C   0  0  0  0  0  0  0  0  0  0  0  0
  4  7  1  0
  7  8  1  0
  7  9  2  0
  2 10  1  0
 13 16  1  0
 16 23  1  1
 23 24  1  0
 23 25  1  0
 23 26  1  0
 24 27  2  0
 24 28  1  0
 16 17  1  0
 17 18  2  0
 18 19  1  0
 19 20  2  0
 20 21  1  0
 21 22  2  0
 22 17  1  0
  1  2  2  0
  2  3  1  0
  3  6  2  0
  6  5  1  0
  5  4  2  0
  4  1  1  0
 10 11  2  0
 11 12  1  0
 12 13  2  0
 13 14  1  0
 14 15  2  0
 15 10  1  0
M  END
$$$$
