No_5860-complexes_sdf/6BKW-FPZ/2024-09-17-14-21-01/
     RDKit          3D

 40 45  0  0  0  0  0  0  0  0999 V2000
   -7.9040    3.9820   27.1177 C   0  0  0  0  0  0  0  0  0  0  0  0
   -7.8663    4.8694   27.9238 C   0  0  0  0  0  0  0  0  0  0  0  0
   -7.4547    2.7080   27.4594 C   0  0  0  0  0  0  0  0  0  0  0  0
   -7.9337    1.5946   26.8372 C   0  0  0  0  0  0  0  0  0  0  0  0
   -8.9032    1.7881   25.8510 C   0  0  0  0  0  0  0  0  0  0  0  0
   -9.3787    2.9871   25.5530 C   0  0  0  0  0  0  0  0  0  0  0  0
   -8.9781    4.0300   26.2200 C   0  0  0  0  0  0  0  0  0  0  0  0
   -7.9493    6.0343   27.8951 N   0  0  0  0  0  0  0  0  0  0  0  0
  -10.3836    3.1260   24.4284 C   0  0  0  0  0  0  0  0  0  0  0  0
  -10.5593    2.2317   23.4884 C   0  0  0  0  0  0  0  0  0  0  0  0
  -11.4386    2.4341   22.4544 C   0  0  0  0  0  0  0  0  0  0  0  0
  -12.1143    3.7026   22.3546 C   0  0  0  0  0  0  0  0  0  0  0  0
  -11.8993    4.6413   23.3201 C   0  0  0  0  0  0  0  0  0  0  0  0
  -11.0370    4.4739   24.3454 C   0  0  0  0  0  0  0  0  0  0  0  0
   -8.5542    6.6205   26.8413 C   0  0  0  0  0  0  0  0  0  0  0  0
   -9.1307    5.6139   25.9422 C   0  0  0  0  0  0  0  0  0  0  0  0
   -8.7816    7.8395   26.5648 N   0  0  0  0  0  0  0  0  0  0  0  0
   -7.3799    0.2309   27.0947 C   0  0  0  0  0  0  0  0  0  0  0  0
   -6.1086    0.0206   27.4855 C   0  0  0  0  0  0  0  0  0  0  0  0
   -5.6246   -1.1858   27.9489 C   0  0  0  0  0  0  0  0  0  0  0  0
   -6.5697   -2.2159   27.9823 C   0  0  0  0  0  0  0  0  0  0  0  0
   -8.1824   -0.9041   27.2515 C   0  0  0  0  0  0  0  0  0  0  0  0
   -7.8279   -2.0637   27.6894 C   0  0  0  0  0  0  0  0  0  0  0  0
   -4.2049   -1.3124   28.3678 C   0  0  2  0  0  0  0  0  0  0  0  0
   -3.9252   -0.8621   29.7015 C   0  0  0  0  0  0  0  0  0  0  0  0
   -4.0439    0.4955   29.9072 C   0  0  0  0  0  0  0  0  0  0  0  0
   -2.4626   -1.2464   30.1385 C   0  0  0  0  0  0  0  0  0  0  0  0
   -4.8371   -1.6308   30.7434 C   0  0  0  0  0  0  0  0  0  0  0  0
   -5.2771   -2.5271   30.8439 C   0  0  0  0  0  0  0  0  0  0  0  0
   -6.1325   -2.9684   31.9457 C   0  0  0  0  0  0  0  0  0  0  0  0
   -6.3492   -2.0134   32.9637 C   0  0  0  0  0  0  0  0  0  0  0  0
   -5.7218   -0.8297   32.9571 C   0  0  0  0  0  0  0  0  0  0  0  0
   -4.9285   -0.5267   31.9817 C   0  0  0  0  0  0  0  0  0  0  0  0
   -3.2668   -0.7748   27.3909 C   0  0  0  0  0  0  0  0  0  0  0  0
   -3.8949   -2.9289   28.2744 C   0  0  0  0  0  0  0  0  0  0  0  0
   -3.5800   -3.4938   27.1039 C   0  0  1  0  0  0  0  0  0  0  0  0
   -2.9603   -1.3331   26.1013 C   0  0  0  0  0  0  0  0  0  0  0  0
   -2.6109   -2.7240   26.2358 C   0  0  0  0  0  0  0  0  0  0  0  0
   -3.1777   -4.8961   27.0618 C   0  0  0  0  0  0  0  0  0  0  0  0
   -3.1852   -5.4383   25.9788 C   0  0  0  0  0  0  0  0  0  0  0  0
  6  9  1  0
 15 17  1  0
  4 18  1  0
 20 24  1  0
 24 25  1  1
 25 26  1  0
 25 27  1  0
 25 28  1  0
 24 34  1  0
 24 35  1  0
 34 37  1  0
 36 38  1  0
 37 38  1  0
 36 39  1  1
 39 40  2  0
 36 35  1  0
  1  3  1  0
  3  4  2  0
  4  5  1  0
  5  6  2  0
  6  7  1  0
  1  2  2  0
  2  8  1  0
  8 15  2  0
 15 16  1  0
 16  7  2  0
  7  1  1  0
  9 10  2  0
 10 11  1  0
 11 12  2  0
 12 13  1  0
 13 14  2  0
 14  9  1  0
 18 19  2  0
 19 20  1  0
 20 21  2  0
 21 23  1  0
 23 22  2  0
 22 18  1  0
 28 29  2  0
 29 30  1  0
 30 31  2  0
 31 32  1  0
 32 33  2  0
 33 28  1  0
M  END
$$$$
