No_5235-complexes_sdf/6BKW-FPZ/2024-09-17-14-21-01/
     RDKit          3D

 18 20  0  0  0  0  0  0  0  0999 V2000
   -7.9040    3.9820   27.1177 C   0  0  0  0  0  0  0  0  0  0  0  0
   -7.8663    4.8694   27.9238 C   0  0  0  0  0  0  0  0  0  0  0  0
   -9.0491    3.8523   26.2542 C   0  0  0  0  0  0  0  0  0  0  0  0
   -8.7661    5.9491   27.9690 C   0  0  0  0  0  0  0  0  0  0  0  0
   -9.9295    4.8502   26.2323 C   0  0  0  0  0  0  0  0  0  0  0  0
   -9.8077    5.9288   27.0933 C   0  0  0  0  0  0  0  0  0  0  0  0
   -7.0120    2.8934   27.1747 N   0  0  0  0  0  0  0  0  0  0  0  0
   -5.9584    2.9314   27.9624 C   0  0  0  0  0  0  0  0  0  0  0  0
   -5.1075    1.6948   27.9648 C   0  0  0  0  0  0  0  0  0  0  0  0
   -7.5775    1.5462   27.0148 C   0  0  1  0  0  0  0  0  0  0  0  0
   -8.8163    1.3755   26.4347 C   0  0  0  0  0  0  0  0  0  0  0  0
   -9.4803    2.5442   25.8550 C   0  0  1  0  0  0  0  0  0  0  0  0
   -6.7469    0.4791   27.1459 C   0  0  0  0  0  0  0  0  0  0  0  0
   -5.5210    0.5881   27.7243 C   0  0  0  0  0  0  0  0  0  0  0  0
  -10.9066    2.4974   25.6642 C   0  0  0  0  0  0  0  0  0  0  0  0
  -11.1489    2.3820   24.1968 C   0  0  0  0  0  0  0  0  0  0  0  0
  -12.4591    2.4487   23.7253 C   0  0  0  0  0  0  0  0  0  0  0  0
  -12.7004    2.3956   22.3655 C   0  0  0  0  0  0  0  0  0  0  0  0
  1  7  1  0
  7  8  1  0
  7 10  1  0
 10 11  1  6
  3 12  1  0
 12 11  1  1
 10 13  1  0
  9 14  1  0
 12 15  1  0
 15 16  2  3
 16 17  1  0
 17 18  2  0
  8  9  1  0
 14 13  1  0
  1  2  2  0
  2  4  1  0
  4  6  2  0
  6  5  1  0
  5  3  2  0
  3  1  1  0
M  END
$$$$
