No_5808-complexes_sdf/6BKW-FPZ/2024-09-17-14-21-01/
     RDKit          3D

 21 23  0  0  0  0  0  0  0  0999 V2000
   -7.7129    4.2099   27.0854 C   0  0  0  0  0  0  0  0  0  0  0  0
   -7.7814    5.1722   27.8972 C   0  0  0  0  0  0  0  0  0  0  0  0
   -8.8998    3.8713   26.3707 C   0  0  0  0  0  0  0  0  0  0  0  0
   -9.9938    4.6774   26.5446 C   0  0  0  0  0  0  0  0  0  0  0  0
   -8.7789    6.1536   27.9256 C   0  0  0  0  0  0  0  0  0  0  0  0
   -9.9428    5.8398   27.2296 C   0  0  0  0  0  0  0  0  0  0  0  0
   -8.9075    2.7268   25.6172 N   0  0  0  0  0  0  0  0  0  0  0  0
   -8.3680    1.5668   26.0857 C   0  0  0  0  0  0  0  0  0  0  0  0
   -7.9330    1.3977   27.2716 C   0  0  0  0  0  0  0  0  0  0  0  0
   -8.4564    0.5054   25.0515 C   0  0  0  0  0  0  0  0  0  0  0  0
   -7.1479    0.2121   27.4160 C   0  0  0  0  0  0  0  0  0  0  0  0
   -7.7703   -0.6440   25.3098 C   0  0  0  0  0  0  0  0  0  0  0  0
   -7.1484   -0.8162   26.5378 C   0  0  0  0  0  0  0  0  0  0  0  0
   -9.6322    2.8477   24.3569 C   0  0  0  0  0  0  0  0  0  0  0  0
  -10.1113    1.8223   23.6898 C   0  0  0  0  0  0  0  0  0  0  0  0
   -9.2103    0.6648   23.8897 C   0  0  2  0  0  0  0  0  0  0  0  0
   -9.3254   -0.4435   22.9725 C   0  0  0  0  0  0  0  0  0  0  0  0
   -9.9481   -1.2605   22.7344 C   0  0  0  0  0  0  0  0  0  0  0  0
   -9.8419   -2.2741   21.6637 C   0  0  0  0  0  0  0  0  0  0  0  0
   -8.6846   -2.1910   20.8679 C   0  0  0  0  0  0  0  0  0  0  0  0
   -7.7132   -1.2600   21.1469 C   0  0  0  0  0  0  0  0  0  0  0  0
  3  7  1  0
  7  8  1  0
  7 14  1  0
 10 16  1  0
 16 15  1  1
 16 17  1  0
 17 18  2  3
 18 19  1  0
 19 20  2  3
 20 21  1  0
 15 14  1  0
  8  9  2  0
  9 11  1  0
 11 13  2  0
 13 12  1  0
 12 10  2  0
 10  8  1  0
  1  2  2  0
  2  5  1  0
  5  6  2  0
  6  4  1  0
  4  3  2  0
  3  1  1  0
M  END
$$$$
