No_5140-complexes_sdf/6BKW-FPZ/2024-09-17-14-21-01/
     RDKit          3D

 10 10  0  0  0  0  0  0  0  0999 V2000
   -7.9040    3.9820   27.1177 C   0  0  0  0  0  0  0  0  0  0  0  0
   -7.8663    4.8694   27.9238 C   0  0  0  0  0  0  0  0  0  0  0  0
   -7.4698    2.6989   27.4277 C   0  0  0  0  0  0  0  0  0  0  0  0
   -7.9683    1.5964   26.8266 C   0  0  0  0  0  0  0  0  0  0  0  0
   -8.9850    1.7954   26.1965 C   0  0  0  0  0  0  0  0  0  0  0  0
   -9.5735    0.5755   25.5008 C   0  0  0  0  0  0  0  0  0  0  0  0
   -8.9804    3.8633   26.1615 C   0  0  0  0  0  0  0  0  0  0  0  0
   -9.5514    2.9073   25.7283 C   0  0  0  0  0  0  0  0  0  0  0  0
   -8.0303    6.3666   27.5510 C   0  0  0  0  0  0  0  0  0  0  0  0
   -9.6141   -0.5594   25.9216 C   0  0  0  0  0  0  0  0  0  0  0  0
  1  2  2  3
  1  3  1  0
  3  4  1  0
  4  5  1  0
  5  6  1  0
  1  7  1  0
  5  8  1  0
  7  8  1  0
  2  9  1  0
  6 10  2  0
M  END
$$$$
