No_5322-complexes_sdf/6BKW-FPZ/2024-09-17-14-21-01/
     RDKit          3D

 22 24  0  0  0  0  0  0  0  0999 V2000
   -7.2496    3.8871   27.4508 C   0  0  0  0  0  0  0  0  0  0  0  0
   -8.5096    4.0291   27.2770 C   0  0  0  0  0  0  0  0  0  0  0  0
   -9.2677    5.1714   27.5773 C   0  0  0  0  0  0  0  0  0  0  0  0
   -9.2765    2.8248   26.8371 C   0  0  0  0  0  0  0  0  0  0  0  0
   -8.6731    1.7312   26.5464 C   0  0  0  0  0  0  0  0  0  0  0  0
   -6.5350    2.6522   27.3724 C   0  0  0  0  0  0  0  0  0  0  0  0
   -7.2308    1.5739   26.9609 C   0  0  0  0  0  0  0  0  0  0  0  0
  -10.3454    5.1485   28.1265 F   0  0  0  0  0  0  0  0  0  0  0  0
   -8.4825    6.0381   28.4292 F   0  0  0  0  0  0  0  0  0  0  0  0
   -9.2272    5.9953   26.4192 F   0  0  0  0  0  0  0  0  0  0  0  0
   -5.2431    2.5413   27.7002 N   0  0  0  0  0  0  0  0  0  0  0  0
   -6.5959    0.2761   26.7885 C   0  0  0  0  0  0  0  0  0  0  0  0
   -6.7169   -0.5836   27.8144 C   0  0  2  0  0  0  0  0  0  0  0  0
   -6.2787   -1.6023   28.1634 C   0  0  0  0  0  0  0  0  0  0  0  0
   -6.5938   -2.3739   29.4108 C   0  0  0  0  0  0  0  0  0  0  0  0
   -7.7478   -2.0783   30.0125 C   0  0  0  0  0  0  0  0  0  0  0  0
   -8.6619   -1.9785   29.4921 C   0  0  0  0  0  0  0  0  0  0  0  0
   -8.6920   -0.9860   28.2713 C   0  0  2  0  0  0  0  0  0  0  0  0
   -7.9508   -0.3718   27.7093 N   0  0  0  0  0  0  0  0  0  0  0  0
   -8.8696    0.0470   26.6989 C   0  0  0  0  0  0  0  0  0  0  0  0
  -10.0120   -0.6293   28.0622 N   0  0  0  0  0  0  0  0  0  0  0  0
   -9.7571   -0.3173   26.1732 O   0  0  0  0  0  0  0  0  0  0  0  0
  2  3  1  0
  3  8  1  0
  3  9  1  0
  3 10  1  0
  6 11  1  0
  7 12  1  0
 13 14  1  0
 14 15  2  0
 15 16  1  0
 16 17  2  0
 17 18  1  0
 13 19  1  0
 18 19  1  0
  5 20  1  0
 19 20  1  0
 18 21  1  1
 20 22  2  0
 13 12  1  6
  1  2  2  0
  2  4  1  0
  4  5  2  0
  5  7  1  0
  7  6  2  0
  6  1  1  0
M  END
$$$$
