No_5145-complexes_sdf/6BKW-FPZ/2024-09-17-14-21-01/
     RDKit          3D

 31 35  0  0  0  0  0  0  0  0999 V2000
   -7.7129    4.2099   27.0854 C   0  0  0  0  0  0  0  0  0  0  0  0
   -7.7814    5.1722   27.8972 C   0  0  0  0  0  0  0  0  0  0  0  0
   -7.2983    2.9533   27.5684 C   0  0  0  0  0  0  0  0  0  0  0  0
   -7.6908    1.8111   26.9553 C   0  0  1  0  0  0  0  0  0  0  0  0
   -8.6533    1.9165   25.9430 C   0  0  0  0  0  0  0  0  0  0  0  0
   -9.2376    3.0581   25.6387 C   0  0  0  0  0  0  0  0  0  0  0  0
   -8.8901    4.1760   26.2867 C   0  0  0  0  0  0  0  0  0  0  0  0
   -8.2313    6.2997   27.8103 N   0  0  0  0  0  0  0  0  0  0  0  0
   -9.2168    6.5979   26.8458 C   0  0  0  0  0  0  0  0  0  0  0  0
   -9.5483    5.4532   26.0021 C   0  0  0  0  0  0  0  0  0  0  0  0
   -7.0247    0.5414   27.2060 C   0  0  0  0  0  0  0  0  0  0  0  0
   -5.7862    0.4825   27.8722 C   0  0  0  0  0  0  0  0  0  0  0  0
   -5.1775   -0.7273   28.1754 C   0  0  0  0  0  0  0  0  0  0  0  0
   -5.8668   -1.8729   27.9284 C   0  0  0  0  0  0  0  0  0  0  0  0
   -7.6616   -0.7139   26.9560 C   0  0  0  0  0  0  0  0  0  0  0  0
   -7.1066   -1.8715   27.3678 C   0  0  0  0  0  0  0  0  0  0  0  0
   -3.8580   -0.6754   28.8888 C   0  0  2  0  0  0  0  0  0  0  0  0
   -3.9816   -0.1170   30.2768 C   0  0  0  0  0  0  0  0  0  0  0  0
   -2.7984    0.0765   28.1192 C   0  0  0  0  0  0  0  0  0  0  0  0
   -3.3332   -2.1323   29.0426 C   0  0  0  0  0  0  0  0  0  0  0  0
   -4.6274   -0.3850   31.2503 C   0  0  0  0  0  0  0  0  0  0  0  0
   -5.3320   -1.4691   31.5221 C   0  0  0  0  0  0  0  0  0  0  0  0
   -6.1208   -1.6855   32.6731 C   0  0  0  0  0  0  0  0  0  0  0  0
   -5.8626   -0.7627   33.7665 C   0  0  0  0  0  0  0  0  0  0  0  0
   -4.8926    0.1988   33.6275 C   0  0  0  0  0  0  0  0  0  0  0  0
   -4.2422    0.4592   32.4741 C   0  0  0  0  0  0  0  0  0  0  0  0
   -2.2190   -2.5609   29.2104 C   0  0  0  0  0  0  0  0  0  0  0  0
   -1.8544   -3.8682   29.3894 C   0  0  0  0  0  0  0  0  0  0  0  0
   -2.8498   -4.7612   29.2422 C   0  0  0  0  0  0  0  0  0  0  0  0
   -4.1404   -4.4113   28.9644 C   0  0  0  0  0  0  0  0  0  0  0  0
   -4.4173   -3.0770   28.8809 C   0  0  0  0  0  0  0  0  0  0  0  0
  1  3  1  0
  3  4  1  0
  4  5  1  0
  5  6  1  0
  6  7  1  0
  4 11  1  6
 13 17  1  0
 17 18  1  0
 17 19  1  6
 17 20  1  0
 18 21  1  0
  1  2  2  0
  2  8  1  0
  8  9  2  0
  9 10  1  0
 10  7  2  0
  7  1  1  0
 20 27  2  0
 27 28  1  0
 28 29  2  0
 29 30  1  0
 30 31  2  0
 31 20  1  0
 11 12  2  0
 12 13  1  0
 13 14  2  0
 14 16  1  0
 16 15  2  0
 15 11  1  0
 21 22  2  0
 22 23  1  0
 23 24  2  0
 24 25  1  0
 25 26  2  0
 26 21  1  0
M  END
$$$$
