No_5878-complexes_sdf/6BKW-FPZ/2024-09-17-14-21-01/
     RDKit          3D

 13 14  0  0  0  0  0  0  0  0999 V2000
   -7.7129    4.2099   27.0854 C   0  0  0  0  0  0  0  0  0  0  0  0
   -7.7814    5.1722   27.8972 C   0  0  0  0  0  0  0  0  0  0  0  0
   -7.3155    2.9700   27.6145 C   0  0  0  0  0  0  0  0  0  0  0  0
   -7.9010    1.7962   27.2023 C   0  0  0  0  0  0  0  0  0  0  0  0
   -9.0217    1.7658   27.1545 C   0  0  0  0  0  0  0  0  0  0  0  0
   -8.8433    4.0596   26.1987 C   0  0  0  0  0  0  0  0  0  0  0  0
   -9.5672    2.8829   26.2551 C   0  0  0  0  0  0  0  0  0  0  0  0
  -10.8629    2.7526   25.5722 C   0  0  0  0  0  0  0  0  0  0  0  0
  -10.9558    1.7051   24.6706 C   0  0  0  0  0  0  0  0  0  0  0  0
  -12.0629    1.6273   23.8645 C   0  0  0  0  0  0  0  0  0  0  0  0
  -11.1116    4.0414   24.6886 C   0  0  0  0  0  0  0  0  0  0  0  0
  -12.3184    2.8243   23.0397 C   0  0  0  0  0  0  0  0  0  0  0  0
  -12.3648    4.0179   23.9165 C   0  0  0  0  0  0  0  0  0  0  0  0
  1  2  1  0
  7  8  1  0
  8  9  2  0
  9 10  1  0
 10 12  2  0
 12 13  1  0
 13 11  2  0
 11  8  1  0
  1  3  2  0
  3  4  1  0
  4  5  2  0
  5  7  1  0
  7  6  2  0
  6  1  1  0
M  END
$$$$
