No_5919-complexes_sdf/6BKW-FPZ/2024-09-17-14-21-01/
     RDKit          3D

 25 28  0  0  0  0  0  0  0  0999 V2000
   -7.2496    3.8871   27.4508 C   0  0  0  0  0  0  0  0  0  0  0  0
   -7.6161    2.7143   27.1523 C   0  0  0  0  0  0  0  0  0  0  0  0
   -8.6212    2.2239   26.4073 C   0  0  0  0  0  0  0  0  0  0  0  0
   -8.2540    4.9237   27.1711 C   0  0  0  0  0  0  0  0  0  0  0  0
   -9.3729    4.5806   26.4433 C   0  0  0  0  0  0  0  0  0  0  0  0
   -9.5830    3.2969   26.1026 C   0  0  0  0  0  0  0  0  0  0  0  0
   -7.9420    6.1850   27.5089 F   0  0  0  0  0  0  0  0  0  0  0  0
   -8.8887    0.8876   26.0723 C   0  0  0  0  0  0  0  0  0  0  0  0
   -9.1564    0.5001   25.0348 N   0  0  0  0  0  0  0  0  0  0  0  0
   -9.7720    1.0731   24.1391 C   0  0  0  0  0  0  0  0  0  0  0  0
   -9.7963    1.0308   23.1354 C   0  0  0  0  0  0  0  0  0  0  0  0
  -10.4675    1.8226   22.0254 C   0  0  0  0  0  0  0  0  0  0  0  0
  -11.1455    2.8970   22.5031 C   0  0  0  0  0  0  0  0  0  0  0  0
  -11.1778    3.1432   23.8130 C   0  0  0  0  0  0  0  0  0  0  0  0
  -10.4716    2.4065   24.6977 C   0  0  0  0  0  0  0  0  0  0  0  0
   -8.8424   -0.9184   24.5751 C   0  0  1  0  0  0  0  0  0  0  0  0
   -8.3361   -1.7147   25.5648 C   0  0  0  0  0  0  0  0  0  0  0  0
   -9.7289   -1.3289   23.6116 C   0  0  0  0  0  0  0  0  0  0  0  0
   -9.8257   -0.4192   22.4260 C   0  0  0  0  0  0  0  0  0  0  0  0
   -6.8695   -1.8185   25.4759 C   0  0  0  0  0  0  0  0  0  0  0  0
   -6.1920   -1.8115   26.5759 C   0  0  0  0  0  0  0  0  0  0  0  0
   -4.7707   -1.4315   26.6729 C   0  0  0  0  0  0  0  0  0  0  0  0
   -4.1072   -1.1924   27.9082 C   0  0  0  0  0  0  0  0  0  0  0  0
   -4.8312   -1.3710   29.1059 C   0  0  0  0  0  0  0  0  0  0  0  0
   -6.1852   -1.6529   29.0388 C   0  0  0  0  0  0  0  0  0  0  0  0
  4  7  1  0
  3  8  1  0
  8  9  1  0
  9 10  1  0
  6 15  1  0
  9 16  1  0
 16 17  1  1
 16 18  1  0
 11 19  1  0
 18 19  1  0
 17 20  1  0
 20 21  2  3
 21 22  1  0
 22 23  2  3
 23 24  1  0
 24 25  2  0
  1  2  2  0
  2  3  1  0
  3  6  2  0
  6  5  1  0
  5  4  2  0
  4  1  1  0
 10 15  2  0
 15 14  1  0
 14 13  2  0
 13 12  1  0
 12 11  2  0
 11 10  1  0
M  END
$$$$
