No_5397-complexes_sdf/6BKW-FPZ/2024-09-17-14-21-01/
     RDKit          3D

 31 34  0  0  0  0  0  0  0  0999 V2000
   -7.2496    3.8871   27.4508 C   0  0  0  0  0  0  0  0  0  0  0  0
   -7.9379    4.9063   27.8518 C   0  0  0  0  0  0  0  0  0  0  0  0
   -7.5112    6.1898   27.6280 C   0  0  0  0  0  0  0  0  0  0  0  0
   -7.8078    2.6331   27.2522 C   0  0  2  0  0  0  0  0  0  0  0  0
   -9.1846    2.4724   27.5426 C   0  0  1  0  0  0  0  0  0  0  0  0
   -9.9168    3.5155   28.0405 C   0  0  0  0  0  0  0  0  0  0  0  0
   -9.3366    4.7962   28.1727 C   0  0  0  0  0  0  0  0  0  0  0  0
  -11.3251    3.2741   28.4031 C   0  0  0  0  0  0  0  0  0  0  0  0
  -12.2439    3.1527   27.5432 C   0  0  0  0  0  0  0  0  0  0  0  0
  -12.0060    3.1051   26.2279 C   0  0  0  0  0  0  0  0  0  0  0  0
  -13.0664    3.0267   25.2574 C   0  0  0  0  0  0  0  0  0  0  0  0
  -12.7271    3.0787   23.8509 C   0  0  0  0  0  0  0  0  0  0  0  0
  -11.3716    3.2985   23.4642 C   0  0  0  0  0  0  0  0  0  0  0  0
  -10.3963    3.4869   24.4231 C   0  0  0  0  0  0  0  0  0  0  0  0
  -10.7062    3.4735   25.6874 C   0  0  0  0  0  0  0  0  0  0  0  0
   -7.1708    1.3726   27.0346 C   0  0  0  0  0  0  0  0  0  0  0  0
   -7.7088    0.3995   26.1995 C   0  0  0  0  0  0  0  0  0  0  0  0
   -8.6469    0.4604   25.6248 C   0  0  0  0  0  0  0  0  0  0  0  0
   -9.1469   -0.5664   24.7885 C   0  0  0  0  0  0  0  0  0  0  0  0
   -9.8500    1.3867   26.9183 C   0  0  0  0  0  0  0  0  0  0  0  0
  -10.7149    0.5692   27.1255 O   0  0  0  0  0  0  0  0  0  0  0  0
   -9.9816    1.5900   25.8168 O   0  0  0  0  0  0  0  0  0  0  0  0
  -10.0242   -0.4593   23.9892 C   0  0  0  0  0  0  0  0  0  0  0  0
  -10.4272   -1.4111   23.0309 C   0  0  0  0  0  0  0  0  0  0  0  0
  -11.6301   -1.2561   22.2195 C   0  0  0  0  0  0  0  0  0  0  0  0
  -12.3334   -0.0624   22.4117 C   0  0  0  0  0  0  0  0  0  0  0  0
  -12.0181    0.8702   23.3366 C   0  0  0  0  0  0  0  0  0  0  0  0
  -10.8648    0.5420   24.1386 C   0  0  0  0  0  0  0  0  0  0  0  0
  -10.7353    1.4710   24.7126 O   0  0  0  0  0  0  0  0  0  0  0  0
  -11.4787    2.1426   24.7375 Br  0  0  0  0  0  0  0  0  0  0  0  0
  -10.7415    4.3271   24.8217 Cl  0  0  0  0  0  0  0  0  0  0  0  0
  1  2  1  0
  2  3  2  0
  4  1  1  1
  4  5  1  0
  5  6  1  6
  2  7  1  0
  6  7  1  0
  6  8  1  0
  8  9  2  3
  9 10  1  0
  4 16  1  0
 16 17  1  0
 17 18  2  0
 18 19  1  0
  5 20  1  0
 20 21  2  0
 18 22  1  0
 20 22  1  0
 19 23  1  0
 28 29  1  0
 29 30  1  0
 15 31  1  0
 23 24  2  0
 24 25  1  0
 25 26  2  0
 26 27  1  0
 27 28  2  0
 28 23  1  0
 10 11  2  0
 11 12  1  0
 12 13  2  0
 13 14  1  0
 14 15  2  0
 15 10  1  0
M  END
$$$$
