No_5887-complexes_sdf/6BKW-FPZ/2024-09-17-14-21-01/
     RDKit          3D

 34 39  0  0  0  0  0  0  0  0999 V2000
   -7.2496    3.8871   27.4508 C   0  0  0  0  0  0  0  0  0  0  0  0
   -7.9379    4.9063   27.8518 C   0  0  0  0  0  0  0  0  0  0  0  0
   -8.7729    5.5444   27.0168 C   0  0  0  0  0  0  0  0  0  0  0  0
   -6.2858    3.2138   28.3467 C   0  0  0  0  0  0  0  0  0  0  0  0
   -9.2459    4.9714   25.8185 C   0  0  0  0  0  0  0  0  0  0  0  0
  -10.1750    5.5148   24.9927 C   0  0  0  0  0  0  0  0  0  0  0  0
   -5.3683    2.1905   27.7005 C   0  0  0  0  0  0  0  0  0  0  0  0
   -8.7866    3.6341   25.5208 C   0  0  0  0  0  0  0  0  0  0  0  0
   -7.8759    3.0396   26.4213 C   0  0  0  0  0  0  0  0  0  0  0  0
   -4.4617    1.6180   28.6461 C   0  0  0  0  0  0  0  0  0  0  0  0
   -4.8261    0.6086   29.4250 C   0  0  0  0  0  0  0  0  0  0  0  0
   -3.8514    0.0999   30.3998 C   0  0  0  0  0  0  0  0  0  0  0  0
   -4.2729   -0.6716   31.4643 C   0  0  0  0  0  0  0  0  0  0  0  0
   -5.5499   -1.3032   31.4068 C   0  0  0  0  0  0  0  0  0  0  0  0
   -6.3425   -1.0876   30.2909 C   0  0  0  0  0  0  0  0  0  0  0  0
   -5.9862   -0.1408   29.3528 C   0  0  0  0  0  0  0  0  0  0  0  0
   -5.9774   -2.2798   32.4510 C   0  0  0  0  0  0  0  0  0  0  0  0
   -7.1507   -2.4176   32.6245 O   0  0  0  0  0  0  0  0  0  0  0  0
   -5.0662   -2.8377   33.2725 N   0  0  0  0  0  0  0  0  0  0  0  0
   -5.4624   -3.7065   34.3432 C   0  0  2  0  0  0  0  0  0  0  0  0
   -6.5245   -3.8305   34.7728 C   0  0  0  0  0  0  0  0  0  0  0  0
   -4.2507   -4.3659   34.8582 C   0  0  0  0  0  0  0  0  0  0  0  0
   -3.0845   -3.8492   34.8878 C   0  0  0  0  0  0  0  0  0  0  0  0
   -2.7631   -2.9387   33.8525 C   0  0  0  0  0  0  0  0  0  0  0  0
   -3.6950   -2.3810   33.1230 C   0  0  0  0  0  0  0  0  0  0  0  0
   -3.3333   -1.3333   32.1342 C   0  0  0  0  0  0  0  0  0  0  0  0
   -7.2720   -4.9265   34.7042 C   0  0  0  0  0  0  0  0  0  0  0  0
   -8.5875   -5.0433   35.1643 C   0  0  0  0  0  0  0  0  0  0  0  0
   -9.2136   -3.8958   35.7524 C   0  0  0  0  0  0  0  0  0  0  0  0
   -8.4924   -2.7167   35.9017 C   0  0  0  0  0  0  0  0  0  0  0  0
   -7.2113   -2.6150   35.4290 C   0  0  0  0  0  0  0  0  0  0  0  0
  -10.8708    4.6084   24.0948 C   0  0  0  0  0  0  0  0  0  0  0  0
  -10.4688    3.3496   23.9395 C   0  0  0  0  0  0  0  0  0  0  0  0
   -9.4349    2.8703   24.6251 C   0  0  0  0  0  0  0  0  0  0  0  0
  1  4  1  0
  4  7  2  3
  7 10  1  0
 10 11  1  0
 14 17  1  0
 17 18  2  0
 17 19  1  0
 19 20  1  0
 20 21  1  1
 20 22  1  0
 23 24  1  0
 19 25  1  0
 13 26  1  0
 25 26  1  0
 22 23  1  0
 24 25  1  0
  1  2  2  0
  2  3  1  0
  3  5  2  0
  8  9  2  0
  9  1  1  0
 21 27  2  0
 27 28  1  0
 28 29  2  0
 29 30  1  0
 30 31  2  0
 31 21  1  0
 11 12  2  0
 12 13  1  0
 13 14  2  0
 14 15  1  0
 15 16  2  0
 16 11  1  0
  5  6  1  0
  6 32  2  0
 32 33  1  0
 33 34  2  0
 34  8  1  0
  8  5  1  0
M  END
$$$$
