No_5843-complexes_sdf/6BKW-FPZ/2024-09-17-14-21-01/
     RDKit          3D

 40 45  0  0  0  0  0  0  0  0999 V2000
   -7.9040    3.9820   27.1177 C   0  0  0  0  0  0  0  0  0  0  0  0
   -7.8663    4.8694   27.9238 C   0  0  0  0  0  0  0  0  0  0  0  0
   -9.0491    3.8523   26.2542 C   0  0  0  0  0  0  0  0  0  0  0  0
   -8.7661    5.9491   27.9690 C   0  0  0  0  0  0  0  0  0  0  0  0
   -9.9295    4.8502   26.2323 C   0  0  0  0  0  0  0  0  0  0  0  0
   -9.8077    5.9288   27.0933 C   0  0  0  0  0  0  0  0  0  0  0  0
   -6.9606    2.7994   27.1981 C   0  0  0  0  0  0  0  0  0  0  0  0
   -7.3659    1.5557   26.7971 N   0  0  0  0  0  0  0  0  0  0  0  0
   -5.7163    2.9810   27.6638 N   0  0  0  0  0  0  0  0  0  0  0  0
   -6.3601    0.6853   27.1240 C   0  0  0  0  0  0  0  0  0  0  0  0
   -5.3345    1.5508   27.6915 C   0  0  0  0  0  0  0  0  0  0  0  0
   -4.0944    1.2236   28.1724 N   0  0  0  0  0  0  0  0  0  0  0  0
   -3.7630   -0.1133   28.3075 C   0  0  0  0  0  0  0  0  0  0  0  0
   -2.5913   -0.4958   28.8987 C   0  0  0  0  0  0  0  0  0  0  0  0
   -2.2568   -1.8592   29.0988 C   0  0  0  0  0  0  0  0  0  0  0  0
   -3.1784   -2.7714   28.6888 C   0  0  0  0  0  0  0  0  0  0  0  0
   -4.5334   -1.2036   28.0456 C   0  0  0  0  0  0  0  0  0  0  0  0
   -4.2964   -2.4532   28.2508 C   0  0  0  0  0  0  0  0  0  0  0  0
   -5.8815   -0.5824   27.4718 C   0  0  0  0  0  0  0  0  0  0  0  0
   -6.9950   -1.6372   27.0663 C   0  0  0  0  0  0  0  0  0  0  0  0
   -7.6344   -2.1240   28.1985 C   0  0  0  0  0  0  0  0  0  0  0  0
   -8.7171   -2.9763   28.0244 C   0  0  0  0  0  0  0  0  0  0  0  0
   -9.1493   -3.1926   26.7213 C   0  0  0  0  0  0  0  0  0  0  0  0
   -7.3714   -1.8584   25.8431 C   0  0  0  0  0  0  0  0  0  0  0  0
   -8.4438   -2.6681   25.6471 C   0  0  0  0  0  0  0  0  0  0  0  0
   -6.6425   -1.2902   24.6839 C   0  0  2  0  0  0  0  0  0  0  0  0
   -7.1903   -0.5655   23.7727 C   0  0  0  0  0  0  0  0  0  0  0  0
   -5.2352   -1.7245   24.5195 C   0  0  0  0  0  0  0  0  0  0  0  0
   -6.5564   -0.2212   22.5615 C   0  0  0  0  0  0  0  0  0  0  0  0
   -4.5710   -2.5850   25.5112 C   0  0  0  0  0  0  0  0  0  0  0  0
   -3.2046   -2.8903   25.0104 C   0  0  0  0  0  0  0  0  0  0  0  0
   -8.5469    0.0074   23.9794 C   0  0  0  0  0  0  0  0  0  0  0  0
   -9.2678    0.6106   22.9046 C   0  0  0  0  0  0  0  0  0  0  0  0
   -7.3420    0.4245   21.5055 C   0  0  0  0  0  0  0  0  0  0  0  0
   -8.5677    0.8840   21.7548 C   0  0  0  0  0  0  0  0  0  0  0  0
   -2.3092   -3.6188   25.3544 C   0  0  0  0  0  0  0  0  0  0  0  0
   -2.4687   -4.5438   26.3177 C   0  0  0  0  0  0  0  0  0  0  0  0
   -1.4191   -5.1980   26.9450 C   0  0  0  0  0  0  0  0  0  0  0  0
   -0.1538   -4.9302   26.3604 C   0  0  0  0  0  0  0  0  0  0  0  0
    0.0870   -4.0113   25.3588 C   0  0  0  0  0  0  0  0  0  0  0  0
  1  7  1  0
  7  8  2  0
  7  9  1  0
  8 10  1  0
  9 11  1  0
 19 20  1  0
 24 26  1  0
 26 28  1  6
 28 30  1  0
 30 31  1  0
 31 36  3  0
 36 37  1  0
 37 38  2  3
 38 39  1  0
 39 40  2  0
 26 27  1  0
 27 29  2  0
 29 34  1  0
 34 35  2  0
 35 33  1  0
 33 32  2  0
 32 27  1  0
 10 11  2  0
 11 12  1  0
 12 13  2  0
 17 19  2  0
 19 10  1  0
 13 14  1  0
 14 15  2  0
 15 16  1  0
 16 18  2  0
 18 17  1  0
 17 13  1  0
 20 21  2  0
 21 22  1  0
 22 23  2  0
 23 25  1  0
 25 24  2  0
 24 20  1  0
  1  2  2  0
  2  4  1  0
  4  6  2  0
  6  5  1  0
  5  3  2  0
  3  1  1  0
M  END
$$$$
