No_5445-complexes_sdf/6BKW-FPZ/2024-09-17-14-21-01/
     RDKit          3D

 16 17  0  0  0  0  0  0  0  0999 V2000
   -7.9040    3.9820   27.1177 C   0  0  0  0  0  0  0  0  0  0  0  0
   -7.8663    4.8694   27.9238 C   0  0  0  0  0  0  0  0  0  0  0  0
   -9.0501    3.8017   26.2617 C   0  0  0  0  0  0  0  0  0  0  0  0
   -9.1826    2.7026   25.3575 C   0  0  0  0  0  0  0  0  0  0  0  0
   -8.6940    6.0131   27.8614 C   0  0  0  0  0  0  0  0  0  0  0  0
   -9.9755    4.8547   26.2361 C   0  0  0  0  0  0  0  0  0  0  0  0
   -9.7316    5.7876   27.0661 C   0  0  0  0  0  0  0  0  0  0  0  0
   -8.6983    1.4566   25.7611 C   0  0  0  0  0  0  0  0  0  0  0  0
   -8.8361    0.3570   24.9174 C   0  0  0  0  0  0  0  0  0  0  0  0
   -9.4435    0.5653   23.6607 C   0  0  0  0  0  0  0  0  0  0  0  0
   -9.7616    2.7724   24.1187 C   0  0  0  0  0  0  0  0  0  0  0  0
   -9.8591    1.7768   23.2760 C   0  0  0  0  0  0  0  0  0  0  0  0
  -10.5118    2.1251   21.9713 C   0  0  0  0  0  0  0  0  0  0  0  0
  -10.3969    1.5714   21.0120 N   0  0  0  0  0  0  0  0  0  0  0  0
  -11.2922    3.3854   21.8837 C   0  0  0  0  0  0  0  0  0  0  0  0
   -9.9734    0.2240   21.0055 C   0  0  0  0  0  0  0  0  0  0  0  0
  3  4  1  0
 12 13  1  0
 13 14  2  3
 13 15  1  0
 14 16  1  0
  4  8  2  0
  8  9  1  0
  9 10  2  0
 10 12  1  0
 12 11  2  0
 11  4  1  0
  1  2  2  0
  2  5  1  0
  5  7  2  0
  7  6  1  0
  6  3  2  0
  3  1  1  0
M  END
$$$$
