No_5181-complexes_sdf/6BKW-FPZ/2024-09-17-14-21-01/
     RDKit          3D

 28 31  0  0  0  0  0  0  0  0999 V2000
   -7.2496    3.8871   27.4508 C   0  0  0  0  0  0  0  0  0  0  0  0
   -7.9379    4.9063   27.8518 C   0  0  0  0  0  0  0  0  0  0  0  0
   -9.3460    4.8223   27.8695 C   0  0  0  0  0  0  0  0  0  0  0  0
   -7.8628    2.6163   27.1065 C   0  0  0  0  0  0  0  0  0  0  0  0
   -9.2787    2.5744   27.1970 C   0  0  0  0  0  0  0  0  0  0  0  0
  -10.0108    3.6770   27.6340 C   0  0  0  0  0  0  0  0  0  0  0  0
  -11.4834    3.5674   27.7432 C   0  0  0  0  0  0  0  0  0  0  0  0
  -11.9395    2.6434   28.4995 C   0  0  0  0  0  0  0  0  0  0  0  0
  -13.2991    2.5755   28.9391 C   0  0  0  0  0  0  0  0  0  0  0  0
  -14.1285    3.5751   28.4315 C   0  0  0  0  0  0  0  0  0  0  0  0
  -13.6635    4.5859   27.6241 C   0  0  0  0  0  0  0  0  0  0  0  0
  -12.2733    4.7017   27.3545 C   0  0  0  0  0  0  0  0  0  0  0  0
   -7.0925    1.4743   26.7694 C   0  0  0  0  0  0  0  0  0  0  0  0
   -7.6180    0.6185   25.8925 N   0  0  0  0  0  0  0  0  0  0  0  0
   -7.0635   -0.5895   25.7050 C   0  0  0  0  0  0  0  0  0  0  0  0
   -6.2342    1.0798   27.6415 O   0  0  0  0  0  0  0  0  0  0  0  0
   -7.1437    6.4055   28.2348 Cl  0  0  0  0  0  0  0  0  0  0  0  0
   -7.1367   -1.0084   24.3695 C   0  0  0  0  0  0  0  0  0  0  0  0
   -7.6579   -0.1115   23.5097 C   0  0  0  0  0  0  0  0  0  0  0  0
   -8.3888    0.9700   24.7403 C   0  0  0  0  0  0  0  0  0  0  0  0
  -13.8431    1.4306   29.7049 C   0  0  0  0  0  0  0  0  0  0  0  0
  -13.9124    0.2944   29.3840 C   0  0  0  0  0  0  0  0  0  0  0  0
  -13.5664   -0.1608   28.1955 C   0  0  0  0  0  0  0  0  0  0  0  0
  -13.3523   -1.5644   27.9716 C   0  0  0  0  0  0  0  0  0  0  0  0
  -14.3069   -0.7646   30.3296 C   0  0  0  0  0  0  0  0  0  0  0  0
  -14.2217   -2.1153   30.1108 C   0  0  0  0  0  0  0  0  0  0  0  0
  -13.7747   -2.4905   28.8418 C   0  0  0  0  0  0  0  0  0  0  0  0
  -14.2001    1.9469   30.9715 O   0  0  0  0  0  0  0  0  0  0  0  0
  6  7  1  0
  4 13  1  0
 13 14  1  0
 14 15  1  0
 13 16  2  0
  2 17  1  0
 15 18  1  0
 18 19  1  0
 14 20  1  0
 19 20  1  0
  9 21  1  0
 21 22  1  0
 21 28  2  0
  1  2  2  0
  2  3  1  0
  3  6  2  0
  6  5  1  0
  5  4  2  0
  4  1  1  0
  7  8  2  0
  8  9  1  0
  9 10  2  0
 10 11  1  0
 11 12  2  0
 12  7  1  0
 22 23  2  0
 23 24  1  0
 24 27  2  0
 27 26  1  0
 26 25  2  0
 25 22  1  0
M  END
$$$$
