No_5496-complexes_sdf/6BKW-FPZ/2024-09-17-14-21-01/
     RDKit          3D

 17 18  0  0  0  0  0  0  0  0999 V2000
   -7.9040    3.9820   27.1177 C   0  0  0  0  0  0  0  0  0  0  0  0
   -8.2057    2.8231   26.8733 C   0  0  0  0  0  0  0  0  0  0  0  0
   -9.2962    2.4021   26.1155 C   0  0  0  0  0  0  0  0  0  0  0  0
   -8.7358    5.0662   26.5917 C   0  0  0  0  0  0  0  0  0  0  0  0
   -9.7618    4.7023   25.7546 C   0  0  0  0  0  0  0  0  0  0  0  0
  -10.0066    3.4105   25.4922 C   0  0  0  0  0  0  0  0  0  0  0  0
   -8.3936    6.4769   26.8843 C   0  0  0  0  0  0  0  0  0  0  0  0
   -8.0307    6.8601   28.0802 N   0  0  0  0  0  0  0  0  0  0  0  0
   -9.0720    7.3349   26.2255 F   0  0  0  0  0  0  0  0  0  0  0  0
   -7.3535    1.6755   27.4937 C   0  0  2  0  0  0  0  0  0  0  0  0
   -6.0885    1.9287   27.8314 N   0  0  0  0  0  0  0  0  0  0  0  0
   -5.3161    0.8797   28.2970 C   0  0  0  0  0  0  0  0  0  0  0  0
   -3.9529    1.1240   28.7989 C   0  0  0  0  0  0  0  0  0  0  0  0
   -7.5648    0.3297   27.3152 N   0  0  0  0  0  0  0  0  0  0  0  0
   -5.9844   -0.3221   28.1612 C   0  0  0  0  0  0  0  0  0  0  0  0
   -7.1125   -0.5571   27.6967 C   0  0  0  0  0  0  0  0  0  0  0  0
   -7.6499   -1.7746   27.6555 N   0  0  0  0  0  0  0  0  0  0  0  0
  4  7  1  0
  7  8  2  0
  7  9  1  0
 10  2  1  6
 10 11  1  0
 11 12  2  0
 12 13  1  0
 10 14  1  0
 12 15  1  0
 14 15  1  0
 14 16  1  0
 16 17  1  0
  1  2  2  0
  2  3  1  0
  3  6  2  0
  6  5  1  0
  5  4  2  0
  4  1  1  0
M  END
$$$$
