No_549-complexes_sdf/6BKW-FPZ/2024-09-17-14-21-01/
     RDKit          3D

 15 15  0  0  0  0  0  0  0  0999 V2000
   -7.9040    3.9820   27.1177 C   0  0  0  0  0  0  0  0  0  0  0  0
   -7.8663    4.8694   27.9238 C   0  0  0  0  0  0  0  0  0  0  0  0
   -9.0501    3.8017   26.2617 C   0  0  0  0  0  0  0  0  0  0  0  0
  -10.0189    4.7608   26.3707 C   0  0  0  0  0  0  0  0  0  0  0  0
   -8.6973    5.9722   27.8968 C   0  0  0  0  0  0  0  0  0  0  0  0
   -9.8216    5.8946   27.1241 C   0  0  0  0  0  0  0  0  0  0  0  0
   -9.3656    2.6887   25.4285 C   0  0  0  0  0  0  0  0  0  0  0  0
   -8.7639    1.5580   25.6650 N   0  0  0  0  0  0  0  0  0  0  0  0
   -8.7248    0.5241   24.7937 C   0  0  0  0  0  0  0  0  0  0  0  0
  -10.2355    2.7076   24.5943 O   0  0  0  0  0  0  0  0  0  0  0  0
   -9.1534   -0.7430   25.3248 C   0  0  0  0  0  0  0  0  0  0  0  0
   -9.3500   -0.8037   26.6484 C   0  0  0  0  0  0  0  0  0  0  0  0
   -9.1628    0.3164   27.5498 C   0  0  0  0  0  0  0  0  0  0  0  0
   -9.1726    1.2911   27.2129 C   0  0  0  0  0  0  0  0  0  0  0  0
   -9.3512    2.2962   28.0660 O   0  0  0  0  0  0  0  0  0  0  0  0
  3  7  1  0
  7  8  1  0
  8  9  1  0
  7 10  2  0
  9 11  1  0
 11 12  2  3
 12 13  1  0
 13 14  1  0
 14 15  2  0
  1  2  2  0
  2  5  1  0
  5  6  2  0
  6  4  1  0
  4  3  2  0
  3  1  1  0
M  END
$$$$
