No_5965-complexes_sdf/6BKW-FPZ/2024-09-17-14-21-01/
     RDKit          3D

 20 22  0  0  0  0  0  0  0  0999 V2000
   -7.9040    3.9820   27.1177 C   0  0  0  0  0  0  0  0  0  0  0  0
   -7.8663    4.8694   27.9238 C   0  0  0  0  0  0  0  0  0  0  0  0
   -9.0501    3.8017   26.2617 C   0  0  0  0  0  0  0  0  0  0  0  0
  -10.0189    4.7608   26.3707 C   0  0  0  0  0  0  0  0  0  0  0  0
   -8.6770    5.9780   27.9222 C   0  0  0  0  0  0  0  0  0  0  0  0
   -9.8040    5.8752   27.0958 C   0  0  0  0  0  0  0  0  0  0  0  0
   -9.1330    2.7041   25.4716 N   0  0  0  0  0  0  0  0  0  0  0  0
  -10.0634    1.8645   25.4786 C   0  0  0  0  0  0  0  0  0  0  0  0
  -11.0020    1.9031   26.1498 C   0  0  0  0  0  0  0  0  0  0  0  0
   -9.7013    0.6423   24.7473 C   0  0  0  0  0  0  0  0  0  0  0  0
  -11.7445    1.2503   26.3239 C   0  0  0  0  0  0  0  0  0  0  0  0
  -10.7077   -0.3676   24.8101 C   0  0  0  0  0  0  0  0  0  0  0  0
  -11.7311   -0.1540   25.7172 C   0  0  0  0  0  0  0  0  0  0  0  0
   -8.5720    0.5662   23.8795 C   0  0  0  0  0  0  0  0  0  0  0  0
   -7.5076   -0.3449   24.1587 C   0  0  0  0  0  0  0  0  0  0  0  0
   -7.3282   -0.8643   25.4549 C   0  0  0  0  0  0  0  0  0  0  0  0
   -6.1884   -1.7048   25.6590 C   0  0  0  0  0  0  0  0  0  0  0  0
   -5.4325   -2.0164   24.5129 C   0  0  0  0  0  0  0  0  0  0  0  0
   -5.6844   -1.5619   23.2971 C   0  0  0  0  0  0  0  0  0  0  0  0
   -6.7292   -0.6580   23.1034 C   0  0  0  0  0  0  0  0  0  0  0  0
  3  7  1  0
  7  8  1  0
 10 14  1  0
 14 15  1  0
 15 16  2  0
 16 17  1  0
 17 18  2  0
 18 19  1  0
 19 20  2  0
 20 15  1  0
  8  9  2  0
  9 11  1  0
 11 13  2  0
 13 12  1  0
 12 10  2  0
 10  8  1  0
  1  2  2  0
  2  5  1  0
  5  6  2  0
  6  4  1  0
  4  3  2  0
  3  1  1  0
M  END
$$$$
