No_5318-complexes_sdf/6BKW-FPZ/2024-09-17-14-21-01/
     RDKit          3D

 40 44  0  0  0  0  0  0  0  0999 V2000
   -7.2496    3.8871   27.4508 C   0  0  0  0  0  0  0  0  0  0  0  0
   -7.9379    4.9063   27.8518 C   0  0  0  0  0  0  0  0  0  0  0  0
   -9.3376    4.8647   27.7795 C   0  0  0  0  0  0  0  0  0  0  0  0
   -7.8544    2.6294   27.0414 C   0  0  0  0  0  0  0  0  0  0  0  0
   -9.2665    2.6175   27.0340 C   0  0  0  0  0  0  0  0  0  0  0  0
   -9.9836    3.7042   27.4150 C   0  0  0  0  0  0  0  0  0  0  0  0
   -6.9190    1.5828   26.8057 C   0  0  0  0  0  0  0  0  0  0  0  0
   -5.9576    1.3731   27.7705 N   0  0  0  0  0  0  0  0  0  0  0  0
   -5.1187    0.2843   27.7773 C   0  0  0  0  0  0  0  0  0  0  0  0
   -5.3475   -0.6982   27.2945 C   0  0  0  0  0  0  0  0  0  0  0  0
   -7.2335    0.6474   26.0748 O   0  0  0  0  0  0  0  0  0  0  0  0
   -4.0559    0.5504   28.8342 C   0  0  0  0  0  0  0  0  0  0  0  0
   -3.7598   -0.4348   29.6180 C   0  0  0  0  0  0  0  0  0  0  0  0
   -4.6702   -1.9088   27.8835 C   0  0  0  0  0  0  0  0  0  0  0  0
   -3.7989   -1.7656   28.9853 C   0  0  0  0  0  0  0  0  0  0  0  0
  -11.4627    3.6369   27.4074 C   0  0  0  0  0  0  0  0  0  0  0  0
  -12.0621    2.5420   28.0168 C   0  0  0  0  0  0  0  0  0  0  0  0
  -11.7136    1.4916   28.1529 C   0  0  0  0  0  0  0  0  0  0  0  0
  -12.3638    0.3066   28.7482 C   0  0  0  0  0  0  0  0  0  0  0  0
  -13.5321    0.5990   29.3927 C   0  0  0  0  0  0  0  0  0  0  0  0
  -14.0340    1.8722   29.3934 C   0  0  0  0  0  0  0  0  0  0  0  0
  -13.3691    2.9241   28.7768 C   0  0  0  0  0  0  0  0  0  0  0  0
   -7.1353    6.3948   28.2904 Cl  0  0  0  0  0  0  0  0  0  0  0  0
   -2.7490   -0.2617   30.7559 C   0  0  0  0  0  0  0  0  0  0  0  0
   -2.0434   -1.3978   31.1953 C   0  0  0  0  0  0  0  0  0  0  0  0
   -1.8043   -2.3827   30.4201 C   0  0  0  0  0  0  0  0  0  0  0  0
   -2.9276   -2.7808   29.4442 C   0  0  0  0  0  0  0  0  0  0  0  0
  -11.7654   -1.0478   28.7823 C   0  0  0  0  0  0  0  0  0  0  0  0
  -10.6347   -1.2111   28.3109 N   0  0  0  0  0  0  0  0  0  0  0  0
   -9.8657   -2.3364   28.5394 C   0  0  0  0  0  0  0  0  0  0  0  0
   -8.8938   -2.5708   27.5873 C   0  0  2  0  0  0  0  0  0  0  0  0
   -9.0790   -1.7219   26.4956 C   0  0  0  0  0  0  0  0  0  0  0  0
  -10.4270   -0.9778   26.7111 C   0  0  0  0  0  0  0  0  0  0  0  0
  -12.5475   -1.9643   28.9552 O   0  0  0  0  0  0  0  0  0  0  0  0
   -8.7262   -3.9897   27.1370 C   0  0  2  0  0  0  0  0  0  0  0  0
   -7.4561   -4.4523   27.1420 C   0  0  0  0  0  0  0  0  0  0  0  0
   -6.8865   -4.5687   26.0674 F   0  0  0  0  0  0  0  0  0  0  0  0
   -6.6313   -3.6734   27.9382 F   0  0  0  0  0  0  0  0  0  0  0  0
   -7.3793   -5.6303   27.8453 F   0  0  0  0  0  0  0  0  0  0  0  0
   -9.2321   -4.0020   25.9107 F   0  0  0  0  0  0  0  0  0  0  0  0
  4  7  1  0
  7  8  1  0
  8  9  1  0
  7 11  2  0
  6 16  1  0
 16 17  1  0
  2 23  1  0
 19 28  1  0
 28 29  1  0
 29 30  1  0
 31 30  1  1
 31 32  1  0
 29 33  1  0
 32 33  1  0
 28 34  2  0
 31 35  1  0
 35 36  1  0
 36 37  1  0
 36 38  1  0
 36 39  1  0
 35 40  1  6
 17 18  2  0
 18 19  1  0
 19 20  2  0
 20 21  1  0
 21 22  2  0
 22 17  1  0
  9 10  2  0
 10 14  1  0
 14 15  2  0
 13 12  2  0
 12  9  1  0
  1  2  2  0
  2  3  1  0
  3  6  2  0
  6  5  1  0
  5  4  2  0
  4  1  1  0
 13 15  1  0
 15 27  1  0
 27 26  2  0
 26 25  1  0
 25 24  2  0
 24 13  1  0
M  END
$$$$
