No_5598-complexes_sdf/6BKW-FPZ/2024-09-17-14-21-01/
     RDKit          3D

 22 24  0  0  0  0  0  0  0  0999 V2000
   -7.7129    4.2099   27.0854 C   0  0  0  0  0  0  0  0  0  0  0  0
   -7.7814    5.1722   27.8972 C   0  0  0  0  0  0  0  0  0  0  0  0
   -8.8776    3.8408   26.3416 C   0  0  0  0  0  0  0  0  0  0  0  0
   -9.9844    4.6492   26.4743 C   0  0  0  0  0  0  0  0  0  0  0  0
   -8.7830    6.1594   27.8870 C   0  0  0  0  0  0  0  0  0  0  0  0
   -9.9269    5.8191   27.1183 C   0  0  0  0  0  0  0  0  0  0  0  0
   -8.8732    2.4091   25.4354 Cl  0  0  0  0  0  0  0  0  0  0  0  0
  -11.0570    4.3544   25.6755 N   0  0  0  0  0  0  0  0  0  0  0  0
  -12.2486    3.9049   26.0694 C   0  0  2  0  0  0  0  0  0  0  0  0
  -13.3515    3.8353   25.2196 C   0  0  0  0  0  0  0  0  0  0  0  0
  -11.1611    4.5512   24.2487 C   0  0  0  0  0  0  0  0  0  0  0  0
  -12.1879    4.4117   23.5626 C   0  0  0  0  0  0  0  0  0  0  0  0
  -13.3371    4.1249   23.9577 C   0  0  0  0  0  0  0  0  0  0  0  0
  -12.3614    3.7357   27.4414 N   0  0  0  0  0  0  0  0  0  0  0  0
  -13.4463    3.3908   28.1307 C   0  0  0  0  0  0  0  0  0  0  0  0
  -13.5208    2.3099   28.5625 C   0  0  0  0  0  0  0  0  0  0  0  0
  -12.4910    1.4221   28.5525 C   0  0  0  0  0  0  0  0  0  0  0  0
  -12.4587    0.0295   28.8383 C   0  0  0  0  0  0  0  0  0  0  0  0
  -13.5749   -0.3916   29.5459 C   0  0  0  0  0  0  0  0  0  0  0  0
  -14.6512    0.3904   29.7438 C   0  0  0  0  0  0  0  0  0  0  0  0
  -14.6586    1.7018   29.2976 C   0  0  0  0  0  0  0  0  0  0  0  0
  -14.2474    4.3793   28.2988 O   0  0  0  0  0  0  0  0  0  0  0  0
  3  7  1  0
  4  8  1  0
  8  9  1  0
  8 11  1  0
 10 13  1  0
 12 13  1  0
  9 14  1  1
 14 15  1  0
 15 16  1  0
 15 22  2  0
  9 10  1  0
 12 11  1  0
  1  2  2  0
  2  5  1  0
  5  6  2  0
  6  4  1  0
  4  3  2  0
  3  1  1  0
 16 17  2  0
 17 18  1  0
 18 19  2  0
 19 20  1  0
 20 21  2  0
 21 16  1  0
M  END
$$$$
