No_5150-complexes_sdf/6BKW-FPZ/2024-09-17-14-21-01/
     RDKit          3D

 34 36  0  0  0  0  0  0  0  0999 V2000
   -7.7129    4.2099   27.0854 C   0  0  0  0  0  0  0  0  0  0  0  0
   -8.2112    3.0637   26.9225 C   0  0  0  0  0  0  0  0  0  0  0  0
   -8.5108    5.3904   26.9436 C   0  0  0  0  0  0  0  0  0  0  0  0
   -9.7256    5.1955   26.3518 C   0  0  0  0  0  0  0  0  0  0  0  0
   -9.4995    2.8258   26.4878 C   0  0  0  0  0  0  0  0  0  0  0  0
  -10.2542    3.9691   26.2055 C   0  0  0  0  0  0  0  0  0  0  0  0
   -7.8138    6.9227   27.2348 Cl  0  0  0  0  0  0  0  0  0  0  0  0
   -7.4149    1.9254   27.2538 O   0  0  0  0  0  0  0  0  0  0  0  0
   -6.9278    1.0471   26.4438 C   0  0  0  0  0  0  0  0  0  0  0  0
   -6.0771    0.1292   27.2836 C   0  0  0  0  0  0  0  0  0  0  0  0
   -5.2188    0.7157   27.9448 N   0  0  0  0  0  0  0  0  0  0  0  0
   -3.9587    0.2946   28.1598 C   0  0  0  0  0  0  0  0  0  0  0  0
   -3.3841    0.6378   29.3877 C   0  0  0  0  0  0  0  0  0  0  0  0
   -3.2664   -0.2266   27.1415 C   0  0  0  0  0  0  0  0  0  0  0  0
   -1.9111   -0.6609   27.3462 C   0  0  0  0  0  0  0  0  0  0  0  0
   -1.6609   -1.3901   28.0579 C   0  0  0  0  0  0  0  0  0  0  0  0
   -2.4606   -0.2980   30.1843 C   0  0  1  0  0  0  0  0  0  0  0  0
   -1.5618   -0.9611   29.6089 C   0  0  0  0  0  0  0  0  0  0  0  0
   -6.2695   -1.2359   27.2875 C   0  0  0  0  0  0  0  0  0  0  0  0
   -6.5070   -2.2203   26.9315 Cl  0  0  0  0  0  0  0  0  0  0  0  0
   -2.4679   -0.2541   31.4646 O   0  0  0  0  0  0  0  0  0  0  0  0
   -2.4498   -1.3434   32.2435 C   0  0  0  0  0  0  0  0  0  0  0  0
   -1.5950   -1.2623   33.2440 C   0  0  1  0  0  0  0  0  0  0  0  0
   -2.0794   -0.5566   34.4937 C   0  0  1  0  0  0  0  0  0  0  0  0
   -2.3499   -1.3510   35.4523 O   0  0  0  0  0  0  0  0  0  0  0  0
   -1.1002   -2.5676   33.7187 N   0  0  0  0  0  0  0  0  0  0  0  0
   -1.4074   -2.7420   34.9710 C   0  0  0  0  0  0  0  0  0  0  0  0
   -0.4010   -3.3851   32.9716 C   0  0  0  0  0  0  0  0  0  0  0  0
   -1.1330    0.4786   34.9780 O   0  0  0  0  0  0  0  0  0  0  0  0
    0.8735   -2.9944   32.5600 C   0  0  0  0  0  0  0  0  0  0  0  0
    1.6004   -2.2601   33.1162 C   0  0  0  0  0  0  0  0  0  0  0  0
    2.9213   -1.7719   32.6983 C   0  0  0  0  0  0  0  0  0  0  0  0
    3.3403   -2.2179   31.4871 C   0  0  0  0  0  0  0  0  0  0  0  0
    4.5535   -1.7937   30.9966 C   0  0  0  0  0  0  0  0  0  0  0  0
  3  7  1  0
  2  8  1  0
  8  9  1  0
  9 10  1  0
 10 11  1  0
 11 12  1  0
 12 13  2  0
 12 14  1  0
 14 15  1  0
 15 16  2  0
 13 17  1  0
 16 18  1  0
 17 18  1  0
 10 19  1  0
 19 20  1  0
 17 21  1  1
 21 22  1  0
 23 22  1  6
 23 24  1  0
 24 25  1  0
 23 26  1  0
 25 27  1  0
 26 27  1  0
 26 28  1  0
 24 29  1  1
 28 30  2  3
 30 31  1  0
 31 32  2  3
 32 33  1  0
 33 34  2  0
  1  2  2  0
  2  5  1  0
  5  6  2  0
  6  4  1  0
  4  3  2  0
  3  1  1  0
M  END
$$$$
