No_5012-complexes_sdf/6BKW-FPZ/2024-09-17-14-21-01/
     RDKit          3D

 23 26  0  0  0  0  0  0  0  0999 V2000
   -7.7129    4.2099   27.0854 C   0  0  0  0  0  0  0  0  0  0  0  0
   -7.7814    5.1722   27.8972 C   0  0  0  0  0  0  0  0  0  0  0  0
   -8.8998    3.8713   26.3707 C   0  0  0  0  0  0  0  0  0  0  0  0
   -9.9938    4.6774   26.5446 C   0  0  0  0  0  0  0  0  0  0  0  0
   -8.7789    6.1536   27.9256 C   0  0  0  0  0  0  0  0  0  0  0  0
   -9.9428    5.8398   27.2296 C   0  0  0  0  0  0  0  0  0  0  0  0
   -8.9119    2.6447   25.5685 C   0  0  0  0  0  0  0  0  0  0  0  0
   -9.7965    2.5353   24.5160 C   0  0  0  0  0  0  0  0  0  0  0  0
  -10.6100    3.6509   24.2901 C   0  0  0  0  0  0  0  0  0  0  0  0
  -10.9557    4.5807   25.3846 C   0  0  0  0  0  0  0  0  0  0  0  0
  -11.6593    3.5177   23.2434 C   0  0  0  0  0  0  0  0  0  0  0  0
  -11.1679    3.5375   22.0693 C   0  0  0  0  0  0  0  0  0  0  0  0
  -11.9418    3.4864   20.8820 C   0  0  0  0  0  0  0  0  0  0  0  0
  -13.3483    3.5511   21.0532 C   0  0  0  0  0  0  0  0  0  0  0  0
  -13.0010    3.6487   23.4142 C   0  0  0  0  0  0  0  0  0  0  0  0
  -13.8480    3.6966   22.3255 C   0  0  0  0  0  0  0  0  0  0  0  0
   -6.6720    5.5564   28.6673 O   0  0  0  0  0  0  0  0  0  0  0  0
  -15.3166    3.7867   22.4840 C   0  0  0  0  0  0  0  0  0  0  0  0
  -15.8262    3.1167   23.1033 C   0  0  0  0  0  0  0  0  0  0  0  0
  -17.3236    3.2069   23.3526 C   0  0  0  0  0  0  0  0  0  0  0  0
  -17.9883    4.2049   22.6966 C   0  0  0  0  0  0  0  0  0  0  0  0
  -17.2910    5.0825   21.9217 C   0  0  0  0  0  0  0  0  0  0  0  0
  -15.9022    5.0087   21.7917 C   0  0  0  0  0  0  0  0  0  0  0  0
  9 11  1  0
  2 17  1  0
 16 18  1  0
 18 19  2  0
 19 20  1  0
 20 21  2  0
 21 22  1  0
 22 23  2  0
 23 18  1  0
  4 10  2  0
 10  9  1  0
  9  8  2  0
  8  7  1  0
  7  3  2  0
 11 12  2  0
 12 13  1  0
 13 14  2  0
 14 16  1  0
 16 15  2  0
 15 11  1  0
  1  2  2  0
  2  5  1  0
  5  6  2  0
  6  4  1  0
  4  3  1  0
  3  1  1  0
M  END
$$$$
