No_551-complexes_sdf/6BKW-FPZ/2024-09-17-14-21-01/
     RDKit          3D

 21 23  0  0  0  0  0  0  0  0999 V2000
   -7.7129    4.2099   27.0854 C   0  0  0  0  0  0  0  0  0  0  0  0
   -7.7814    5.1722   27.8972 C   0  0  0  0  0  0  0  0  0  0  0  0
   -8.8776    3.8408   26.3416 C   0  0  0  0  0  0  0  0  0  0  0  0
   -9.7970    4.1983   26.5823 C   0  0  0  0  0  0  0  0  0  0  0  0
  -10.0953    5.3290   27.4373 C   0  0  0  0  0  0  0  0  0  0  0  0
   -8.9979    5.8673   28.1042 C   0  0  0  0  0  0  0  0  0  0  0  0
  -11.1011    3.7914   25.7873 C   0  0  0  0  0  0  0  0  0  0  0  0
  -12.2292    3.5193   26.0693 C   0  0  0  0  0  0  0  0  0  0  0  0
  -13.3039    3.2427   25.2843 C   0  0  0  0  0  0  0  0  0  0  0  0
  -13.0319    3.1866   23.8985 C   0  0  0  0  0  0  0  0  0  0  0  0
  -10.8846    3.7867   24.2400 C   0  0  0  0  0  0  0  0  0  0  0  0
  -11.7899    3.5428   23.4216 C   0  0  0  0  0  0  0  0  0  0  0  0
  -11.5121    3.5251   21.9705 C   0  0  0  0  0  0  0  0  0  0  0  0
  -11.0341    2.7725   21.4014 C   0  0  0  0  0  0  0  0  0  0  0  0
  -10.6633    2.7398   20.0263 C   0  0  0  0  0  0  0  0  0  0  0  0
  -11.0270    3.9333   19.3058 C   0  0  0  0  0  0  0  0  0  0  0  0
  -11.6175    4.9793   19.9996 C   0  0  0  0  0  0  0  0  0  0  0  0
  -11.8673    4.8692   21.3291 C   0  0  0  0  0  0  0  0  0  0  0  0
  -14.1977    3.0689   23.1083 C   0  0  0  0  0  0  0  0  0  0  0  0
  -15.1797    3.5804   23.2192 C   0  0  0  0  0  0  0  0  0  0  0  0
  -16.1604    3.7171   22.8166 C   0  0  0  0  0  0  0  0  0  0  0  0
  4  7  1  0
 12 13  1  0
 10 19  1  0
 19 20  2  3
 20 21  1  0
  7  8  2  0
  8  9  1  0
  9 10  2  0
 10 12  1  0
 12 11  2  0
 11  7  1  0
  1  2  2  0
  2  6  1  0
  6  5  2  0
  5  4  1  0
  4  3  2  0
  3  1  1  0
 13 14  2  0
 14 15  1  0
 15 16  2  0
 16 17  1  0
 17 18  2  0
 18 13  1  0
M  END
$$$$
