No_5485-complexes_sdf/6BKW-FPZ/2024-09-17-14-21-01/
     RDKit          3D

 25 29  0  0  0  0  0  0  0  0999 V2000
   -7.9040    3.9820   27.1177 C   0  0  0  0  0  0  0  0  0  0  0  0
   -7.8663    4.8694   27.9238 C   0  0  0  0  0  0  0  0  0  0  0  0
   -9.0491    3.8523   26.2542 C   0  0  0  0  0  0  0  0  0  0  0  0
   -8.7661    5.9491   27.9690 C   0  0  0  0  0  0  0  0  0  0  0  0
   -9.9279    4.8544   26.1938 C   0  0  0  0  0  0  0  0  0  0  0  0
   -9.8044    5.9413   27.0782 C   0  0  0  0  0  0  0  0  0  0  0  0
   -7.0257    2.8867   27.1969 N   0  0  0  0  0  0  0  0  0  0  0  0
   -7.2963    1.6007   26.7912 C   0  0  0  0  0  0  0  0  0  0  0  0
   -6.3154    0.6412   27.1692 C   0  0  0  0  0  0  0  0  0  0  0  0
   -5.2624    1.3528   27.8432 C   0  0  0  0  0  0  0  0  0  0  0  0
   -5.7699    2.8643   27.8580 C   0  0  0  0  0  0  0  0  0  0  0  0
   -4.0462    1.0085   28.3713 C   0  0  0  0  0  0  0  0  0  0  0  0
   -3.8379   -0.3601   28.6158 C   0  0  0  0  0  0  0  0  0  0  0  0
   -2.7222   -0.8298   29.2231 C   0  0  0  0  0  0  0  0  0  0  0  0
   -2.5344   -2.1712   29.4252 C   0  0  0  0  0  0  0  0  0  0  0  0
   -3.5342   -3.0304   29.0906 C   0  0  0  0  0  0  0  0  0  0  0  0
   -4.7269   -1.4127   28.3791 C   0  0  0  0  0  0  0  0  0  0  0  0
   -4.6108   -2.6469   28.6346 C   0  0  0  0  0  0  0  0  0  0  0  0
   -5.9986   -0.7744   27.7096 C   0  0  0  0  0  0  0  0  0  0  0  0
   -7.1533   -1.6833   27.2453 C   0  0  0  0  0  0  0  0  0  0  0  0
   -7.9243   -2.1329   28.1879 C   0  0  0  0  0  0  0  0  0  0  0  0
   -7.2239   -2.0890   25.9649 C   0  0  0  0  0  0  0  0  0  0  0  0
   -9.0658   -2.8884   27.9264 C   0  0  0  0  0  0  0  0  0  0  0  0
   -8.3314   -2.8809   25.6320 C   0  0  0  0  0  0  0  0  0  0  0  0
   -9.2161   -3.2730   26.5831 C   0  0  0  0  0  0  0  0  0  0  0  0
  1  7  1  0
  7  8  1  0
  7 11  1  0
 19 20  1  0
 11 10  1  0
  8  9  1  0
  9 10  2  0
 10 12  1  0
 12 13  2  0
 17 19  2  0
 19  9  1  0
 20 21  2  0
 21 23  1  0
 23 25  2  0
 25 24  1  0
 24 22  2  0
 22 20  1  0
  1  2  2  0
  2  4  1  0
  4  6  2  0
  6  5  1  0
  5  3  2  0
  3  1  1  0
 13 14  1  0
 14 15  2  0
 15 16  1  0
 16 18  2  0
 18 17  1  0
 17 13  1  0
M  END
$$$$
