No_5933-complexes_sdf/6BKW-FPZ/2024-09-17-14-21-01/
     RDKit          3D

 40 45  0  0  0  0  0  0  0  0999 V2000
   -7.7129    4.2099   27.0854 C   0  0  0  0  0  0  0  0  0  0  0  0
   -8.2112    3.0637   26.9225 C   0  0  0  0  0  0  0  0  0  0  0  0
   -7.5138    1.9223   27.4249 C   0  0  0  0  0  0  0  0  0  0  0  0
   -8.5309    5.4147   26.8151 C   0  0  0  0  0  0  0  0  0  0  0  0
   -9.6817    5.2393   26.1100 C   0  0  0  0  0  0  0  0  0  0  0  0
  -10.1032    3.9957   25.8534 C   0  0  0  0  0  0  0  0  0  0  0  0
   -9.4035    2.8430   26.2573 C   0  0  0  0  0  0  0  0  0  0  0  0
   -6.8643    1.0176   26.6720 C   0  0  0  0  0  0  0  0  0  0  0  0
   -6.1576   -0.0541   27.2672 C   0  0  0  0  0  0  0  0  0  0  0  0
   -5.1482   -0.2456   27.2628 C   0  0  0  0  0  0  0  0  0  0  0  0
   -4.3958   -1.3077   27.9936 C   0  0  0  0  0  0  0  0  0  0  0  0
   -5.1632   -2.1460   28.7742 C   0  0  0  0  0  0  0  0  0  0  0  0
   -6.8735   -0.9704   28.2539 C   0  0  0  0  0  0  0  0  0  0  0  0
   -6.4270   -1.9061   28.9127 C   0  0  0  0  0  0  0  0  0  0  0  0
   -7.8966    6.9820   27.1033 Cl  0  0  0  0  0  0  0  0  0  0  0  0
  -11.5353    3.8261   24.9130 Cl  0  0  0  0  0  0  0  0  0  0  0  0
   -4.3976   -3.2600   29.5350 C   0  0  0  0  0  0  0  0  0  0  0  0
   -4.8335   -3.5881   30.6479 C   0  0  0  0  0  0  0  0  0  0  0  0
   -5.7522   -2.7916   31.3975 C   0  0  0  0  0  0  0  0  0  0  0  0
   -5.7891   -2.8980   32.8341 C   0  0  0  0  0  0  0  0  0  0  0  0
   -6.8582   -2.2350   33.5638 C   0  0  0  0  0  0  0  0  0  0  0  0
   -6.8022   -2.1235   34.9149 C   0  0  0  0  0  0  0  0  0  0  0  0
   -5.6810   -2.6041   35.6350 C   0  0  0  0  0  0  0  0  0  0  0  0
   -4.6301   -3.1615   34.9766 C   0  0  0  0  0  0  0  0  0  0  0  0
   -4.6237   -3.2250   33.6002 C   0  0  0  0  0  0  0  0  0  0  0  0
   -6.6173   -1.8292   30.8436 C   0  0  0  0  0  0  0  0  0  0  0  0
   -5.7421   -2.3880   37.3919 S   0  0  0  0  0  0  0  0  0  0  0  0
   -4.6496   -2.8107   37.8567 O   0  0  0  0  0  0  0  0  0  0  0  0
   -5.9395   -0.8143   37.5909 N   0  0  0  0  0  0  0  0  0  0  0  0
   -6.9629   -3.0275   37.7929 O   0  0  0  0  0  0  0  0  0  0  0  0
   -4.8220    0.0168   37.6246 C   0  0  0  0  0  0  0  0  0  0  0  0
   -4.9265    1.1307   38.5103 C   0  0  0  0  0  0  0  0  0  0  0  0
   -6.0431    1.5040   39.2629 C   0  0  1  0  0  0  0  0  0  0  0  0
   -6.1443    2.6689   39.9874 C   0  0  0  0  0  0  0  0  0  0  0  0
   -7.3790    3.2834   40.1787 C   0  0  0  0  0  0  0  0  0  0  0  0
   -8.5532    2.5614   39.8901 C   0  0  0  0  0  0  0  0  0  0  0  0
   -8.4240    1.2713   39.4287 C   0  0  0  0  0  0  0  0  0  0  0  0
   -7.2483    0.7971   38.9864 C   0  0  0  0  0  0  0  0  0  0  0  0
   -7.1195   -0.4090   38.2775 N   0  0  0  0  0  0  0  0  0  0  0  0
   -7.4671    4.6080   40.8566 C   0  0  0  0  0  0  0  0  0  0  0  0
  1  2  2  0
  2  3  1  0
  1  4  1  0
  4  5  2  0
  5  6  1  0
  2  7  1  0
  6  7  2  0
  3  8  2  3
  8  9  1  0
  9 10  2  0
 10 11  1  0
 11 12  2  0
  9 13  1  0
 12 14  1  0
 13 14  2  0
  4 15  1  0
  6 16  1  0
 12 17  1  0
 17 18  2  0
 18 19  1  0
 19 20  2  3
 20 21  1  0
 21 22  2  0
 22 23  1  0
 23 24  2  0
 20 25  1  0
 24 25  1  0
 14 26  1  0
 19 26  1  0
 23 27  1  0
 27 28  2  0
 27 29  1  0
 27 30  2  0
 29 31  1  0
 31 32  2  0
 32 33  1  0
 33 34  1  6
 34 35  1  0
 35 36  2  0
 36 37  1  0
 33 38  1  0
 37 38  2  0
 29 39  1  0
 38 39  1  0
 35 40  1  0
M  END
$$$$
