No_5483-complexes_sdf/6BKW-FPZ/2024-09-17-14-21-01/
     RDKit          3D

 22 24  0  0  0  0  0  0  0  0999 V2000
   -7.7129    4.2099   27.0854 C   0  0  0  0  0  0  0  0  0  0  0  0
   -7.7814    5.1722   27.8972 C   0  0  0  0  0  0  0  0  0  0  0  0
   -8.8776    3.8408   26.3416 C   0  0  0  0  0  0  0  0  0  0  0  0
   -9.9844    4.6492   26.4743 C   0  0  0  0  0  0  0  0  0  0  0  0
   -8.8033    6.1375   27.8728 C   0  0  0  0  0  0  0  0  0  0  0  0
   -9.9554    5.8280   27.1736 C   0  0  0  0  0  0  0  0  0  0  0  0
   -8.8740    2.6184   25.5584 C   0  0  0  0  0  0  0  0  0  0  0  0
   -8.2606    1.4639   26.1340 C   0  0  0  0  0  0  0  0  0  0  0  0
   -8.2580    0.2568   25.4753 C   0  0  0  0  0  0  0  0  0  0  0  0
   -8.8603    0.2396   24.2084 C   0  0  0  0  0  0  0  0  0  0  0  0
   -9.4494    1.3597   23.6313 C   0  0  0  0  0  0  0  0  0  0  0  0
   -9.4387    2.5320   24.3272 C   0  0  0  0  0  0  0  0  0  0  0  0
  -10.0516    1.2994   22.3089 C   0  0  0  0  0  0  0  0  0  0  0  0
  -10.3907    2.4492   21.7460 C   0  0  0  0  0  0  0  0  0  0  0  0
  -10.4578    3.6416   22.5435 C   0  0  0  0  0  0  0  0  0  0  0  0
   -9.9833    3.7424   23.7536 C   0  0  0  0  0  0  0  0  0  0  0  0
  -11.1015    4.8391   21.8581 C   0  0  0  0  0  0  0  0  0  0  0  0
   -6.7055    5.5884   28.6177 F   0  0  0  0  0  0  0  0  0  0  0  0
   -7.6405   -0.8937   26.0746 C   0  0  0  0  0  0  0  0  0  0  0  0
   -8.0444   -1.2196   27.2029 F   0  0  0  0  0  0  0  0  0  0  0  0
   -7.8706   -2.0141   25.3093 F   0  0  0  0  0  0  0  0  0  0  0  0
   -6.2499   -0.7848   25.7877 F   0  0  0  0  0  0  0  0  0  0  0  0
  3  7  1  0
 15 17  1  0
  2 18  1  0
  9 19  1  0
 19 20  1  0
 19 21  1  0
 19 22  1  0
 12 16  2  0
 16 15  1  0
 15 14  2  0
 14 13  1  0
 13 11  2  0
  1  2  2  0
  2  5  1  0
  5  6  2  0
  6  4  1  0
  4  3  2  0
  3  1  1  0
  7  8  2  0
  8  9  1  0
  9 10  2  0
 10 11  1  0
 11 12  1  0
 12  7  1  0
M  END
$$$$
