No_5148-complexes_sdf/6BKW-FPZ/2024-09-17-14-21-01/
     RDKit          3D

 16 17  0  0  0  0  0  0  0  0999 V2000
   -7.7129    4.2099   27.0854 C   0  0  0  0  0  0  0  0  0  0  0  0
   -7.7814    5.1722   27.8972 C   0  0  0  0  0  0  0  0  0  0  0  0
   -8.7889    3.2468   27.2220 C   0  0  0  0  0  0  0  0  0  0  0  0
   -8.7402    2.0341   26.3990 C   0  0  0  0  0  0  0  0  0  0  0  0
   -8.9680    5.6562   28.5183 C   0  0  0  0  0  0  0  0  0  0  0  0
   -9.9491    3.5176   27.8853 C   0  0  0  0  0  0  0  0  0  0  0  0
  -10.0212    4.7882   28.5980 C   0  0  0  0  0  0  0  0  0  0  0  0
   -9.5483    1.7012   25.4749 C   0  0  0  0  0  0  0  0  0  0  0  0
   -9.3876    0.5294   24.7039 C   0  0  0  0  0  0  0  0  0  0  0  0
   -8.3157   -0.3151   24.9829 C   0  0  0  0  0  0  0  0  0  0  0  0
   -7.6446    0.9780   26.6646 C   0  0  0  0  0  0  0  0  0  0  0  0
   -6.7484    1.3025   27.8920 C   0  0  0  0  0  0  0  0  0  0  0  0
   -7.4682   -0.1354   25.9963 C   0  0  0  0  0  0  0  0  0  0  0  0
   -5.3306    0.9840   27.6158 C   0  0  0  0  0  0  0  0  0  0  0  0
   -5.0187   -0.2989   27.3593 C   0  0  0  0  0  0  0  0  0  0  0  0
   -5.8370   -0.7762   26.1768 C   0  0  0  0  0  0  0  0  0  0  0  0
  3  4  1  0
 11 12  1  0
 12 14  1  0
 14 15  1  0
 15 16  2  0
  4  8  2  0
  8  9  1  0
  9 10  2  0
 10 13  1  0
 13 11  2  0
 11  4  1  0
  1  2  2  0
  2  5  1  0
  5  7  2  0
  7  6  1  0
  6  3  2  0
  3  1  1  0
M  END
$$$$
