No_5329-complexes_sdf/6BKW-FPZ/2024-09-17-14-21-01/
     RDKit          3D

 10 10  0  0  0  0  0  0  0  0999 V2000
   -7.2496    3.8871   27.4508 C   0  0  0  0  0  0  0  0  0  0  0  0
   -8.5096    4.0291   27.2770 C   0  0  0  0  0  0  0  0  0  0  0  0
   -9.3451    2.8786   26.9046 C   0  0  0  0  0  0  0  0  0  0  0  0
   -6.4420    5.0113   27.9803 C   0  0  0  0  0  0  0  0  0  0  0  0
   -8.8399    1.8399   26.7865 C   0  0  0  0  0  0  0  0  0  0  0  0
   -7.4153    1.5430   27.0815 C   0  0  0  0  0  0  0  0  0  0  0  0
   -6.7097    2.6506   27.5255 C   0  0  0  0  0  0  0  0  0  0  0  0
   -9.0071    5.4486   27.3872 C   0  0  0  0  0  0  0  0  0  0  0  0
   -8.6957    6.3132   26.3900 C   0  0  0  0  0  0  0  0  0  0  0  0
   -8.6088    7.5555   26.8138 C   0  0  0  0  0  0  0  0  0  0  0  0
  1  4  1  0
  2  8  1  0
  8  9  1  0
  9 10  1  0
  1  2  2  0
  2  3  1  0
  3  5  2  0
  5  6  1  0
  6  7  2  0
  7  1  1  0
M  END
$$$$
