No_534-complexes_sdf/6BKW-FPZ/2024-09-17-14-21-01/
     RDKit          3D

 25 27  0  0  0  0  0  0  0  0999 V2000
   -7.7129    4.2099   27.0854 C   0  0  0  0  0  0  0  0  0  0  0  0
   -8.2112    3.0637   26.9225 C   0  0  0  0  0  0  0  0  0  0  0  0
   -8.5108    5.3904   26.9436 C   0  0  0  0  0  0  0  0  0  0  0  0
   -9.5333    5.2878   26.5026 C   0  0  0  0  0  0  0  0  0  0  0  0
   -9.5076    2.8934   26.4895 C   0  0  0  0  0  0  0  0  0  0  0  0
  -10.2017    4.0665   26.2286 C   0  0  0  0  0  0  0  0  0  0  0  0
   -7.8373    6.5654   27.2524 F   0  0  0  0  0  0  0  0  0  0  0  0
   -7.4473    1.9217   27.1838 F   0  0  0  0  0  0  0  0  0  0  0  0
  -10.0141    1.6227   26.2174 N   0  0  0  0  0  0  0  0  0  0  0  0
  -10.7500    1.2048   26.9388 C   0  0  0  0  0  0  0  0  0  0  0  0
  -11.5867    1.8881   27.7706 C   0  0  0  0  0  0  0  0  0  0  0  0
  -11.5067    2.9475   28.1609 C   0  0  0  0  0  0  0  0  0  0  0  0
  -12.0859    3.3378   29.5986 C   0  0  0  0  0  0  0  0  0  0  0  0
  -12.6448    0.9918   28.2782 C   0  0  0  0  0  0  0  0  0  0  0  0
  -13.4172    1.3540   29.4477 C   0  0  0  0  0  0  0  0  0  0  0  0
  -13.1258    2.6329   29.9914 C   0  0  0  0  0  0  0  0  0  0  0  0
  -13.9052    3.0998   31.1785 C   0  0  0  0  0  0  0  0  0  0  0  0
  -14.9662    3.2375   31.0746 O   0  0  0  0  0  0  0  0  0  0  0  0
  -13.1806    3.3341   32.3258 O   0  0  0  0  0  0  0  0  0  0  0  0
  -10.2164    1.3930   24.7799 C   0  0  0  0  0  0  0  0  0  0  0  0
  -10.6964    2.0992   23.7958 C   0  0  0  0  0  0  0  0  0  0  0  0
  -10.5796    1.8282   22.5315 C   0  0  0  0  0  0  0  0  0  0  0  0
   -9.3391    0.2999   24.4001 C   0  0  0  0  0  0  0  0  0  0  0  0
   -9.1655   -0.0586   23.1053 C   0  0  0  0  0  0  0  0  0  0  0  0
   -9.7735    0.7445   22.1046 C   0  0  0  0  0  0  0  0  0  0  0  0
  3  7  1  0
  2  8  1  0
  5  9  1  0
  9 10  1  0
 10 11  1  0
 16 17  1  0
 17 18  2  0
 17 19  1  0
  9 20  1  0
 20 21  2  0
 21 22  1  0
 22 25  2  0
 25 24  1  0
 24 23  2  0
 23 20  1  0
  1  2  2  0
  2  5  1  0
  5  6  2  0
  6  4  1  0
  4  3  2  0
  3  1  1  0
 11 12  2  0
 12 13  1  0
 13 16  2  0
 16 15  1  0
 15 14  2  0
 14 11  1  0
M  END
$$$$
