No_5835-complexes_sdf/6BKW-FPZ/2024-09-17-14-21-01/
     RDKit          3D

 11 11  0  0  0  0  0  0  0  0999 V2000
   -7.2496    3.8871   27.4508 C   0  0  0  0  0  0  0  0  0  0  0  0
   -7.6161    2.7143   27.1523 C   0  0  0  0  0  0  0  0  0  0  0  0
   -7.1619    1.8631   27.5232 C   0  0  0  0  0  0  0  0  0  0  0  0
   -8.0036    5.1085   27.2100 C   0  0  0  0  0  0  0  0  0  0  0  0
   -9.0764    5.1562   26.4023 C   0  0  0  0  0  0  0  0  0  0  0  0
   -9.5423    3.9741   25.8512 C   0  0  0  0  0  0  0  0  0  0  0  0
   -8.8464    2.7352   26.2619 C   0  0  0  0  0  0  0  0  0  0  0  0
   -6.7994    0.7054   27.0531 C   0  0  0  0  0  0  0  0  0  0  0  0
   -5.9449   -0.2956   27.6438 C   0  0  0  0  0  0  0  0  0  0  0  0
   -5.1411    0.2545   28.6164 C   0  0  0  0  0  0  0  0  0  0  0  0
   -5.0447    1.5789   28.9478 C   0  0  0  0  0  0  0  0  0  0  0  0
  3  8  1  0
  8  9  2  3
  9 10  1  0
 10 11  2  0
  3  2  1  0
  1  2  2  0
  2  7  1  0
  7  6  2  0
  6  5  1  0
  5  4  2  0
  4  1  1  0
M  END
$$$$
