No_506-complexes_sdf/6BKW-FPZ/2024-09-17-14-21-01/
     RDKit          3D

 18 19  0  0  0  0  0  0  0  0999 V2000
   -7.2496    3.8871   27.4508 C   0  0  0  0  0  0  0  0  0  0  0  0
   -7.9379    4.9063   27.8518 C   0  0  0  0  0  0  0  0  0  0  0  0
   -7.5112    6.1898   27.6280 C   0  0  0  0  0  0  0  0  0  0  0  0
   -7.8078    2.6331   27.2522 C   0  0  0  0  0  0  0  0  0  0  0  0
   -7.1538    1.5087   26.7509 C   0  0  0  0  0  0  0  0  0  0  0  0
   -9.2656    2.6399   27.3634 C   0  0  0  0  0  0  0  0  0  0  0  0
  -10.0306    3.6219   27.9027 C   0  0  1  0  0  0  0  0  0  0  0  0
   -9.4131    4.8477   28.0296 C   0  0  0  0  0  0  0  0  0  0  0  0
   -7.1853    0.3846   27.6077 C   0  0  0  0  0  0  0  0  0  0  0  0
   -6.3793   -0.7489   27.3449 C   0  0  0  0  0  0  0  0  0  0  0  0
   -6.2106   -0.9875   26.0444 C   0  0  0  0  0  0  0  0  0  0  0  0
   -5.0934   -1.7824   25.7596 C   0  0  0  0  0  0  0  0  0  0  0  0
   -4.3908   -2.4479   26.7329 C   0  0  0  0  0  0  0  0  0  0  0  0
   -4.6818   -2.2331   28.0521 C   0  0  0  0  0  0  0  0  0  0  0  0
   -5.6059   -1.2744   28.4363 C   0  0  0  0  0  0  0  0  0  0  0  0
  -11.4297    3.4350   28.2167 C   0  0  0  0  0  0  0  0  0  0  0  0
  -12.3310    4.4035   28.1685 C   0  0  0  0  0  0  0  0  0  0  0  0
  -13.6823    4.3055   28.4610 C   0  0  0  0  0  0  0  0  0  0  0  0
  1  2  1  0
  2  3  2  0
  1  4  1  0
  4  5  2  3
  4  6  1  0
  7  6  1  6
  2  8  1  0
  7  8  1  0
  5  9  1  0
  9 10  1  0
  7 16  1  0
 16 17  2  3
 17 18  1  0
 10 11  2  0
 11 12  1  0
 12 13  2  0
 13 14  1  0
 14 15  2  0
 15 10  1  0
M  END
$$$$
