No_5013-complexes_sdf/6BKW-FPZ/2024-09-17-14-21-01/
     RDKit          3D

 26 29  0  0  0  0  0  0  0  0999 V2000
   -7.7129    4.2099   27.0854 C   0  0  0  0  0  0  0  0  0  0  0  0
   -7.7814    5.1722   27.8972 C   0  0  0  0  0  0  0  0  0  0  0  0
   -8.7889    3.2468   27.2220 C   0  0  0  0  0  0  0  0  0  0  0  0
   -8.5940    1.9755   26.6525 C   0  0  0  0  0  0  0  0  0  0  0  0
   -9.4990    1.3567   25.9026 C   0  0  0  0  0  0  0  0  0  0  0  0
   -9.0214    5.8041   28.2929 C   0  0  0  0  0  0  0  0  0  0  0  0
   -9.8944    3.6512   27.9113 C   0  0  0  0  0  0  0  0  0  0  0  0
  -10.0302    4.8964   28.4608 C   0  0  0  0  0  0  0  0  0  0  0  0
   -9.2379    0.1214   25.2942 C   0  0  0  0  0  0  0  0  0  0  0  0
   -7.9871   -0.4385   25.4445 C   0  0  0  0  0  0  0  0  0  0  0  0
   -7.0392    0.1104   26.2748 C   0  0  0  0  0  0  0  0  0  0  0  0
   -7.2706    1.3512   26.8968 C   0  0  0  0  0  0  0  0  0  0  0  0
  -11.0622    2.6825   27.9969 C   0  0  0  0  0  0  0  0  0  0  0  0
  -12.1638    3.1512   28.7558 C   0  0  0  0  0  0  0  0  0  0  0  0
  -13.1181    2.2185   29.2480 C   0  0  0  0  0  0  0  0  0  0  0  0
  -12.9982    0.9026   28.7194 C   0  0  0  0  0  0  0  0  0  0  0  0
  -11.9373    0.4634   27.9652 C   0  0  0  0  0  0  0  0  0  0  0  0
  -10.9023    1.3484   27.7539 C   0  0  0  0  0  0  0  0  0  0  0  0
  -10.2626    1.3433   26.4357 N   0  0  0  0  0  0  0  0  0  0  0  0
  -11.5187    1.0811   25.6773 C   0  0  0  0  0  0  0  0  0  0  0  0
  -12.0180    2.2973   25.2550 C   0  0  0  0  0  0  0  0  0  0  0  0
  -11.4775    3.0541   24.3673 C   0  0  0  0  0  0  0  0  0  0  0  0
  -11.7758    3.2102   23.0877 C   0  0  0  0  0  0  0  0  0  0  0  0
  -11.0405    4.0454   22.1801 C   0  0  0  0  0  0  0  0  0  0  0  0
  -11.1717    4.0681   20.8369 C   0  0  0  0  0  0  0  0  0  0  0  0
  -12.1014    3.1841   20.2323 C   0  0  0  0  0  0  0  0  0  0  0  0
  3  4  1  0
  7 13  1  0
  5 19  1  0
 18 19  1  0
 19 20  1  0
 20 21  1  0
 21 22  1  0
 22 23  2  3
 23 24  1  0
 24 25  2  3
 25 26  1  0
 13 14  2  0
 14 15  1  0
 15 16  2  0
 16 17  1  0
 17 18  2  0
 18 13  1  0
  4  5  2  0
  5  9  1  0
  9 10  2  0
 10 11  1  0
 11 12  2  0
 12  4  1  0
  1  2  2  0
  2  6  1  0
  6  8  2  0
  8  7  1  0
  7  3  2  0
  3  1  1  0
M  END
$$$$
