No_5600-complexes_sdf/6BKW-FPZ/2024-09-17-14-21-01/
     RDKit          3D

 24 25  0  0  0  0  0  0  0  0999 V2000
   -7.9040    3.9820   27.1177 C   0  0  0  0  0  0  0  0  0  0  0  0
   -7.8663    4.8694   27.9238 C   0  0  0  0  0  0  0  0  0  0  0  0
   -9.0501    3.8017   26.2617 C   0  0  0  0  0  0  0  0  0  0  0  0
  -10.0189    4.7608   26.3707 C   0  0  0  0  0  0  0  0  0  0  0  0
   -8.6770    5.9780   27.9222 C   0  0  0  0  0  0  0  0  0  0  0  0
   -9.8040    5.8752   27.0958 C   0  0  0  0  0  0  0  0  0  0  0  0
   -9.1692    2.4364   25.2758 Cl  0  0  0  0  0  0  0  0  0  0  0  0
   -6.9950    2.8957   27.1378 O   0  0  0  0  0  0  0  0  0  0  0  0
   -7.3799    1.6219   27.0673 C   0  0  2  0  0  0  0  0  0  0  0  0
   -6.2227    0.7315   27.1624 C   0  0  0  0  0  0  0  0  0  0  0  0
   -6.4011   -0.6441   27.1472 C   0  0  0  0  0  0  0  0  0  0  0  0
   -5.3437   -1.4298   27.4177 C   0  0  0  0  0  0  0  0  0  0  0  0
   -4.4092   -0.9962   27.8285 C   0  0  0  0  0  0  0  0  0  0  0  0
   -4.0679    0.4255   28.0919 C   0  0  0  0  0  0  0  0  0  0  0  0
   -5.0925    1.2628   27.8605 C   0  0  0  0  0  0  0  0  0  0  0  0
   -8.2863    1.2384   26.4144 F   0  0  0  0  0  0  0  0  0  0  0  0
   -3.0864   -1.8582   28.2233 C   0  0  2  0  0  0  0  0  0  0  0  0
   -1.9973   -1.4987   27.8762 C   0  0  0  0  0  0  0  0  0  0  0  0
   -3.3153   -3.0625   28.9205 C   0  0  0  0  0  0  0  0  0  0  0  0
   -4.3749   -3.2554   29.6222 C   0  0  0  0  0  0  0  0  0  0  0  0
   -4.5280   -4.4685   30.4129 C   0  0  0  0  0  0  0  0  0  0  0  0
   -5.6439   -4.6506   31.2582 C   0  0  0  0  0  0  0  0  0  0  0  0
   -6.6939   -3.6487   31.2562 C   0  0  0  0  0  0  0  0  0  0  0  0
   -6.5773   -2.4645   30.5180 C   0  0  0  0  0  0  0  0  0  0  0  0
  3  7  1  0
  1  8  1  0
  8  9  1  0
  9 10  1  0
  9 16  1  6
 13 17  1  0
 17 18  1  6
 17 19  1  0
 19 20  2  3
 20 21  1  0
 21 22  2  3
 22 23  1  0
 23 24  2  0
  1  2  2  0
  2  5  1  0
  5  6  2  0
  6  4  1  0
  4  3  2  0
  3  1  1  0
 10 11  2  0
 11 12  1  0
 12 13  2  0
 13 14  1  0
 14 15  2  0
 15 10  1  0
M  END
$$$$
