No_5313-complexes_sdf/6BKW-FPZ/2024-09-17-14-21-01/
     RDKit          3D

 10 11  0  0  0  0  0  0  0  0999 V2000
   -7.9040    3.9820   27.1177 C   0  0  0  0  0  0  0  0  0  0  0  0
   -7.8663    4.8694   27.9238 C   0  0  0  0  0  0  0  0  0  0  0  0
   -9.0491    3.8523   26.2542 C   0  0  0  0  0  0  0  0  0  0  0  0
   -9.4067    2.6809   25.6532 C   0  0  0  0  0  0  0  0  0  0  0  0
   -8.4979    6.1198   27.7613 C   0  0  0  0  0  0  0  0  0  0  0  0
   -9.5967    6.1558   26.9018 C   0  0  0  0  0  0  0  0  0  0  0  0
   -9.7441    5.0354   26.1190 C   0  0  0  0  0  0  0  0  0  0  0  0
   -8.9883    1.4672   26.1373 C   0  0  0  0  0  0  0  0  0  0  0  0
   -8.5490    1.4467   27.4642 C   0  0  0  0  0  0  0  0  0  0  0  0
   -7.6335    2.6020   27.6748 N   0  0  0  0  0  0  0  0  0  0  0  0
  1  2  1  0
  2  5  1  0
  5  6  1  0
  3  7  1  0
  6  7  1  0
  1  3  2  0
  3  4  1  0
  4  8  2  0
  8  9  1  0
  9 10  2  0
 10  1  1  0
M  END
$$$$
