No_5603-complexes_sdf/6BKW-FPZ/2024-09-17-14-21-01/
     RDKit          3D

 17 18  0  0  0  0  0  0  0  0999 V2000
   -7.7129    4.2099   27.0854 C   0  0  0  0  0  0  0  0  0  0  0  0
   -7.7814    5.1722   27.8972 C   0  0  0  0  0  0  0  0  0  0  0  0
   -8.8776    3.8408   26.3416 C   0  0  0  0  0  0  0  0  0  0  0  0
   -9.9844    4.6492   26.4743 C   0  0  0  0  0  0  0  0  0  0  0  0
   -8.8033    6.1375   27.8728 C   0  0  0  0  0  0  0  0  0  0  0  0
   -9.9554    5.8280   27.1737 C   0  0  0  0  0  0  0  0  0  0  0  0
   -8.8740    2.6184   25.5584 C   0  0  0  0  0  0  0  0  0  0  0  0
   -9.5730    2.5302   24.5295 O   0  0  0  0  0  0  0  0  0  0  0  0
   -8.3712    1.5511   26.1005 O   0  0  0  0  0  0  0  0  0  0  0  0
   -8.2747    0.3539   25.4582 C   0  0  0  0  0  0  0  0  0  0  0  0
   -7.1625   -0.3531   25.6463 C   0  0  0  0  0  0  0  0  0  0  0  0
   -7.1574   -1.4049   26.2833 C   0  0  0  0  0  0  0  0  0  0  0  0
   -5.8874   -2.0271   26.6708 C   0  0  0  0  0  0  0  0  0  0  0  0
   -4.6784   -1.5280   26.1839 C   0  0  0  0  0  0  0  0  0  0  0  0
   -4.7260   -0.4127   25.3676 C   0  0  0  0  0  0  0  0  0  0  0  0
   -5.8797    0.1724   25.1732 C   0  0  0  0  0  0  0  0  0  0  0  0
   -6.6736    5.5967   28.6181 O   0  0  0  0  0  0  0  0  0  0  0  0
  3  7  1  0
  7  8  2  0
  7  9  1  0
  9 10  1  0
 10 11  1  0
  2 17  1  0
 11 12  2  0
 12 13  1  0
 13 14  2  0
 14 15  1  0
 15 16  2  0
 16 11  1  0
  1  2  2  0
  2  5  1  0
  5  6  2  0
  6  4  1  0
  4  3  2  0
  3  1  1  0
M  END
$$$$
