No_5208-complexes_sdf/6BKW-FPZ/2024-09-17-14-21-01/
     RDKit          3D

 12 13  0  0  0  0  0  0  0  0999 V2000
   -7.9040    3.9820   27.1177 C   0  0  0  0  0  0  0  0  0  0  0  0
   -7.8663    4.8694   27.9238 C   0  0  0  0  0  0  0  0  0  0  0  0
   -9.0491    3.8523   26.2542 C   0  0  0  0  0  0  0  0  0  0  0  0
   -8.6019    5.9544   27.7203 C   0  0  0  0  0  0  0  0  0  0  0  0
   -9.7838    4.9247   26.0626 C   0  0  0  0  0  0  0  0  0  0  0  0
   -9.6083    6.0325   26.8808 C   0  0  0  0  0  0  0  0  0  0  0  0
   -7.0940    2.6787   27.3460 C   0  0  0  0  0  0  0  0  0  0  0  0
   -7.4613    1.3946   26.8803 C   0  0  0  0  0  0  0  0  0  0  0  0
   -6.6188    0.3701   27.0642 C   0  0  0  0  0  0  0  0  0  0  0  0
   -5.3610    0.5982   27.6984 C   0  0  0  0  0  0  0  0  0  0  0  0
   -4.9991    1.8760   28.1317 C   0  0  0  0  0  0  0  0  0  0  0  0
   -5.7688    2.8839   27.9220 C   0  0  0  0  0  0  0  0  0  0  0  0
  1  7  1  0
  1  2  2  0
  2  4  1  0
  4  6  2  0
  6  5  1  0
  5  3  2  0
  3  1  1  0
  7  8  2  0
  8  9  1  0
  9 10  2  0
 10 11  1  0
 11 12  2  0
 12  7  1  0
M  END
$$$$
