No_5180-complexes_sdf/6BKW-FPZ/2024-09-17-14-21-01/
     RDKit          3D

  6  5  0  0  0  0  0  0  0  0999 V2000
   -7.9040    3.9820   27.1177 C   0  0  0  0  0  0  0  0  0  0  0  0
   -8.2057    2.8231   26.8733 C   0  0  0  0  0  0  0  0  0  0  0  0
   -8.6993    5.1380   26.8802 C   0  0  0  0  0  0  0  0  0  0  0  0
   -8.2876    6.4873   27.2074 C   0  0  0  0  0  0  0  0  0  0  0  0
   -7.4322    1.6588   27.3744 C   0  0  0  0  0  0  0  0  0  0  0  0
   -7.7962    0.3341   27.1863 C   0  0  0  0  0  0  0  0  0  0  0  0
  1  2  3  0
  1  3  1  0
  3  4  1  0
  2  5  1  0
  5  6  2  0
M  END
$$$$
