No_589-complexes_sdf/6BKW-FPZ/2024-09-17-14-21-01/
     RDKit          3D

 13 14  0  0  0  0  0  0  0  0999 V2000
   -7.7129    4.2099   27.0854 C   0  0  0  0  0  0  0  0  0  0  0  0
   -8.9133    4.4736   27.0998 C   0  0  0  0  0  0  0  0  0  0  0  0
   -9.7937    3.7368   26.2091 C   0  0  0  0  0  0  0  0  0  0  0  0
   -7.2495    2.8647   26.8496 C   0  0  0  0  0  0  0  0  0  0  0  0
   -8.1891    1.9790   26.3454 C   0  0  0  0  0  0  0  0  0  0  0  0
  -11.0808    4.1954   25.9087 C   0  0  0  0  0  0  0  0  0  0  0  0
   -9.4405    2.4420   25.9289 C   0  0  0  0  0  0  0  0  0  0  0  0
  -11.3803    4.5482   24.6216 C   0  0  0  0  0  0  0  0  0  0  0  0
  -10.3154    4.4453   23.6184 C   0  0  0  0  0  0  0  0  0  0  0  0
  -10.5969    4.6738   22.2631 C   0  0  0  0  0  0  0  0  0  0  0  0
  -11.9593    4.9014   21.9205 C   0  0  0  0  0  0  0  0  0  0  0  0
  -12.9850    4.8948   22.8655 C   0  0  0  0  0  0  0  0  0  0  0  0
  -12.6766    4.7085   24.1635 C   0  0  0  0  0  0  0  0  0  0  0  0
  3  6  1  0
  6  8  1  0
  1  2  2  0
  2  3  1  0
  3  7  2  0
  7  5  1  0
  5  4  2  0
  4  1  1  0
  8  9  2  0
  9 10  1  0
 10 11  2  0
 11 12  1  0
 12 13  2  0
 13  8  1  0
M  END
$$$$
