No_5988-complexes_sdf/6BKW-FPZ/2024-09-17-14-21-01/
     RDKit          3D

 24 27  0  0  0  0  0  0  0  0999 V2000
   -7.7129    4.2099   27.0854 C   0  0  0  0  0  0  0  0  0  0  0  0
   -7.7814    5.1722   27.8972 C   0  0  0  0  0  0  0  0  0  0  0  0
   -7.3155    2.9700   27.6145 C   0  0  0  0  0  0  0  0  0  0  0  0
   -7.9010    1.7962   27.2023 C   0  0  0  0  0  0  0  0  0  0  0  0
   -8.9578    1.9047   26.2707 C   0  0  0  0  0  0  0  0  0  0  0  0
   -9.3989    3.1000   25.8096 C   0  0  0  0  0  0  0  0  0  0  0  0
   -8.8948    4.1615   26.3218 C   0  0  0  0  0  0  0  0  0  0  0  0
   -7.0802    5.2826   29.0290 N   0  0  0  0  0  0  0  0  0  0  0  0
   -8.2600    6.4757   27.4847 N   0  0  0  0  0  0  0  0  0  0  0  0
   -9.4177    5.4702   25.9549 C   0  0  0  0  0  0  0  0  0  0  0  0
   -9.0485    6.5351   26.4269 C   0  0  0  0  0  0  0  0  0  0  0  0
   -7.3367    0.5967   27.4983 O   0  0  0  0  0  0  0  0  0  0  0  0
   -5.9930    0.3970   27.5673 C   0  0  0  0  0  0  0  0  0  0  0  0
   -5.5618   -0.0507   28.7439 C   0  0  0  0  0  0  0  0  0  0  0  0
   -4.0891   -0.1740   28.9523 C   0  0  0  0  0  0  0  0  0  0  0  0
   -3.2265    0.2067   27.8769 C   0  0  0  0  0  0  0  0  0  0  0  0
   -3.7881    0.6942   26.7387 C   0  0  0  0  0  0  0  0  0  0  0  0
   -5.1324    0.8190   26.6053 C   0  0  0  0  0  0  0  0  0  0  0  0
   -3.5152   -0.6325   30.2276 C   0  0  0  0  0  0  0  0  0  0  0  0
   -3.7916    0.0504   31.4006 C   0  0  0  0  0  0  0  0  0  0  0  0
   -3.2061   -0.3676   32.6613 C   0  0  0  0  0  0  0  0  0  0  0  0
   -2.2787   -1.4240   32.6499 C   0  0  0  0  0  0  0  0  0  0  0  0
   -2.5557   -1.6441   30.1337 C   0  0  0  0  0  0  0  0  0  0  0  0
   -1.9453   -2.0509   31.3971 C   0  0  0  0  0  0  0  0  0  0  0  0
  2  8  1  0
  4 12  1  0
 12 13  1  0
 15 19  1  0
 19 20  2  0
 20 21  1  0
 21 22  2  0
 22 24  1  0
 24 23  2  0
 23 19  1  0
 13 14  2  0
 14 15  1  0
 15 16  2  0
 16 17  1  0
 17 18  2  0
 18 13  1  0
  1  2  2  0
  2  9  1  0
  9 11  2  0
 11 10  1  0
 10  7  2  0
  1  3  1  0
  3  4  2  0
  4  5  1  0
  5  6  2  0
  6  7  1  0
  7  1  1  0
M  END
$$$$
