No_5802-complexes_sdf/6BKW-FPZ/2024-09-17-14-21-01/
     RDKit          3D

 18 19  0  0  0  0  0  0  0  0999 V2000
   -7.9040    3.9820   27.1177 C   0  0  0  0  0  0  0  0  0  0  0  0
   -9.0711    4.3164   27.0630 C   0  0  0  0  0  0  0  0  0  0  0  0
   -9.9692    3.7224   26.1073 C   0  0  0  0  0  0  0  0  0  0  0  0
   -6.9787    4.6761   28.1003 C   0  0  0  0  0  0  0  0  0  0  0  0
   -9.4538    2.6801   25.3673 C   0  0  0  0  0  0  0  0  0  0  0  0
   -8.1927    2.1957   25.6621 C   0  0  0  0  0  0  0  0  0  0  0  0
   -7.4333    2.8255   26.6299 C   0  0  0  0  0  0  0  0  0  0  0  0
  -10.2286    2.0431   24.4951 F   0  0  0  0  0  0  0  0  0  0  0  0
   -5.9019    4.2916   28.2873 O   0  0  0  0  0  0  0  0  0  0  0  0
   -7.4598    5.8096   28.6122 O   0  0  0  0  0  0  0  0  0  0  0  0
  -11.2406    4.0854   25.7552 O   0  0  0  0  0  0  0  0  0  0  0  0
  -12.2877    3.3617   25.9849 C   0  0  0  0  0  0  0  0  0  0  0  0
  -13.3066    3.6678   25.1591 C   0  0  0  0  0  0  0  0  0  0  0  0
  -14.5964    3.0456   25.3549 C   0  0  0  0  0  0  0  0  0  0  0  0
  -14.6813    2.1145   26.4055 C   0  0  0  0  0  0  0  0  0  0  0  0
  -12.4995    2.5338   27.0788 C   0  0  0  0  0  0  0  0  0  0  0  0
  -13.6370    1.9025   27.3065 C   0  0  0  0  0  0  0  0  0  0  0  0
  -13.8312    1.0196   28.3113 F   0  0  0  0  0  0  0  0  0  0  0  0
  1  4  1  0
  5  8  1  0
  4  9  2  0
  4 10  1  0
  3 11  1  0
 11 12  1  0
 17 18  1  0
 12 13  2  0
 13 14  1  0
 14 15  2  0
 15 17  1  0
 17 16  2  0
 16 12  1  0
  1  2  2  0
  2  3  1  0
  3  5  2  0
  5  6  1  0
  6  7  2  0
  7  1  1  0
M  END
$$$$
