No_5007-complexes_sdf/6BKW-FPZ/2024-09-17-14-21-01/
     RDKit          3D

 38 42  0  0  0  0  0  0  0  0999 V2000
   -7.2496    3.8871   27.4508 C   0  0  0  0  0  0  0  0  0  0  0  0
   -7.6161    2.7143   27.1523 C   0  0  0  0  0  0  0  0  0  0  0  0
   -7.1618    1.8631   27.5232 C   0  0  0  0  0  0  0  0  0  0  0  0
   -8.0036    5.1085   27.2100 C   0  0  2  0  0  0  0  0  0  0  0  0
   -7.6739    6.3858   27.8565 C   0  0  0  0  0  0  0  0  0  0  0  0
   -9.1299    5.0820   26.3730 C   0  0  0  0  0  0  0  0  0  0  0  0
   -9.5383    3.9035   25.7505 C   0  0  1  0  0  0  0  0  0  0  0  0
   -8.8363    2.6722   26.2434 C   0  0  0  0  0  0  0  0  0  0  0  0
   -6.6085    0.7707   27.0775 C   0  0  1  0  0  0  0  0  0  0  0  0
   -7.1461   -0.0040   26.0723 C   0  0  0  0  0  0  0  0  0  0  0  0
   -5.2763    0.2014   27.4880 C   0  0  0  0  0  0  0  0  0  0  0  0
   -5.2620   -0.7468   28.4787 C   0  0  0  0  0  0  0  0  0  0  0  0
   -4.2808   -0.7723   29.2795 C   0  0  0  0  0  0  0  0  0  0  0  0
   -3.0839   -0.0179   29.0495 C   0  0  0  0  0  0  0  0  0  0  0  0
   -3.1021    0.9144   28.0660 C   0  0  0  0  0  0  0  0  0  0  0  0
   -4.1996    1.1359   27.3326 C   0  0  0  0  0  0  0  0  0  0  0  0
  -10.5791    3.7842   24.8344 C   0  0  0  0  0  0  0  0  0  0  0  0
  -10.3524    4.1350   23.4995 C   0  0  0  0  0  0  0  0  0  0  0  0
  -11.8582    3.4814   25.2376 C   0  0  0  0  0  0  0  0  0  0  0  0
  -11.3050    4.1411   22.5163 C   0  0  0  0  0  0  0  0  0  0  0  0
  -12.9138    3.4636   24.2903 C   0  0  0  0  0  0  0  0  0  0  0  0
  -12.6404    3.8664   22.9654 C   0  0  0  0  0  0  0  0  0  0  0  0
   -6.8814    0.1530   24.9063 O   0  0  0  0  0  0  0  0  0  0  0  0
   -8.1153   -0.7785   26.3732 F   0  0  0  0  0  0  0  0  0  0  0  0
   -4.2367   -1.7769   30.4408 C   0  0  0  0  0  0  0  0  0  0  0  0
   -3.5897   -2.5350   30.6947 C   0  0  0  0  0  0  0  0  0  0  0  0
   -3.6368   -3.3831   31.9473 C   0  0  0  0  0  0  0  0  0  0  0  0
   -4.7244   -3.2062   32.7797 C   0  0  0  0  0  0  0  0  0  0  0  0
   -5.4019   -1.4803   31.4517 C   0  0  0  0  0  0  0  0  0  0  0  0
   -5.6051   -2.1282   32.5137 C   0  0  0  0  0  0  0  0  0  0  0  0
   -8.2920    7.4678   27.4595 O   0  0  0  0  0  0  0  0  0  0  0  0
  -13.9112    3.8791   21.7609 S   0  0  0  0  0  0  0  0  0  0  0  0
  -13.1510    3.2723   20.5872 C   0  0  0  0  0  0  0  0  0  0  0  0
  -11.8359    3.6567   20.2369 C   0  0  0  0  0  0  0  0  0  0  0  0
  -10.8861    4.0702   21.1651 C   0  0  0  0  0  0  0  0  0  0  0  0
  -14.2966    3.2567   24.7328 C   0  0  0  0  0  0  0  0  0  0  0  0
  -14.7477    2.6121   25.9197 Cl  0  0  0  0  0  0  0  0  0  0  0  0
  -15.2230    3.9094   24.0226 O   0  0  0  0  0  0  0  0  0  0  0  0
  1  2  1  0
  2  3  2  3
  1  4  1  0
  4  5  1  1
  4  6  1  0
  6  7  1  0
  2  8  1  0
  7  8  1  0
  3  9  1  0
  9 10  1  6
  9 11  1  0
  7 17  1  1
 10 23  2  0
 10 24  1  0
 13 25  1  0
  5 31  2  0
 22 32  1  0
 32 33  1  0
 33 34  2  0
 20 35  1  0
 34 35  1  0
 21 36  1  0
 36 37  1  0
 36 38  2  0
 11 12  2  0
 12 13  1  0
 13 14  2  0
 14 15  1  0
 15 16  2  0
 16 11  1  0
 17 18  2  0
 18 20  1  0
 20 22  2  0
 22 21  1  0
 21 19  2  0
 19 17  1  0
 25 26  2  0
 26 27  1  0
 27 28  2  0
 28 30  1  0
 30 29  2  0
 29 25  1  0
M  END
$$$$
