No_5110-complexes_sdf/6BKW-FPZ/2024-09-17-14-21-01/
     RDKit          3D

 25 28  0  0  0  0  0  0  0  0999 V2000
   -7.7129    4.2099   27.0854 C   0  0  0  0  0  0  0  0  0  0  0  0
   -8.9133    4.4736   27.0998 C   0  0  0  0  0  0  0  0  0  0  0  0
   -9.4643    5.5426   27.7628 C   0  0  0  0  0  0  0  0  0  0  0  0
   -6.8373    4.9942   27.9785 C   0  0  0  0  0  0  0  0  0  0  0  0
   -7.3932    6.0303   28.6784 C   0  0  0  0  0  0  0  0  0  0  0  0
   -8.7122    6.3429   28.5485 C   0  0  0  0  0  0  0  0  0  0  0  0
   -9.7912    3.6118   26.1875 C   0  0  0  0  0  0  0  0  0  0  0  0
  -10.0449    4.0843   24.9272 C   0  0  0  0  0  0  0  0  0  0  0  0
  -10.7514    3.4030   23.9427 C   0  0  0  0  0  0  0  0  0  0  0  0
  -11.1304    2.1011   24.2165 C   0  0  0  0  0  0  0  0  0  0  0  0
  -10.1792    2.3282   26.3936 C   0  0  0  0  0  0  0  0  0  0  0  0
  -10.8167    1.5588   25.4785 C   0  0  0  0  0  0  0  0  0  0  0  0
  -11.0307    4.0543   22.6601 C   0  0  0  0  0  0  0  0  0  0  0  0
  -11.9452    3.8126   21.9736 C   0  0  0  0  0  0  0  0  0  0  0  0
  -12.9224    2.8719   22.3849 C   0  0  0  0  0  0  0  0  0  0  0  0
  -13.8760    2.4559   21.7025 C   0  0  0  0  0  0  0  0  0  0  0  0
  -14.8327    1.4703   22.0674 C   0  0  0  0  0  0  0  0  0  0  0  0
  -12.4755    1.9588   23.5121 C   0  0  0  0  0  0  0  0  0  0  0  0
  -15.9761    1.2964   21.6047 C   0  0  0  0  0  0  0  0  0  0  0  0
  -16.3073    1.9979   20.3901 C   0  0  0  0  0  0  0  0  0  0  0  0
  -15.4776    2.9384   19.8661 C   0  0  0  0  0  0  0  0  0  0  0  0
  -14.3332    3.3220   20.5373 C   0  0  0  0  0  0  0  0  0  0  0  0
  -11.2927    0.2125   25.6998 C   0  0  0  0  0  0  0  0  0  0  0  0
  -11.5215   -0.1237   26.7163 O   0  0  0  0  0  0  0  0  0  0  0  0
  -11.3618   -0.5552   24.6587 O   0  0  0  0  0  0  0  0  0  0  0  0
  2  7  1  0
 12 23  1  0
 23 24  2  0
 23 25  1  0
 15 16  1  0
  7  8  2  0
  8  9  1  0
 10 12  1  0
 12 11  2  0
 11  7  1  0
 16 17  2  0
 17 19  1  0
 19 20  2  0
 20 21  1  0
 21 22  2  0
 22 16  1  0
  1  2  2  0
  2  3  1  0
  3  6  2  0
  6  5  1  0
  5  4  2  0
  4  1  1  0
  9 10  2  0
 10 18  1  0
 18 15  2  0
 15 14  1  0
 14 13  2  0
 13  9  1  0
M  END
$$$$
