No_5856-complexes_sdf/6BKW-FPZ/2024-09-17-14-21-01/
     RDKit          3D

 22 24  0  0  0  0  0  0  0  0999 V2000
   -7.9040    3.9820   27.1177 C   0  0  0  0  0  0  0  0  0  0  0  0
   -7.8663    4.8694   27.9238 C   0  0  0  0  0  0  0  0  0  0  0  0
   -9.0501    3.8017   26.2617 C   0  0  0  0  0  0  0  0  0  0  0  0
   -9.1826    2.7026   25.3575 C   0  0  0  0  0  0  0  0  0  0  0  0
   -8.6940    6.0131   27.8614 C   0  0  0  0  0  0  0  0  0  0  0  0
   -9.9755    4.8547   26.2361 C   0  0  0  0  0  0  0  0  0  0  0  0
   -9.7463    5.9398   27.0364 C   0  0  0  0  0  0  0  0  0  0  0  0
  -10.0893    2.7801   24.3306 C   0  0  0  0  0  0  0  0  0  0  0  0
  -10.2628    1.6769   23.4896 C   0  0  0  0  0  0  0  0  0  0  0  0
   -9.3750    0.5340   23.6599 C   0  0  0  0  0  0  0  0  0  0  0  0
   -8.4136    1.4818   25.4230 C   0  0  0  0  0  0  0  0  0  0  0  0
   -8.4864    0.5055   24.6361 C   0  0  0  0  0  0  0  0  0  0  0  0
   -7.6342   -0.6763   24.7766 C   0  0  0  0  0  0  0  0  0  0  0  0
   -6.7292   -0.7282   25.5364 O   0  0  0  0  0  0  0  0  0  0  0  0
   -7.5494   -1.4282   23.7025 O   0  0  0  0  0  0  0  0  0  0  0  0
  -11.1801    1.7903   22.3800 C   0  0  0  0  0  0  0  0  0  0  0  0
  -12.1301    2.3821   22.3997 C   0  0  0  0  0  0  0  0  0  0  0  0
  -13.1200    2.4121   21.3936 C   0  0  0  0  0  0  0  0  0  0  0  0
  -12.8757    1.6531   20.2386 C   0  0  0  0  0  0  0  0  0  0  0  0
  -10.8608    1.0878   21.0861 C   0  0  0  0  0  0  0  0  0  0  0  0
  -11.7061    1.0190   20.1168 C   0  0  0  0  0  0  0  0  0  0  0  0
   -6.8068    5.1142   28.7600 F   0  0  0  0  0  0  0  0  0  0  0  0
  3  4  1  0
 12 13  1  0
 13 14  1  0
 13 15  2  0
  9 16  1  0
  2 22  1  0
  4  8  2  0
  8  9  1  0
  9 10  2  0
 10 12  1  0
 12 11  2  0
 11  4  1  0
  1  2  2  0
  2  5  1  0
  5  7  2  0
  7  6  1  0
  6  3  2  0
  3  1  1  0
 16 17  2  0
 17 18  1  0
 18 19  2  0
 19 21  1  0
 21 20  2  0
 20 16  1  0
M  END
$$$$
