No_5087-complexes_sdf/6BKW-FPZ/2024-09-17-14-21-01/
     RDKit          3D

 40 44  0  0  0  0  0  0  0  0999 V2000
   -7.2496    3.8871   27.4508 C   0  0  0  0  0  0  0  0  0  0  0  0
   -7.9379    4.9063   27.8518 C   0  0  0  0  0  0  0  0  0  0  0  0
   -7.5112    6.1898   27.6280 C   0  0  0  0  0  0  0  0  0  0  0  0
   -7.8078    2.6331   27.2522 C   0  0  0  0  0  0  0  0  0  0  0  0
   -9.1846    2.4724   27.5426 C   0  0  0  0  0  0  0  0  0  0  0  0
   -9.8869    3.5177   28.0783 C   0  0  0  0  0  0  0  0  0  0  0  0
   -9.3786    4.7757   28.1464 C   0  0  0  0  0  0  0  0  0  0  0  0
  -11.3108    3.2004   28.4204 C   0  0  0  0  0  0  0  0  0  0  0  0
  -12.1343    4.1518   28.8422 C   0  0  0  0  0  0  0  0  0  0  0  0
  -13.5234    3.9047   29.1938 C   0  0  0  0  0  0  0  0  0  0  0  0
  -13.9229    2.5576   29.1904 C   0  0  0  0  0  0  0  0  0  0  0  0
  -13.0650    1.5615   28.8065 C   0  0  0  0  0  0  0  0  0  0  0  0
  -11.7602    1.8618   28.4705 C   0  0  0  0  0  0  0  0  0  0  0  0
   -7.0298    1.4497   26.8581 C   0  0  0  0  0  0  0  0  0  0  0  0
   -7.5886    0.4888   26.0411 C   0  0  0  0  0  0  0  0  0  0  0  0
   -6.8482   -0.6312   25.6783 C   0  0  0  0  0  0  0  0  0  0  0  0
   -5.5484   -0.8008   26.2156 C   0  0  0  0  0  0  0  0  0  0  0  0
   -5.0367    0.1476   27.1210 C   0  0  0  0  0  0  0  0  0  0  0  0
   -5.7544    1.2562   27.4587 C   0  0  0  0  0  0  0  0  0  0  0  0
   -3.6729   -0.0142   27.7182 C   0  0  0  0  0  0  0  0  0  0  0  0
   -3.4118   -1.1306   28.0011 F   0  0  0  0  0  0  0  0  0  0  0  0
   -3.6693    0.7597   28.8626 F   0  0  0  0  0  0  0  0  0  0  0  0
   -2.7623    0.6133   26.9264 F   0  0  0  0  0  0  0  0  0  0  0  0
  -13.4733    0.1394   28.8206 C   0  0  0  0  0  0  0  0  0  0  0  0
  -12.7143   -0.7116   28.3448 C   0  0  0  0  0  0  0  0  0  0  0  0
  -12.8841   -2.0227   28.4152 C   0  0  0  0  0  0  0  0  0  0  0  0
  -14.1237   -2.4393   28.9787 C   0  0  0  0  0  0  0  0  0  0  0  0
  -14.6211   -0.3033   29.5024 C   0  0  0  0  0  0  0  0  0  0  0  0
  -14.9272   -1.5822   29.5585 C   0  0  0  0  0  0  0  0  0  0  0  0
  -14.4147   -3.8209   29.0338 O   0  0  0  0  0  0  0  0  0  0  0  0
  -14.9669   -4.4462   28.2108 C   0  0  0  0  0  0  0  0  0  0  0  0
  -15.3417   -4.2497   27.1011 C   0  0  0  0  0  0  0  0  0  0  0  0
  -15.2935   -5.8854   28.7266 C   0  0  0  0  0  0  0  0  0  0  0  0
  -15.0577   -2.9043   26.5119 C   0  0  0  0  0  0  0  0  0  0  0  0
  -15.3552   -2.3652   25.4571 C   0  0  0  0  0  0  0  0  0  0  0  0
  -16.1939   -3.0720   24.5920 C   0  0  0  0  0  0  0  0  0  0  0  0
  -16.5410   -4.3844   25.0096 C   0  0  0  0  0  0  0  0  0  0  0  0
  -16.1679   -4.8755   26.2050 C   0  0  0  0  0  0  0  0  0  0  0  0
  -14.7663   -6.2100   29.9457 N   0  0  0  0  0  0  0  0  0  0  0  0
  -15.9049   -6.6492   28.0896 O   0  0  0  0  0  0  0  0  0  0  0  0
  6  8  1  0
  4 14  1  0
 18 20  1  0
 20 21  1  0
 20 22  1  0
 20 23  1  0
 12 24  1  0
 27 30  1  0
 30 31  1  0
 31 33  1  0
 33 39  1  0
 33 40  2  0
 31 32  1  0
  3  2  1  0
 24 25  2  0
 25 26  1  0
 26 27  2  0
 27 29  1  0
 29 28  2  0
 28 24  1  0
  1  2  2  0
  2  7  1  0
  7  6  2  0
  6  5  1  0
  5  4  2  0
  4  1  1  0
 14 15  2  0
 15 16  1  0
 16 17  2  0
 17 18  1  0
 18 19  2  0
 19 14  1  0
 32 34  2  0
 34 35  1  0
 35 36  2  0
 36 37  1  0
 37 38  2  0
 38 32  1  0
  8  9  2  0
  9 10  1  0
 10 11  2  0
 11 12  1  0
 12 13  2  0
 13  8  1  0
M  END
$$$$
