No_530-complexes_sdf/6BKW-FPZ/2024-09-17-14-21-01/
     RDKit          3D

 22 23  0  0  0  0  0  0  0  0999 V2000
   -7.9040    3.9820   27.1177 C   0  0  0  0  0  0  0  0  0  0  0  0
   -7.8663    4.8694   27.9238 C   0  0  0  0  0  0  0  0  0  0  0  0
   -9.0491    3.8523   26.2542 C   0  0  0  0  0  0  0  0  0  0  0  0
   -8.7661    5.9491   27.9690 C   0  0  0  0  0  0  0  0  0  0  0  0
   -9.9295    4.8502   26.2323 C   0  0  0  0  0  0  0  0  0  0  0  0
   -9.8077    5.9288   27.0933 C   0  0  0  0  0  0  0  0  0  0  0  0
   -7.0146    2.9513   27.1368 F   0  0  0  0  0  0  0  0  0  0  0  0
   -9.1130    2.5493   25.1061 Cl  0  0  0  0  0  0  0  0  0  0  0  0
  -10.9156    4.8421   25.3250 O   0  0  0  0  0  0  0  0  0  0  0  0
  -10.6472    4.6840   24.0655 C   0  0  0  0  0  0  0  0  0  0  0  0
  -11.2113    3.4336   23.4775 C   0  0  0  0  0  0  0  0  0  0  0  0
  -10.5167    2.9632   22.3615 C   0  0  0  0  0  0  0  0  0  0  0  0
  -10.7340    1.6752   21.9400 C   0  0  0  0  0  0  0  0  0  0  0  0
  -11.7822    0.9304   22.4573 C   0  0  0  0  0  0  0  0  0  0  0  0
  -12.5118    1.4906   23.4734 C   0  0  0  0  0  0  0  0  0  0  0  0
  -12.1750    2.6821   24.0264 C   0  0  0  0  0  0  0  0  0  0  0  0
  -13.6164    0.6563   24.0311 C   0  0  0  0  0  0  0  0  0  0  0  0
  -14.1026   -0.2893   23.4684 C   0  0  0  0  0  0  0  0  0  0  0  0
  -15.0888   -1.0391   24.0359 C   0  0  0  0  0  0  0  0  0  0  0  0
  -15.6385   -0.6396   25.2790 C   0  0  0  0  0  0  0  0  0  0  0  0
  -14.1371    1.0839   25.3754 C   0  0  0  0  0  0  0  0  0  0  0  0
  -13.5413    2.2519   26.0802 C   0  0  0  0  0  0  0  0  0  0  0  0
  1  7  1  0
  3  8  1  0
  5  9  1  0
  9 10  1  0
 10 11  1  0
 15 17  1  0
 17 18  1  0
 18 19  2  3
 19 20  1  0
 17 21  1  0
 21 22  2  0
 11 12  2  0
 12 13  1  0
 13 14  2  0
 14 15  1  0
 15 16  2  0
 16 11  1  0
  1  2  2  0
  2  4  1  0
  4  6  2  0
  6  5  1  0
  5  3  2  0
  3  1  1  0
M  END
$$$$
