No_636-complexes_sdf/6BKW-FPZ/2024-09-17-14-21-01/
     RDKit          3D

 20 21  0  0  0  0  0  0  0  0999 V2000
   -7.7129    4.2099   27.0854 C   0  0  0  0  0  0  0  0  0  0  0  0
   -8.2112    3.0637   26.9225 C   0  0  0  0  0  0  0  0  0  0  0  0
   -8.5108    5.3904   26.9436 C   0  0  0  0  0  0  0  0  0  0  0  0
   -9.7256    5.1955   26.3518 C   0  0  0  0  0  0  0  0  0  0  0  0
   -9.4995    2.8258   26.4878 C   0  0  0  0  0  0  0  0  0  0  0  0
  -10.2542    3.9691   26.2055 C   0  0  0  0  0  0  0  0  0  0  0  0
   -7.9135    6.7086   27.1885 C   0  0  0  0  0  0  0  0  0  0  0  0
   -7.3624    1.8198   27.2561 C   0  0  0  0  0  0  0  0  0  0  0  0
   -6.0561    1.9823   27.7522 C   0  0  0  0  0  0  0  0  0  0  0  0
   -5.2693    0.8235   28.0672 C   0  0  0  0  0  0  0  0  0  0  0  0
   -5.8377   -0.4242   27.9045 C   0  0  0  0  0  0  0  0  0  0  0  0
   -7.9280    0.5092   27.1515 C   0  0  0  0  0  0  0  0  0  0  0  0
   -7.1569   -0.5493   27.5234 C   0  0  0  0  0  0  0  0  0  0  0  0
   -8.6393    7.7504   27.0036 F   0  0  0  0  0  0  0  0  0  0  0  0
   -7.4880    6.7563   28.5439 F   0  0  0  0  0  0  0  0  0  0  0  0
   -4.0475    0.9241   28.5788 F   0  0  0  0  0  0  0  0  0  0  0  0
   -6.7800    6.9211   26.5436 F   0  0  0  0  0  0  0  0  0  0  0  0
  -11.5879    3.8708   25.6032 C   0  0  0  0  0  0  0  0  0  0  0  0
  -11.6827    3.5145   24.3005 C   0  0  0  0  0  0  0  0  0  0  0  0
  -12.9504    3.4099   23.6744 C   0  0  0  0  0  0  0  0  0  0  0  0
  3  7  1  0
  2  8  1  0
  7 14  1  0
  7 15  1  0
 10 16  1  0
  7 17  1  0
  6 18  1  0
 18 19  2  3
 19 20  1  0
  1  2  2  0
  2  5  1  0
  5  6  2  0
  6  4  1  0
  4  3  2  0
  3  1  1  0
  8  9  2  0
  9 10  1  0
 10 11  2  0
 11 13  1  0
 13 12  2  0
 12  8  1  0
M  END
$$$$
