No_6512-complexes_sdf/6BKW-FPZ/2024-09-17-14-21-01/
     RDKit          3D

 15 16  0  0  0  0  0  0  0  0999 V2000
   -7.7129    4.2099   27.0854 C   0  0  0  0  0  0  0  0  0  0  0  0
   -8.2112    3.0637   26.9225 C   0  0  0  0  0  0  0  0  0  0  0  0
   -9.4446    2.8304   26.1868 C   0  0  0  0  0  0  0  0  0  0  0  0
   -8.4697    5.3956   26.7238 C   0  0  0  0  0  0  0  0  0  0  0  0
   -9.6172    5.2111   25.9513 C   0  0  0  0  0  0  0  0  0  0  0  0
  -10.0424    3.9782   25.6873 C   0  0  0  0  0  0  0  0  0  0  0  0
   -7.8256    6.9333   27.0525 Cl  0  0  0  0  0  0  0  0  0  0  0  0
   -7.4841    1.8412   27.3998 C   0  0  0  0  0  0  0  0  0  0  0  0
   -6.9923    0.9354   26.8441 N   0  0  0  0  0  0  0  0  0  0  0  0
   -6.1352    0.0921   27.4946 C   0  0  0  0  0  0  0  0  0  0  0  0
   -4.9493    0.1786   27.4094 C   0  0  0  0  0  0  0  0  0  0  0  0
   -3.9379   -0.6459   28.1300 C   0  0  0  0  0  0  0  0  0  0  0  0
   -4.4412   -1.6173   28.9609 C   0  0  0  0  0  0  0  0  0  0  0  0
   -6.4863   -0.9910   28.3992 C   0  0  0  0  0  0  0  0  0  0  0  0
   -5.7631   -1.7681   29.0594 C   0  0  0  0  0  0  0  0  0  0  0  0
  4  7  1  0
  2  8  1  0
  8  9  1  0
  9 10  1  0
  1  2  2  0
  2  3  1  0
  3  6  2  0
  6  5  1  0
  5  4  2  0
  4  1  1  0
 10 11  2  0
 11 12  1  0
 12 13  2  0
 13 15  1  0
 15 14  2  0
 14 10  1  0
M  END
$$$$
