No_6443-complexes_sdf/6BKW-FPZ/2024-09-17-14-21-01/
     RDKit          3D

 38 41  0  0  0  0  0  0  0  0999 V2000
   -7.9040    3.9820   27.1177 C   0  0  0  0  0  0  0  0  0  0  0  0
   -8.2057    2.8231   26.8733 C   0  0  0  0  0  0  0  0  0  0  0  0
   -7.0130    4.3706   28.1140 C   0  0  0  0  0  0  0  0  0  0  0  0
   -7.4093    1.7370   27.3857 C   0  0  0  0  0  0  0  0  0  0  0  0
   -6.1712    2.1248   28.0064 C   0  0  0  0  0  0  0  0  0  0  0  0
   -5.2502    1.1819   28.3202 N   0  0  0  0  0  0  0  0  0  0  0  0
   -5.9434    3.4901   28.3437 C   0  0  0  0  0  0  0  0  0  0  0  0
   -4.6139    0.2612   27.7332 C   0  0  0  0  0  0  0  0  0  0  0  0
   -3.5778   -0.4047   28.3618 C   0  0  0  0  0  0  0  0  0  0  0  0
   -8.8708    5.2327   26.8172 C   0  0  0  0  0  0  0  0  0  0  0  0
   -9.4172    5.1829   25.5444 N   0  0  0  0  0  0  0  0  0  0  0  0
   -2.6581   -1.1281   27.7299 C   0  0  0  0  0  0  0  0  0  0  0  0
   -2.8015   -1.2967   26.3075 C   0  0  0  0  0  0  0  0  0  0  0  0
   -3.8535   -0.6082   25.6655 C   0  0  0  0  0  0  0  0  0  0  0  0
   -4.7113    0.2391   26.3370 C   0  0  0  0  0  0  0  0  0  0  0  0
   -8.9580    6.2516   27.4107 O   0  0  0  0  0  0  0  0  0  0  0  0
   -3.4616   -0.1400   29.8642 C   0  0  0  0  0  0  0  0  0  0  0  0
   -4.4507    0.0076   30.6286 N   0  0  0  0  0  0  0  0  0  0  0  0
   -4.4736   -0.4128   31.9430 C   0  0  0  0  0  0  0  0  0  0  0  0
   -3.3270   -0.7882   32.4879 C   0  0  0  0  0  0  0  0  0  0  0  0
   -2.3208   -1.3487   31.7043 C   0  0  0  0  0  0  0  0  0  0  0  0
   -2.2985   -0.9942   30.4081 C   0  0  0  0  0  0  0  0  0  0  0  0
   -3.3438   -1.0750   34.0117 C   0  0  0  0  0  0  0  0  0  0  0  0
   -4.3664   -1.1375   34.6435 O   0  0  0  0  0  0  0  0  0  0  0  0
   -2.1687   -1.0213   34.6198 O   0  0  0  0  0  0  0  0  0  0  0  0
   -5.1538   -2.1210   34.8739 C   0  0  0  0  0  0  0  0  0  0  0  0
   -4.6997   -2.8849   35.9004 C   0  0  0  0  0  0  0  0  0  0  0  0
   -5.4735   -3.9403   36.1565 O   0  0  0  0  0  0  0  0  0  0  0  0
   -6.2724   -2.4207   34.1611 C   0  0  0  0  0  0  0  0  0  0  0  0
   -6.5150   -1.7566   33.0305 N   0  0  0  0  0  0  0  0  0  0  0  0
   -7.6227   -2.0332   32.1684 C   0  0  0  0  0  0  0  0  0  0  0  0
   -7.3262   -2.6714   30.9632 C   0  0  0  0  0  0  0  0  0  0  0  0
   -6.1524   -2.7729   30.5092 C   0  0  0  0  0  0  0  0  0  0  0  0
   -5.7987   -3.3221   29.2121 C   0  0  0  0  0  0  0  0  0  0  0  0
   -6.7735   -3.4763   28.3094 C   0  0  0  0  0  0  0  0  0  0  0  0
   -8.1146   -3.2922   28.7426 C   0  0  0  0  0  0  0  0  0  0  0  0
   -8.4151   -2.8019   30.0303 C   0  0  0  0  0  0  0  0  0  0  0  0
   -8.6935   -2.3509   32.8314 O   0  0  0  0  0  0  0  0  0  0  0  0
  5  6  1  0
  6  8  1  0
  1 10  1  0
 10 11  1  0
 10 16  2  0
  9 17  1  0
 20 23  1  0
 23 24  1  0
 23 25  2  0
 24 26  1  0
 26 27  1  0
 27 28  1  0
 26 29  1  0
 29 30  1  0
 30 31  1  0
 31 32  1  0
 31 38  2  0
 17 18  2  0
 18 19  1  0
 19 20  2  0
 20 21  1  0
 21 22  2  0
 22 17  1  0
 32 33  2  0
 33 34  1  0
 34 35  2  0
 35 36  1  0
 36 37  2  0
 37 32  1  0
  1  2  2  0
  2  4  1  0
  4  5  2  0
  5  7  1  0
  7  3  2  0
  3  1  1  0
  8  9  1  0
  9 12  2  0
 12 13  1  0
 13 14  2  0
 14 15  1  0
 15  8  2  0
M  END
$$$$
