No_6304-complexes_sdf/6BKW-FPZ/2024-09-17-14-21-01/
     RDKit          3D

 19 20  0  0  0  0  0  0  0  0999 V2000
   -7.9040    3.9820   27.1177 C   0  0  0  0  0  0  0  0  0  0  0  0
   -8.2057    2.8231   26.8733 C   0  0  0  0  0  0  0  0  0  0  0  0
   -9.2962    2.4021   26.1155 C   0  0  0  0  0  0  0  0  0  0  0  0
   -8.7358    5.0662   26.5917 C   0  0  0  0  0  0  0  0  0  0  0  0
   -9.7618    4.7023   25.7546 C   0  0  0  0  0  0  0  0  0  0  0  0
  -10.0066    3.4105   25.4922 C   0  0  0  0  0  0  0  0  0  0  0  0
   -8.3936    6.4769   26.8843 C   0  0  0  0  0  0  0  0  0  0  0  0
   -8.0595    6.8026   28.2082 C   0  0  0  0  0  0  0  0  0  0  0  0
   -8.5630    7.4643   25.9174 C   0  0  0  0  0  0  0  0  0  0  0  0
   -7.3433    1.6617   27.4880 C   0  0  0  0  0  0  0  0  0  0  0  0
   -5.9637    1.9094   27.7824 C   0  0  0  0  0  0  0  0  0  0  0  0
   -5.1875    0.8482   28.2931 C   0  0  0  0  0  0  0  0  0  0  0  0
   -5.6956   -0.4171   28.3784 C   0  0  0  0  0  0  0  0  0  0  0  0
   -7.7616    0.3354   27.5082 C   0  0  0  0  0  0  0  0  0  0  0  0
   -7.0123   -0.6362   28.0127 C   0  0  0  0  0  0  0  0  0  0  0  0
   -4.8502   -1.4774   28.9479 C   0  0  0  0  0  0  0  0  0  0  0  0
   -4.0023   -1.7319   29.4969 P   0  0  0  0  0  0  0  0  0  0  0  0
   -3.6359   -0.7289   30.2618 O   0  0  0  0  0  0  0  0  0  0  0  0
   -4.1240   -2.9721   30.4696 O   0  0  0  0  0  0  0  0  0  0  0  0
  4  7  1  0
  7  8  1  0
  7  9  1  0
  2 10  1  0
 13 16  1  0
 16 17  3  0
 17 18  1  0
 17 19  1  0
  1  2  2  0
  2  3  1  0
  3  6  2  0
  6  5  1  0
  5  4  2  0
  4  1  1  0
 10 11  2  0
 11 12  1  0
 12 13  2  0
 13 15  1  0
 15 14  2  0
 14 10  1  0
M  END
$$$$
