No_6199-complexes_sdf/6BKW-FPZ/2024-09-17-14-21-01/
     RDKit          3D

 13 14  0  0  0  0  0  0  0  0999 V2000
   -7.2496    3.8871   27.4508 C   0  0  0  0  0  0  0  0  0  0  0  0
   -8.5096    4.0291   27.2770 C   0  0  0  0  0  0  0  0  0  0  0  0
   -9.2677    5.1714   27.5773 C   0  0  0  0  0  0  0  0  0  0  0  0
   -6.5550    4.9883   28.1029 C   0  0  0  0  0  0  0  0  0  0  0  0
   -7.2821    6.1172   28.4246 C   0  0  0  0  0  0  0  0  0  0  0  0
   -8.5921    6.2192   28.1135 C   0  0  0  0  0  0  0  0  0  0  0  0
   -9.2633    2.8293   26.6948 C   0  0  0  0  0  0  0  0  0  0  0  0
   -9.9060    2.0304   27.4363 C   0  0  0  0  0  0  0  0  0  0  0  0
  -10.1235    2.3752   28.8596 C   0  0  0  0  0  0  0  0  0  0  0  0
  -10.3276    0.7024   27.0035 C   0  0  0  0  0  0  0  0  0  0  0  0
  -11.1301   -0.0141   27.7044 C   0  0  0  0  0  0  0  0  0  0  0  0
  -11.3267    1.6704   29.4312 C   0  0  0  0  0  0  0  0  0  0  0  0
  -11.7145    0.4926   28.8925 C   0  0  0  0  0  0  0  0  0  0  0  0
  2  7  1  0
  7  8  1  0
  1  2  2  0
  2  3  1  0
  3  6  2  0
  6  5  1  0
  5  4  2  0
  4  1  1  0
  8  9  2  0
  9 12  1  0
 12 13  2  0
 13 11  1  0
 11 10  2  0
 10  8  1  0
M  END
$$$$
