No_663-complexes_sdf/6BKW-FPZ/2024-09-17-14-21-01/
     RDKit          3D

 40 44  0  0  0  0  0  0  0  0999 V2000
   -7.2496    3.8871   27.4508 C   0  0  0  0  0  0  0  0  0  0  0  0
   -8.5096    4.0291   27.2770 C   0  0  0  0  0  0  0  0  0  0  0  0
   -9.3502    2.8685   26.8763 C   0  0  0  0  0  0  0  0  0  0  0  0
   -6.6288    2.5513   27.4938 C   0  0  0  0  0  0  0  0  0  0  0  0
   -7.4365    1.4714   27.2032 C   0  0  0  0  0  0  0  0  0  0  0  0
  -10.6956    3.0464   26.6122 C   0  0  0  0  0  0  0  0  0  0  0  0
   -8.7780    1.6365   26.9046 C   0  0  0  0  0  0  0  0  0  0  0  0
  -11.2600    4.0709   26.3219 C   0  0  0  0  0  0  0  0  0  0  0  0
  -12.4109    4.3242   26.0472 C   0  0  0  0  0  0  0  0  0  0  0  0
  -13.4817    3.3707   26.1630 C   0  0  0  0  0  0  0  0  0  0  0  0
  -12.9208    2.1390   26.5175 C   0  0  0  0  0  0  0  0  0  0  0  0
  -11.6241    1.9172   26.8069 C   0  0  0  0  0  0  0  0  0  0  0  0
   -5.3626    2.4425   27.7644 F   0  0  0  0  0  0  0  0  0  0  0  0
   -6.8115    0.1299   27.1710 C   0  0  0  0  0  0  0  0  0  0  0  0
   -7.3990   -0.8153   27.1778 O   0  0  0  0  0  0  0  0  0  0  0  0
   -5.5098    0.0380   27.3166 O   0  0  0  0  0  0  0  0  0  0  0  0
   -4.8897   -0.9763   26.6377 C   0  0  0  0  0  0  0  0  0  0  0  0
   -3.9097   -1.6200   27.4519 C   0  0  0  0  0  0  0  0  0  0  0  0
   -4.2947   -2.0724   28.5053 C   0  0  0  0  0  0  0  0  0  0  0  0
   -4.3209   -1.5852   29.5040 C   0  0  0  0  0  0  0  0  0  0  0  0
   -4.4623   -1.5394   30.6638 C   0  0  0  0  0  0  0  0  0  0  0  0
   -4.4147   -0.4790   31.7591 C   0  0  0  0  0  0  0  0  0  0  0  0
   -4.7156   -0.6508   33.1090 C   0  0  0  0  0  0  0  0  0  0  0  0
   -5.2017   -1.8861   33.5472 C   0  0  0  0  0  0  0  0  0  0  0  0
   -5.2682   -2.9334   32.6503 C   0  0  0  0  0  0  0  0  0  0  0  0
   -4.9958   -2.7661   31.3881 C   0  0  0  0  0  0  0  0  0  0  0  0
   -5.4759   -2.0122   35.0083 C   0  0  0  0  0  0  0  0  0  0  0  0
   -5.0180   -1.2348   35.8397 O   0  0  0  0  0  0  0  0  0  0  0  0
   -6.4167   -2.8801   35.4205 N   0  0  0  0  0  0  0  0  0  0  0  0
   -7.0863   -3.7597   34.6279 C   0  0  0  0  0  0  0  0  0  0  0  0
   -6.7635   -2.9256   36.8824 C   0  0  0  0  0  0  0  0  0  0  0  0
   -7.9755   -3.1164   37.1894 C   0  0  0  0  0  0  0  0  0  0  0  0
   -8.4850   -4.0599   35.0790 C   0  0  0  0  0  0  0  0  0  0  0  0
   -8.8122   -3.8900   36.4151 C   0  0  0  0  0  0  0  0  0  0  0  0
   -3.8330   -3.4668   28.7831 C   0  0  0  0  0  0  0  0  0  0  0  0
   -4.0828   -4.2983   27.7898 C   0  0  0  0  0  0  0  0  0  0  0  0
   -3.7907   -5.6787   28.0045 C   0  0  0  0  0  0  0  0  0  0  0  0
   -3.4253   -6.0714   29.2611 C   0  0  0  0  0  0  0  0  0  0  0  0
   -3.2358   -5.2301   30.3046 C   0  0  0  0  0  0  0  0  0  0  0  0
   -3.4815   -3.9148   30.1095 C   0  0  0  0  0  0  0  0  0  0  0  0
  3  6  1  0
  4 13  1  0
  5 14  1  0
 14 15  2  0
 14 16  1  0
 16 17  1  0
 17 18  1  0
 18 19  1  0
 19 20  2  3
 20 21  1  0
 24 27  1  0
 27 28  2  0
 27 29  1  0
 29 30  1  0
 29 31  1  0
 32 34  1  0
 33 34  1  0
 19 35  1  0
 30 33  1  0
 32 31  1  0
 35 36  2  0
 36 37  1  0
 37 38  2  0
 38 39  1  0
 39 40  2  0
 40 35  1  0
  1  2  2  0
  2  3  1  0
  3  7  2  0
  7  5  1  0
  5  4  2  0
  4  1  1  0
  6  8  2  0
  8  9  1  0
  9 10  2  0
 10 11  1  0
 11 12  2  0
 12  6  1  0
 21 22  2  0
 22 23  1  0
 23 24  2  0
 24 25  1  0
 25 26  2  0
 26 21  1  0
M  END
$$$$
