No_6843-complexes_sdf/6BKW-FPZ/2024-09-17-14-21-01/
     RDKit          3D

 13 13  0  0  0  0  0  0  0  0999 V2000
   -7.2496    3.8871   27.4508 C   0  0  0  0  0  0  0  0  0  0  0  0
   -7.6161    2.7143   27.1523 C   0  0  0  0  0  0  0  0  0  0  0  0
   -7.1618    1.8631   27.5232 C   0  0  0  0  0  0  0  0  0  0  0  0
   -5.9773    4.1571   28.0182 C   0  0  0  0  0  0  0  0  0  0  0  0
   -5.7721    1.8060   28.0566 C   0  0  0  0  0  0  0  0  0  0  0  0
   -5.3192    3.0867   28.2794 N   0  0  0  0  0  0  0  0  0  0  0  0
   -7.9522    5.2935   27.2315 C   0  0  0  0  0  0  0  0  0  0  0  0
   -9.1465    5.4540   27.1409 C   0  0  0  0  0  0  0  0  0  0  0  0
   -9.5002    6.8103   27.0684 N   0  0  0  0  0  0  0  0  0  0  0  0
  -10.0908    4.5774   27.0447 N   0  0  0  0  0  0  0  0  0  0  0  0
   -4.9266    0.6755   28.3365 C   0  0  0  0  0  0  0  0  0  0  0  0
   -5.4705   -0.5245   28.6085 C   0  0  0  0  0  0  0  0  0  0  0  0
   -4.6133   -1.5984   29.0009 C   0  0  0  0  0  0  0  0  0  0  0  0
  1  7  1  0
  7  8  1  0
  8  9  1  0
  8 10  1  0
  5 11  1  0
 11 12  2  3
 12 13  1  0
  1  2  2  0
  2  3  1  0
  3  5  2  0
  5  6  1  0
  6  4  2  0
  4  1  1  0
M  END
$$$$
