No_6497-complexes_sdf/6BKW-FPZ/2024-09-17-14-21-01/
     RDKit          3D

 11 11  0  0  0  0  0  0  0  0999 V2000
   -7.2496    3.8871   27.4508 C   0  0  0  0  0  0  0  0  0  0  0  0
   -7.9379    4.9063   27.8518 C   0  0  0  0  0  0  0  0  0  0  0  0
   -8.7729    5.5444   27.0168 C   0  0  0  0  0  0  0  0  0  0  0  0
   -7.7708    3.0049   26.4155 C   0  0  0  0  0  0  0  0  0  0  0  0
   -9.4150    4.8195   25.9760 C   0  0  0  0  0  0  0  0  0  0  0  0
   -8.8843    3.5312   25.7385 C   0  0  0  0  0  0  0  0  0  0  0  0
   -9.4694    2.7939   24.6215 C   0  0  0  0  0  0  0  0  0  0  0  0
  -10.5797    2.5498   24.5608 N   0  0  0  0  0  0  0  0  0  0  0  0
  -11.2402    2.0016   23.5609 C   0  0  0  0  0  0  0  0  0  0  0  0
  -11.7557    2.2257   22.7246 C   0  0  0  0  0  0  0  0  0  0  0  0
  -12.3409    1.4502   21.5904 C   0  0  0  0  0  0  0  0  0  0  0  0
  6  7  1  0
  7  8  1  0
  8  9  1  0
  9 10  2  3
 10 11  1  0
  1  2  2  0
  2  3  1  0
  3  5  2  0
  5  6  1  0
  6  4  2  0
  4  1  1  0
M  END
$$$$
