No_6629-complexes_sdf/6BKW-FPZ/2024-09-17-14-21-01/
     RDKit          3D

 18 19  0  0  0  0  0  0  0  0999 V2000
   -7.2496    3.8871   27.4508 C   0  0  0  0  0  0  0  0  0  0  0  0
   -7.9379    4.9063   27.8518 C   0  0  0  0  0  0  0  0  0  0  0  0
   -8.7729    5.5444   27.0168 C   0  0  0  0  0  0  0  0  0  0  0  0
   -7.7708    3.0049   26.4155 C   0  0  0  0  0  0  0  0  0  0  0  0
   -9.4150    4.8195   25.9760 C   0  0  0  0  0  0  0  0  0  0  0  0
   -8.8843    3.5312   25.7385 C   0  0  0  0  0  0  0  0  0  0  0  0
   -9.4722    2.7950   24.6213 C   0  0  0  0  0  0  0  0  0  0  0  0
  -10.4748    3.3905   23.8278 C   0  0  0  0  0  0  0  0  0  0  0  0
  -10.9162    4.7382   24.1725 C   0  0  0  0  0  0  0  0  0  0  0  0
  -10.3571    5.3547   25.1484 C   0  0  0  0  0  0  0  0  0  0  0  0
   -6.2272    3.2987   28.1440 O   0  0  0  0  0  0  0  0  0  0  0  0
  -11.0133    2.7213   22.8358 O   0  0  0  0  0  0  0  0  0  0  0  0
  -10.2891    2.4394   21.7426 C   0  0  0  0  0  0  0  0  0  0  0  0
   -5.6551    2.1454   27.8563 C   0  0  0  0  0  0  0  0  0  0  0  0
   -4.3400    1.8992   28.3320 C   0  0  0  0  0  0  0  0  0  0  0  0
   -3.7888    0.5714   28.2063 C   0  0  0  0  0  0  0  0  0  0  0  0
   -4.5180   -0.4222   27.6003 C   0  0  0  0  0  0  0  0  0  0  0  0
   -4.0231   -1.6764   27.4487 C   0  0  0  0  0  0  0  0  0  0  0  0
  1 11  1  0
  8 12  1  0
 12 13  1  0
 11 14  1  0
 14 15  2  3
 15 16  1  0
 16 17  2  3
 17 18  1  0
  1  2  2  0
  2  3  1  0
  3  5  2  0
  6  4  2  0
  4  1  1  0
  5  6  1  0
  6  7  1  0
  7  8  2  0
  8  9  1  0
  9 10  2  0
 10  5  1  0
M  END
$$$$
