No_6973-complexes_sdf/6BKW-FPZ/2024-09-17-14-21-01/
     RDKit          3D

 26 28  0  0  0  0  0  0  0  0999 V2000
   -7.9040    3.9820   27.1177 C   0  0  0  0  0  0  0  0  0  0  0  0
   -8.2057    2.8231   26.8733 C   0  0  0  0  0  0  0  0  0  0  0  0
   -7.0130    4.3706   28.1140 C   0  0  0  0  0  0  0  0  0  0  0  0
   -7.4093    1.7370   27.3857 C   0  0  0  0  0  0  0  0  0  0  0  0
   -6.1943    2.1490   28.0403 C   0  0  0  0  0  0  0  0  0  0  0  0
   -5.2077    1.1775   28.4320 C   0  0  0  0  0  0  0  0  0  0  0  0
   -5.9705    3.5268   28.3803 C   0  0  0  0  0  0  0  0  0  0  0  0
   -4.5317    0.4124   27.5829 C   0  0  0  0  0  0  0  0  0  0  0  0
   -3.5074   -0.4777   28.0030 C   0  0  0  0  0  0  0  0  0  0  0  0
   -8.9690    5.0873   26.7092 C   0  0  0  0  0  0  0  0  0  0  0  0
   -9.0936    6.2077   27.3716 N   0  0  0  0  0  0  0  0  0  0  0  0
   -9.5577    4.9558   25.5427 N   0  0  0  0  0  0  0  0  0  0  0  0
   -3.1663   -0.5794   29.3784 C   0  0  0  0  0  0  0  0  0  0  0  0
   -3.9121    0.2057   30.2804 C   0  0  0  0  0  0  0  0  0  0  0  0
   -4.7679    1.0622   29.8374 C   0  0  0  0  0  0  0  0  0  0  0  0
   -3.4640    0.1492   31.9312 Cl  0  0  0  0  0  0  0  0  0  0  0  0
  -10.2115    3.9082   25.1208 C   0  0  0  0  0  0  0  0  0  0  0  0
  -11.4285    4.1859   24.6298 C   0  0  0  0  0  0  0  0  0  0  0  0
  -12.2619    3.2240   24.0426 C   0  0  0  0  0  0  0  0  0  0  0  0
  -13.4778    3.5492   23.5858 C   0  0  0  0  0  0  0  0  0  0  0  0
  -14.3837    2.6550   23.1014 C   0  0  0  0  0  0  0  0  0  0  0  0
  -13.9524    1.3350   23.0349 C   0  0  0  0  0  0  0  0  0  0  0  0
  -12.7459    0.9333   23.4359 C   0  0  0  0  0  0  0  0  0  0  0  0
  -11.8421    1.9225   23.9559 C   0  0  0  0  0  0  0  0  0  0  0  0
  -15.0729    0.2180   22.3668 Cl  0  0  0  0  0  0  0  0  0  0  0  0
   -9.7127    2.7438   25.0266 O   0  0  0  0  0  0  0  0  0  0  0  0
  5  6  1  0
  1 10  1  0
 10 11  1  0
 10 12  2  3
 14 16  1  0
 12 17  1  0
 17 18  1  0
 22 25  1  0
 17 26  2  0
 18 19  1  0
  6  8  2  0
  8  9  1  0
  9 13  2  0
 13 14  1  0
 14 15  2  0
 15  6  1  0
  1  2  2  0
  2  4  1  0
  4  5  2  0
  5  7  1  0
  7  3  2  0
  3  1  1  0
 19 20  2  0
 20 21  1  0
 21 22  2  0
 22 23  1  0
 23 24  2  0
 24 19  1  0
M  END
$$$$
