No_6722-complexes_sdf/6BKW-FPZ/2024-09-17-14-21-01/
     RDKit          3D

 13 14  0  0  0  0  0  0  0  0999 V2000
   -7.7129    4.2099   27.0854 C   0  0  0  0  0  0  0  0  0  0  0  0
   -8.9133    4.4736   27.0998 C   0  0  0  0  0  0  0  0  0  0  0  0
   -9.4643    5.5426   27.7628 C   0  0  0  0  0  0  0  0  0  0  0  0
   -6.8373    4.9942   27.9785 C   0  0  0  0  0  0  0  0  0  0  0  0
   -7.3717    6.0428   28.6744 C   0  0  0  0  0  0  0  0  0  0  0  0
   -8.6869    6.3937   28.5345 C   0  0  0  0  0  0  0  0  0  0  0  0
   -9.8029    3.6153   26.2122 C   0  0  0  0  0  0  0  0  0  0  0  0
  -10.1002    2.3701   26.5024 C   0  0  0  0  0  0  0  0  0  0  0  0
   -9.4848    1.8238   27.7325 C   0  0  0  0  0  0  0  0  0  0  0  0
  -10.7066    1.4495   25.5957 C   0  0  0  0  0  0  0  0  0  0  0  0
  -10.2750    0.4017   25.2065 C   0  0  0  0  0  0  0  0  0  0  0  0
   -9.2382    0.2958   27.6760 C   0  0  0  0  0  0  0  0  0  0  0  0
   -9.7750   -0.4350   26.5574 C   0  0  0  0  0  0  0  0  0  0  0  0
  2  7  1  0
  7  8  1  0
  1  2  2  0
  2  3  1  0
  3  6  2  0
  6  5  1  0
  5  4  2  0
  4  1  1  0
  8  9  2  0
  9 12  1  0
 12 13  2  0
 13 11  1  0
 11 10  2  0
 10  8  1  0
M  END
$$$$
