No_6521-complexes_sdf/6BKW-FPZ/2024-09-17-14-21-01/
     RDKit          3D

  9  9  0  0  0  0  0  0  0  0999 V2000
   -7.9040    3.9820   27.1177 C   0  0  0  0  0  0  0  0  0  0  0  0
   -9.0711    4.3164   27.0630 C   0  0  0  0  0  0  0  0  0  0  0  0
  -10.0395    3.8218   27.1938 C   0  0  0  0  0  0  0  0  0  0  0  0
   -6.6709    4.8255   27.1572 C   0  0  0  0  0  0  0  0  0  0  0  0
  -10.0466    2.3582   27.5904 C   0  0  0  0  0  0  0  0  0  0  0  0
  -11.1958    1.6087   27.8338 C   0  0  0  0  0  0  0  0  0  0  0  0
   -7.0991    6.1572   27.3075 C   0  0  0  0  0  0  0  0  0  0  0  0
   -8.3086    6.6880   27.2698 C   0  0  0  0  0  0  0  0  0  0  0  0
   -9.3468    5.8256   27.2316 C   0  0  0  0  0  0  0  0  0  0  0  0
  3  5  1  0
  5  6  2  0
  3  2  1  0
  1  2  2  0
  2  9  1  0
  9  8  2  0
  8  7  1  0
  7  4  2  0
  4  1  1  0
M  END
$$$$
