No_6953-complexes_sdf/6BKW-FPZ/2024-09-17-14-21-01/
     RDKit          3D

 34 37  0  0  0  0  0  0  0  0999 V2000
   -7.7129    4.2099   27.0854 C   0  0  0  0  0  0  0  0  0  0  0  0
   -8.9133    4.4736   27.0998 C   0  0  0  0  0  0  0  0  0  0  0  0
   -9.7937    3.7367   26.2091 C   0  0  0  0  0  0  0  0  0  0  0  0
   -7.2495    2.8647   26.8496 C   0  0  0  0  0  0  0  0  0  0  0  0
   -8.1891    1.9790   26.3454 C   0  0  0  0  0  0  0  0  0  0  0  0
   -9.4252    2.4603   26.0121 C   0  0  0  0  0  0  0  0  0  0  0  0
   -9.3199    5.9662   27.2512 C   0  0  0  0  0  0  0  0  0  0  0  0
   -7.7626    0.5908   26.1375 C   0  0  0  0  0  0  0  0  0  0  0  0
   -7.0239   -0.1054   27.1145 C   0  0  0  0  0  0  0  0  0  0  0  0
   -6.2859    0.3284   27.8334 C   0  0  0  0  0  0  0  0  0  0  0  0
   -5.4168   -0.5032   28.6950 C   0  0  0  0  0  0  0  0  0  0  0  0
   -5.7522   -1.7742   28.8353 C   0  0  0  0  0  0  0  0  0  0  0  0
   -7.3972   -1.5119   27.2706 C   0  0  0  0  0  0  0  0  0  0  0  0
   -6.7505   -2.3081   28.1140 C   0  0  0  0  0  0  0  0  0  0  0  0
   -4.2970    0.1703   29.5163 C   0  0  0  0  0  0  0  0  0  0  0  0
   -3.2882    0.2270   29.4396 N   0  0  0  0  0  0  0  0  0  0  0  0
   -8.1504    6.9113   27.3246 C   0  0  0  0  0  0  0  0  0  0  0  0
   -8.4577    8.2482   26.7866 C   0  0  0  0  0  0  0  0  0  0  0  0
  -10.3344    1.7070   25.1721 C   0  0  0  0  0  0  0  0  0  0  0  0
  -11.3357    0.9981   25.7840 C   0  0  0  0  0  0  0  0  0  0  0  0
  -10.1708    1.5368   23.7897 C   0  0  0  0  0  0  0  0  0  0  0  0
  -10.3583    0.4994   23.0740 C   0  0  0  0  0  0  0  0  0  0  0  0
  -11.8984   -0.0955   24.9935 C   0  0  0  0  0  0  0  0  0  0  0  0
  -11.0196   -0.4479   23.5081 C   0  0  0  0  0  0  0  0  0  0  0  0
  -11.7685    1.0432   27.1078 C   0  0  0  0  0  0  0  0  0  0  0  0
  -11.7595    2.1245   27.8185 N   0  0  0  0  0  0  0  0  0  0  0  0
  -12.1238    2.3210   29.1419 C   0  0  0  0  0  0  0  0  0  0  0  0
  -12.3884    0.0855   27.6833 O   0  0  0  0  0  0  0  0  0  0  0  0
  -13.3035    3.2364   29.2978 C   0  0  0  0  0  0  0  0  0  0  0  0
  -13.4772    4.2522   28.4561 C   0  0  0  0  0  0  0  0  0  0  0  0
  -14.5572    5.1586   28.5689 C   0  0  0  0  0  0  0  0  0  0  0  0
  -15.3254    5.1340   29.7494 C   0  0  0  0  0  0  0  0  0  0  0  0
  -15.0602    4.1310   30.6716 C   0  0  0  0  0  0  0  0  0  0  0  0
  -14.0481    3.2033   30.5233 C   0  0  0  0  0  0  0  0  0  0  0  0
  2  7  1  0
  5  8  1  0
  8  9  1  0
 11 15  1  0
 15 16  3  0
  7 17  1  0
 17 18  1  0
  6 19  1  0
 20 25  1  0
 25 26  1  0
 26 27  1  0
 25 28  2  0
 27 29  1  0
 29 30  2  0
 30 31  1  0
 31 32  2  0
 32 33  1  0
 33 34  2  0
 34 29  1  0
 19 20  2  0
 20 23  1  0
 23 24  2  0
 24 22  1  0
 22 21  2  0
 21 19  1  0
  1  2  2  0
  2  3  1  0
  3  6  2  0
  6  5  1  0
  5  4  2  0
  4  1  1  0
  9 10  2  0
 10 11  1  0
 11 12  2  0
 12 14  1  0
 14 13  2  0
 13  9  1  0
M  END
$$$$
