No_6901-complexes_sdf/6BKW-FPZ/2024-09-17-14-21-01/
     RDKit          3D

 17 19  0  0  0  0  0  0  0  0999 V2000
   -7.7129    4.2099   27.0854 C   0  0  0  0  0  0  0  0  0  0  0  0
   -7.7814    5.1722   27.8972 C   0  0  0  0  0  0  0  0  0  0  0  0
   -8.8998    3.8713   26.3707 C   0  0  0  0  0  0  0  0  0  0  0  0
   -9.7416    3.2213   26.9591 C   0  0  0  0  0  0  0  0  0  0  0  0
  -10.4037    4.0341   28.0402 C   0  0  0  0  0  0  0  0  0  0  0  0
  -11.6019    3.3299   28.6669 C   0  0  0  0  0  0  0  0  0  0  0  0
   -8.6050    6.1194   27.8696 C   0  0  0  0  0  0  0  0  0  0  0  0
  -10.0980    5.5342   28.1261 C   0  0  0  0  0  0  0  0  0  0  0  0
  -10.0302    1.8491   27.0006 C   0  0  0  0  0  0  0  0  0  0  0  0
  -10.6424    1.2784   26.2175 C   0  0  0  0  0  0  0  0  0  0  0  0
  -10.8592    1.6632   25.0812 C   0  0  0  0  0  0  0  0  0  0  0  0
  -11.4193    0.9525   23.8971 C   0  0  0  0  0  0  0  0  0  0  0  0
  -11.7450   -0.3364   24.1677 C   0  0  0  0  0  0  0  0  0  0  0  0
  -11.5718   -0.8888   25.3827 C   0  0  0  0  0  0  0  0  0  0  0  0
  -10.9945   -0.2031   26.4659 C   0  0  0  0  0  0  0  0  0  0  0  0
  -11.8967    2.1804   28.5694 C   0  0  0  0  0  0  0  0  0  0  0  0
  -10.9490    1.5085   28.5062 C   0  0  0  0  0  0  0  0  0  0  0  0
  1  2  1  0
  1  3  1  0
  3  4  1  0
  2  7  1  0
  5  8  1  0
  7  8  1  0
  9 10  1  0
  4  5  2  0
  5  6  1  0
  6 16  2  0
 16 17  1  0
 17  9  2  0
  9  4  1  0
 10 11  2  0
 11 12  1  0
 12 13  2  0
 13 14  1  0
 14 15  2  0
 15 10  1  0
M  END
$$$$
