No_6090-complexes_sdf/6BKW-FPZ/2024-09-17-14-21-01/
     RDKit          3D

 40 44  0  0  0  0  0  0  0  0999 V2000
   -7.2496    3.8871   27.4508 C   0  0  0  0  0  0  0  0  0  0  0  0
   -7.6161    2.7143   27.1523 C   0  0  0  0  0  0  0  0  0  0  0  0
   -6.9719    1.5838   27.5324 C   0  0  0  0  0  0  0  0  0  0  0  0
   -5.6316    1.7305   27.9933 C   0  0  0  0  0  0  0  0  0  0  0  0
   -8.0192    5.1128   27.1337 C   0  0  0  0  0  0  0  0  0  0  0  0
   -9.1382    4.9916   26.3588 C   0  0  0  0  0  0  0  0  0  0  0  0
   -9.5792    3.7407   25.9480 C   0  0  0  0  0  0  0  0  0  0  0  0
   -8.8585    2.5502   26.3623 C   0  0  0  0  0  0  0  0  0  0  0  0
   -4.9314    0.5023   28.3436 C   0  0  0  0  0  0  0  0  0  0  0  0
   -5.5238   -0.6977   28.3278 C   0  0  0  0  0  0  0  0  0  0  0  0
   -7.2551    0.1844   27.5567 C   0  0  0  0  0  0  0  0  0  0  0  0
   -6.7325   -0.8328   27.9296 C   0  0  0  0  0  0  0  0  0  0  0  0
   -7.7857    6.4041   27.5414 N   0  0  0  0  0  0  0  0  0  0  0  0
   -8.5668    7.3813   26.9665 C   0  0  0  0  0  0  0  0  0  0  0  0
   -3.4812    0.7535   28.8936 C   0  0  0  0  0  0  0  0  0  0  0  0
   -2.6692   -0.3067   28.7841 N   0  0  0  0  0  0  0  0  0  0  0  0
   -1.8995   -0.4984   27.9825 C   0  0  0  0  0  0  0  0  0  0  0  0
   -0.9468   -1.6212   28.0144 C   0  0  0  0  0  0  0  0  0  0  0  0
   -1.7099    0.3465   26.9036 N   0  0  0  0  0  0  0  0  0  0  0  0
   -9.7331    6.1305   25.9250 C   0  0  0  0  0  0  0  0  0  0  0  0
   -9.5160    7.2805   26.2234 N   0  0  0  0  0  0  0  0  0  0  0  0
  -10.7395    3.5644   24.7572 Cl  0  0  0  0  0  0  0  0  0  0  0  0
   -2.6960   -1.1707   30.0531 C   0  0  0  0  0  0  0  0  0  0  0  0
   -0.0344   -1.8490   26.9185 C   0  0  0  0  0  0  0  0  0  0  0  0
   -2.6400   -0.4017   31.1865 C   0  0  0  0  0  0  0  0  0  0  0  0
   -2.5147   -1.1344   32.4699 C   0  0  0  0  0  0  0  0  0  0  0  0
   -3.1068   -0.6097   33.5931 C   0  0  0  0  0  0  0  0  0  0  0  0
   -3.7078   -1.5450   34.5423 C   0  0  0  0  0  0  0  0  0  0  0  0
   -3.9193   -1.1818   35.8605 C   0  0  0  0  0  0  0  0  0  0  0  0
   -5.1672   -1.2803   36.4041 C   0  0  0  0  0  0  0  0  0  0  0  0
   -5.4333   -0.7610   37.7461 C   0  0  0  0  0  0  0  0  0  0  0  0
   -4.3758   -0.0125   38.3808 C   0  0  0  0  0  0  0  0  0  0  0  0
   -3.1356    0.1107   37.8070 C   0  0  0  0  0  0  0  0  0  0  0  0
   -2.9439   -0.3824   36.5096 C   0  0  0  0  0  0  0  0  0  0  0  0
   -4.9730   -1.9496   33.7728 C   0  0  0  0  0  0  0  0  0  0  0  0
   -5.3770   -3.2364   34.1956 C   0  0  0  0  0  0  0  0  0  0  0  0
   -6.5203   -3.7519   33.5547 C   0  0  0  0  0  0  0  0  0  0  0  0
   -7.1409   -2.9894   32.5244 C   0  0  0  0  0  0  0  0  0  0  0  0
   -6.5475   -1.7559   32.0998 C   0  0  0  0  0  0  0  0  0  0  0  0
   -5.5026   -1.2769   32.7552 C   0  0  0  0  0  0  0  0  0  0  0  0
  2  3  1  0
  9 15  1  0
 15 16  1  0
 16 17  1  0
 17 18  2  3
 17 19  1  0
  7 22  1  0
 16 23  1  0
 18 24  1  0
 23 25  1  0
 25 26  1  0
 26 27  1  0
 27 28  1  0
 28 29  1  0
 28 35  1  0
  1  2  2  0
  2  8  1  0
  8  7  2  0
  7  6  1  0
  5  1  1  0
 35 36  2  0
 36 37  1  0
 37 38  2  0
 38 39  1  0
 39 40  2  0
 40 35  1  0
  5  6  2  0
  6 20  1  0
 20 21  2  0
 21 14  1  0
 14 13  2  0
 13  5  1  0
  3  4  2  0
  4  9  1  0
  9 10  2  0
 10 12  1  0
 12 11  2  0
 11  3  1  0
 29 30  2  0
 30 31  1  0
 31 32  2  0
 32 33  1  0
 33 34  2  0
 34 29  1  0
M  END
$$$$
