No_6673-complexes_sdf/6BKW-FPZ/2024-09-17-14-21-01/
     RDKit          3D

 30 33  0  0  0  0  0  0  0  0999 V2000
   -7.2496    3.8871   27.4508 C   0  0  0  0  0  0  0  0  0  0  0  0
   -7.6161    2.7143   27.1523 C   0  0  0  0  0  0  0  0  0  0  0  0
   -8.6212    2.2239   26.4074 C   0  0  0  0  0  0  0  0  0  0  0  0
   -8.1953    4.9310   27.1292 C   0  0  0  0  0  0  0  0  0  0  0  0
   -7.9909    6.2947   27.4848 C   0  0  0  0  0  0  0  0  0  0  0  0
   -9.5884    3.2301   26.0828 C   0  0  0  0  0  0  0  0  0  0  0  0
   -9.3360    4.5716   26.4379 C   0  0  0  0  0  0  0  0  0  0  0  0
   -8.8774    7.2534   27.0882 N   0  0  0  0  0  0  0  0  0  0  0  0
   -6.5717    1.5622   27.5526 C   0  0  0  0  0  0  0  0  0  0  0  0
   -5.3037    1.9026   28.0974 C   0  0  0  0  0  0  0  0  0  0  0  0
   -4.3964    0.8883   28.4292 C   0  0  0  0  0  0  0  0  0  0  0  0
   -4.7699   -0.4383   28.4437 C   0  0  0  0  0  0  0  0  0  0  0  0
   -6.0677   -0.7605   27.9648 C   0  0  0  0  0  0  0  0  0  0  0  0
   -6.9586    0.2408   27.5176 C   0  0  0  0  0  0  0  0  0  0  0  0
   -6.8972    6.6417   28.0715 O   0  0  0  0  0  0  0  0  0  0  0  0
   -3.8728   -1.4854   28.9168 C   0  0  0  0  0  0  0  0  0  0  0  0
   -2.8157   -1.6304   28.4671 C   0  0  0  0  0  0  0  0  0  0  0  0
   -1.8868   -2.1235   28.4205 C   0  0  0  0  0  0  0  0  0  0  0  0
   -0.9300   -2.3780   28.0390 C   0  0  0  0  0  0  0  0  0  0  0  0
    0.2362   -2.7954   27.5581 C   0  0  0  0  0  0  0  0  0  0  0  0
    1.4151   -2.7843   27.0239 C   0  0  0  0  0  0  0  0  0  0  0  0
    1.5753   -3.7395   26.0479 C   0  0  0  0  0  0  0  0  0  0  0  0
    2.8637   -3.7680   25.3015 C   0  0  0  0  0  0  0  0  0  0  0  0
    3.0274   -4.4839   24.1420 C   0  0  0  0  0  0  0  0  0  0  0  0
    1.8951   -5.1399   23.6486 C   0  0  0  0  0  0  0  0  0  0  0  0
    0.6916   -5.0671   24.2517 C   0  0  0  0  0  0  0  0  0  0  0  0
    0.5392   -4.2764   25.3726 C   0  0  0  0  0  0  0  0  0  0  0  0
   -4.4888   -2.2281   30.0333 C   0  0  0  0  0  0  0  0  0  0  0  0
   -3.6280   -3.1063   30.6011 C   0  0  0  0  0  0  0  0  0  0  0  0
   -1.9411   -3.2664   29.7598 C   0  0  0  0  0  0  0  0  0  0  0  0
  4  5  1  0
  5  8  1  0
  2  9  1  0
  5 15  2  0
 12 16  1  0
 19 20  1  0
 20 21  2  3
 21 22  1  0
 19 18  1  0
  1  2  2  0
  2  3  1  0
  3  6  2  0
  6  7  1  0
  7  4  2  0
  4  1  1  0
 22 23  2  0
 23 24  1  0
 24 25  2  0
 25 26  1  0
 26 27  2  0
 27 22  1  0
  9 10  2  0
 10 11  1  0
 11 12  2  0
 12 13  1  0
 13 14  2  0
 14  9  1  0
 16 17  2  0
 17 18  1  0
 18 30  2  0
 30 29  1  0
 29 28  2  0
 28 16  1  0
M  END
$$$$
