No_6118-complexes_sdf/6BKW-FPZ/2024-09-17-14-21-01/
     RDKit          3D

 12 13  0  0  0  0  0  0  0  0999 V2000
   -7.2496    3.8871   27.4508 C   0  0  0  0  0  0  0  0  0  0  0  0
   -7.9379    4.9063   27.8518 C   0  0  0  0  0  0  0  0  0  0  0  0
   -9.3376    4.8647   27.7795 C   0  0  0  0  0  0  0  0  0  0  0  0
   -7.8544    2.6294   27.0414 C   0  0  0  0  0  0  0  0  0  0  0  0
   -9.2852    2.6570   27.0666 C   0  0  0  0  0  0  0  0  0  0  0  0
  -10.0126    3.7528   27.4890 C   0  0  0  0  0  0  0  0  0  0  0  0
  -10.1279    1.4820   26.7580 C   0  0  0  0  0  0  0  0  0  0  0  0
   -9.8072    0.4134   26.3358 C   0  0  0  0  0  0  0  0  0  0  0  0
   -8.4039    0.1857   26.0965 C   0  0  0  0  0  0  0  0  0  0  0  0
   -7.4574    1.3701   26.4621 C   0  0  0  0  0  0  0  0  0  0  0  0
  -11.4461    3.7057   27.6435 C   0  0  0  0  0  0  0  0  0  0  0  0
  -12.1443    4.7142   27.9723 C   0  0  0  0  0  0  0  0  0  0  0  0
  6 11  1  0
 11 12  2  0
  5  7  2  0
  7  8  1  0
  8  9  2  0
  9 10  1  0
 10  4  2  0
  1  2  2  0
  2  3  1  0
  3  6  2  0
  6  5  1  0
  5  4  1  0
  4  1  1  0
M  END
$$$$
