No_6525-complexes_sdf/6BKW-FPZ/2024-09-17-14-21-01/
     RDKit          3D

 29 32  0  0  0  0  0  0  0  0999 V2000
   -7.9040    3.9820   27.1177 C   0  0  0  0  0  0  0  0  0  0  0  0
   -9.0711    4.3164   27.0630 C   0  0  0  0  0  0  0  0  0  0  0  0
  -10.0395    3.8218   27.1938 C   0  0  0  0  0  0  0  0  0  0  0  0
   -7.6424    2.5858   27.3610 C   0  0  0  0  0  0  0  0  0  0  0  0
   -8.7741    1.7889   27.4566 C   0  0  0  0  0  0  0  0  0  0  0  0
  -10.0155    2.3581   27.4300 C   0  0  0  0  0  0  0  0  0  0  0  0
   -9.1463    5.9504   26.8742 C   0  0  0  0  0  0  0  0  0  0  0  0
   -8.8609    6.7865   28.0116 C   0  0  0  0  0  0  0  0  0  0  0  0
   -9.0375    6.3834   25.5186 C   0  0  0  0  0  0  0  0  0  0  0  0
   -6.3116    1.9853   27.3507 C   0  0  0  0  0  0  0  0  0  0  0  0
   -6.0839    0.6309   27.2729 C   0  0  0  0  0  0  0  0  0  0  0  0
   -7.2791   -0.1290   27.1718 C   0  0  0  0  0  0  0  0  0  0  0  0
   -8.5479    0.3495   27.3748 C   0  0  0  0  0  0  0  0  0  0  0  0
   -4.7820    0.1094   27.3097 C   0  0  0  0  0  0  0  0  0  0  0  0
   -4.2990   -0.3923   26.3194 O   0  0  0  0  0  0  0  0  0  0  0  0
   -4.1655   -0.0217   28.6049 O   0  0  0  0  0  0  0  0  0  0  0  0
   -3.9554   -1.2070   29.2138 C   0  0  0  0  0  0  0  0  0  0  0  0
   -4.9548   -1.5314   30.0564 C   0  0  0  0  0  0  0  0  0  0  0  0
   -4.6235   -2.1020   31.2220 C   0  0  0  0  0  0  0  0  0  0  0  0
   -3.3084   -2.6515   31.4117 C   0  0  0  0  0  0  0  0  0  0  0  0
   -2.3136   -2.2069   30.5451 C   0  0  0  0  0  0  0  0  0  0  0  0
   -2.5799   -1.3101   29.5164 C   0  0  0  0  0  0  0  0  0  0  0  0
   -1.5792   -0.8806   28.5821 C   0  0  0  0  0  0  0  0  0  0  0  0
   -5.7629   -2.6490   32.1484 C   0  0  0  0  0  0  0  0  0  0  0  0
   -6.0816   -3.8952   32.2321 C   0  0  0  0  0  0  0  0  0  0  0  0
   -7.1200   -4.2659   33.0616 C   0  0  0  0  0  0  0  0  0  0  0  0
   -7.8513   -3.3648   33.5473 C   0  0  0  0  0  0  0  0  0  0  0  0
   -7.6878   -1.9774   33.4948 C   0  0  0  0  0  0  0  0  0  0  0  0
   -6.5753   -1.5427   32.7684 C   0  0  0  0  0  0  0  0  0  0  0  0
  2  7  1  0
  7  8  1  0
  7  9  1  0
 11 14  1  0
 14 15  2  0
 14 16  1  0
 16 17  1  0
 22 23  1  0
 19 24  1  0
 17 18  2  0
 18 19  1  0
 19 20  2  0
 20 21  1  0
 21 22  2  0
 22 17  1  0
 24 25  2  0
 25 26  1  0
 26 27  2  0
 27 28  1  0
 28 29  2  0
 29 24  1  0
  1  2  2  0
  2  3  1  0
  3  6  2  0
  6  5  1  0
  4  1  1  0
  4  5  2  0
  5 13  1  0
 13 12  2  0
 12 11  1  0
 11 10  2  0
 10  4  1  0
M  END
$$$$
