No_6150-complexes_sdf/6BKW-FPZ/2024-09-17-14-21-01/
     RDKit          3D

 21 24  0  0  0  0  0  0  0  0999 V2000
   -7.9040    3.9820   27.1177 C   0  0  0  0  0  0  0  0  0  0  0  0
   -8.2057    2.8231   26.8733 C   0  0  0  0  0  0  0  0  0  0  0  0
   -7.0130    4.3706   28.1140 C   0  0  0  0  0  0  0  0  0  0  0  0
   -9.3829    2.4374   26.1668 C   0  0  0  0  0  0  0  0  0  0  0  0
  -10.0975    3.4171   25.5988 C   0  0  0  0  0  0  0  0  0  0  0  0
   -9.7335    4.7745   25.7705 C   0  0  0  0  0  0  0  0  0  0  0  0
   -8.7317    5.1107   26.5933 C   0  0  0  0  0  0  0  0  0  0  0  0
   -8.3983    6.4679   26.8933 C   0  0  0  0  0  0  0  0  0  0  0  0
   -7.3346    6.7850   27.7126 C   0  0  0  0  0  0  0  0  0  0  0  0
   -6.7763    5.7820   28.3880 C   0  0  0  0  0  0  0  0  0  0  0  0
   -7.3014    1.7551   27.4316 C   0  0  0  0  0  0  0  0  0  0  0  0
   -7.8263    0.3953   27.3547 C   0  0  0  0  0  0  0  0  0  0  0  0
   -9.6519    1.1002   25.8668 C   0  0  0  0  0  0  0  0  0  0  0  0
  -10.7228    0.6867   25.0531 C   0  0  0  0  0  0  0  0  0  0  0  0
   -8.8161    0.0911   26.5486 C   0  0  0  0  0  0  0  0  0  0  0  0
  -10.4576    0.7232   23.7098 C   0  0  0  0  0  0  0  0  0  0  0  0
   -9.3295    0.4871   23.1253 C   0  0  0  0  0  0  0  0  0  0  0  0
  -11.5886    1.0425   22.7693 C   0  0  0  0  0  0  0  0  0  0  0  0
  -11.4620    1.0031   21.5315 C   0  0  0  0  0  0  0  0  0  0  0  0
   -9.0391    0.4917   21.7264 C   0  0  0  0  0  0  0  0  0  0  0  0
  -10.1317    0.7587   20.9324 C   0  0  0  0  0  0  0  0  0  0  0  0
 14 16  1  0
 14 13  1  0
 16 17  2  0
 17 20  1  0
 20 21  2  0
 21 19  1  0
 19 18  2  0
 18 16  1  0
  4 13  2  0
 13 15  1  0
 15 12  2  0
 12 11  1  0
 11  2  2  0
  1  3  2  0
  3 10  1  0
 10  9  2  0
  9  8  1  0
  8  7  2  0
  1  2  1  0
  2  4  1  0
  4  5  1  0
  5  6  2  0
  6  7  1  0
  7  1  1  0
M  END
$$$$
