No_6714-complexes_sdf/6BKW-FPZ/2024-09-17-14-21-01/
     RDKit          3D

 24 24  0  0  0  0  0  0  0  0999 V2000
   -7.9040    3.9820   27.1177 C   0  0  0  0  0  0  0  0  0  0  0  0
   -8.2057    2.8231   26.8733 C   0  0  0  0  0  0  0  0  0  0  0  0
   -7.4766    1.7477   27.4593 C   0  0  0  0  0  0  0  0  0  0  0  0
   -8.7468    5.1251   26.6967 C   0  0  0  0  0  0  0  0  0  0  0  0
   -9.7234    4.8589   25.8202 C   0  0  0  0  0  0  0  0  0  0  0  0
   -9.9711    3.5858   25.4266 C   0  0  0  0  0  0  0  0  0  0  0  0
   -9.2266    2.4957   25.9600 C   0  0  0  0  0  0  0  0  0  0  0  0
   -6.8155    0.8730   26.9394 N   0  0  0  0  0  0  0  0  0  0  0  0
   -6.2815   -0.0142   27.4198 C   0  0  1  0  0  0  0  0  0  0  0  0
   -6.7843   -1.2383   27.6607 C   0  0  0  0  0  0  0  0  0  0  0  0
   -6.2664   -2.0907   28.6056 C   0  0  0  0  0  0  0  0  0  0  0  0
   -4.9528   -1.8347   29.1011 C   0  0  0  0  0  0  0  0  0  0  0  0
   -4.3035   -0.6340   28.8139 C   0  0  0  0  0  0  0  0  0  0  0  0
   -4.9791    0.3321   28.0709 C   0  0  2  0  0  0  0  0  0  0  0  0
   -4.3689    1.6350   27.8776 C   0  0  1  0  0  0  0  0  0  0  0  0
   -5.2571    1.1789   28.5839 F   0  0  0  0  0  0  0  0  0  0  0  0
   -5.4117   -0.5358   26.1718 N   0  0  0  0  0  0  0  0  0  0  0  0
   -3.1525    1.8111   28.4410 O   0  0  0  0  0  0  0  0  0  0  0  0
   -3.8715    1.5289   26.6064 F   0  0  0  0  0  0  0  0  0  0  0  0
   -4.2369   -0.3635   27.5325 O   0  0  0  0  0  0  0  0  0  0  0  0
   -5.1570   -1.1226   25.2290 C   0  0  0  0  0  0  0  0  0  0  0  0
   -3.0106   -0.9695   26.9152 C   0  0  0  0  0  0  0  0  0  0  0  0
   -3.2834   -0.3060   29.7985 C   0  0  0  0  0  0  0  0  0  0  0  0
   -8.6717    6.5297   27.0718 C   0  0  0  0  0  0  0  0  0  0  0  0
  2  3  1  0
  3  8  1  0
  9  8  1  6
  9 10  1  0
 10 11  2  3
 11 12  1  0
 12 13  2  3
 13 14  1  0
 14 15  1  0
 14 16  1  6
  9 17  1  0
 15 18  1  1
 15 19  1  0
 14 20  1  0
 17 21  1  0
 20 22  1  0
 13 23  1  0
  4 24  1  0
  1  2  2  0
  2  7  1  0
  7  6  2  0
  6  5  1  0
  5  4  2  0
  4  1  1  0
M  END
$$$$
