No_6026-complexes_sdf/6BKW-FPZ/2024-09-17-14-21-01/
     RDKit          3D

 20 22  0  0  0  0  0  0  0  0999 V2000
   -7.7129    4.2099   27.0854 C   0  0  0  0  0  0  0  0  0  0  0  0
   -8.2112    3.0637   26.9225 C   0  0  0  0  0  0  0  0  0  0  0  0
   -9.4446    2.8304   26.1868 C   0  0  0  0  0  0  0  0  0  0  0  0
   -8.4697    5.3956   26.7238 C   0  0  0  0  0  0  0  0  0  0  0  0
   -9.6172    5.2111   25.9513 C   0  0  0  0  0  0  0  0  0  0  0  0
  -10.0424    3.9782   25.6873 C   0  0  0  0  0  0  0  0  0  0  0  0
   -7.9172    6.7181   27.0124 C   0  0  0  0  0  0  0  0  0  0  0  0
   -8.2161    7.6478   26.4377 F   0  0  0  0  0  0  0  0  0  0  0  0
   -8.2442    6.8573   28.4874 F   0  0  0  0  0  0  0  0  0  0  0  0
   -7.4996    1.8092   27.4090 C   0  0  0  0  0  0  0  0  0  0  0  0
   -6.1990    1.8647   27.7308 N   0  0  0  0  0  0  0  0  0  0  0  0
   -5.5473    0.7399   28.1617 C   0  0  0  0  0  0  0  0  0  0  0  0
   -6.2005   -0.4387   28.1129 C   0  0  0  0  0  0  0  0  0  0  0  0
   -7.9826    0.4999   27.4033 C   0  0  0  0  0  0  0  0  0  0  0  0
   -7.4394   -0.5524   27.8010 C   0  0  0  0  0  0  0  0  0  0  0  0
   -4.1762    0.9553   28.4749 N   0  0  0  0  0  0  0  0  0  0  0  0
   -3.4300   -0.0879   29.0262 C   0  0  0  0  0  0  0  0  0  0  0  0
   -3.9958   -1.2830   29.2233 C   0  0  0  0  0  0  0  0  0  0  0  0
   -5.3333   -1.5299   28.7954 C   0  0  0  0  0  0  0  0  0  0  0  0
   -6.5614    6.6599   27.1254 F   0  0  0  0  0  0  0  0  0  0  0  0
  4  7  1  0
  7  8  1  0
  7  9  1  0
  2 10  1  0
  7 20  1  0
  1  2  2  0
  2  3  1  0
  3  6  2  0
  6  5  1  0
  5  4  2  0
  4  1  1  0
 13 19  2  0
 19 18  1  0
 18 17  2  0
 17 16  1  0
 16 12  2  0
 10 11  2  0
 11 12  1  0
 12 13  1  0
 13 15  1  0
 15 14  2  0
 14 10  1  0
M  END
$$$$
