No_6730-complexes_sdf/6BKW-FPZ/2024-09-17-14-21-01/
     RDKit          3D

 15 16  0  0  0  0  0  0  0  0999 V2000
   -7.9040    3.9820   27.1177 C   0  0  0  0  0  0  0  0  0  0  0  0
   -7.8663    4.8694   27.9238 C   0  0  0  0  0  0  0  0  0  0  0  0
   -9.0501    3.8017   26.2617 C   0  0  0  0  0  0  0  0  0  0  0  0
  -10.0189    4.7608   26.3707 C   0  0  0  0  0  0  0  0  0  0  0  0
   -8.6770    5.9780   27.9222 C   0  0  0  0  0  0  0  0  0  0  0  0
   -9.8040    5.8752   27.0958 C   0  0  0  0  0  0  0  0  0  0  0  0
   -9.1317    2.6414   25.4147 C   0  0  0  0  0  0  0  0  0  0  0  0
  -10.0093    2.7245   24.3328 C   0  0  0  0  0  0  0  0  0  0  0  0
   -8.5042    1.4689   25.7256 C   0  0  0  0  0  0  0  0  0  0  0  0
   -8.5713    0.3909   24.9074 C   0  0  0  0  0  0  0  0  0  0  0  0
  -10.0444    1.6218   23.4604 C   0  0  0  0  0  0  0  0  0  0  0  0
   -9.3137    0.4669   23.7763 C   0  0  0  0  0  0  0  0  0  0  0  0
   -7.7976   -0.8261   25.1850 C   0  0  0  0  0  0  0  0  0  0  0  0
   -7.3662   -1.5159   24.3894 C   0  0  0  0  0  0  0  0  0  0  0  0
   -8.0260   -1.4942   22.9681 C   0  0  0  0  0  0  0  0  0  0  0  0
  3  7  1  0
 10 13  1  0
 13 14  2  3
 14 15  1  0
  7  8  2  0
  8 11  1  0
 11 12  2  0
 12 10  1  0
 10  9  2  0
  9  7  1  0
  1  2  2  0
  2  5  1  0
  5  6  2  0
  6  4  1  0
  4  3  2  0
  3  1  1  0
M  END
$$$$
