No_6455-complexes_sdf/6BKW-FPZ/2024-09-17-14-21-01/
     RDKit          3D

 13 14  0  0  0  0  0  0  0  0999 V2000
   -7.9040    3.9820   27.1177 C   0  0  0  0  0  0  0  0  0  0  0  0
   -9.0711    4.3164   27.0630 C   0  0  0  0  0  0  0  0  0  0  0  0
   -9.5294    5.4517   27.7215 C   0  0  0  0  0  0  0  0  0  0  0  0
   -7.4336    2.7132   26.5681 C   0  0  0  0  0  0  0  0  0  0  0  0
   -8.3353    1.8569   26.0442 C   0  0  0  0  0  0  0  0  0  0  0  0
   -7.9243    0.5609   25.6726 C   0  0  0  0  0  0  0  0  0  0  0  0
  -10.0396    3.4856   26.3639 C   0  0  0  0  0  0  0  0  0  0  0  0
   -9.6183    2.2835   25.9020 C   0  0  0  0  0  0  0  0  0  0  0  0
   -7.0421   -0.0155   26.2487 O   0  0  0  0  0  0  0  0  0  0  0  0
   -8.4890   -0.0184   24.6295 O   0  0  0  0  0  0  0  0  0  0  0  0
   -6.9254    4.6971   27.8805 N   0  0  0  0  0  0  0  0  0  0  0  0
   -7.3461    5.8424   28.4591 C   0  0  0  0  0  0  0  0  0  0  0  0
   -8.5943    6.2400   28.3435 N   0  0  0  0  0  0  0  0  0  0  0  0
  5  6  1  0
  6  9  2  0
  6 10  1  0
  2  7  1  0
  7  8  2  0
  8  5  1  0
  5  4  2  0
  4  1  1  0
  1  2  1  0
  2  3  2  0
  3 13  1  0
 13 12  2  0
 12 11  1  0
 11  1  2  0
M  END
$$$$
