No_6206-complexes_sdf/6BKW-FPZ/2024-09-17-14-21-01/
     RDKit          3D

 29 33  0  0  0  0  0  0  0  0999 V2000
   -7.9040    3.9820   27.1177 C   0  0  0  0  0  0  0  0  0  0  0  0
   -9.0711    4.3164   27.0630 C   0  0  0  0  0  0  0  0  0  0  0  0
   -9.5182    5.5541   27.5777 C   0  0  0  0  0  0  0  0  0  0  0  0
   -6.9424    4.7983   27.8424 C   0  0  0  0  0  0  0  0  0  0  0  0
   -7.3526    5.9739   28.3909 C   0  0  0  0  0  0  0  0  0  0  0  0
   -8.6479    6.3742   28.2169 C   0  0  0  0  0  0  0  0  0  0  0  0
  -10.0793    3.4689   26.3368 C   0  0  0  0  0  0  0  0  0  0  0  0
   -9.6567    2.5965   25.4484 C   0  0  0  0  0  0  0  0  0  0  0  0
  -10.5086    1.8159   24.6228 C   0  0  0  0  0  0  0  0  0  0  0  0
   -9.9735    0.9081   23.7010 C   0  0  0  0  0  0  0  0  0  0  0  0
   -8.6059    0.5428   23.7997 C   0  0  0  0  0  0  0  0  0  0  0  0
   -7.8084    1.1431   24.7366 C   0  0  0  0  0  0  0  0  0  0  0  0
   -8.2236    2.1261   25.5859 C   0  0  0  0  0  0  0  0  0  0  0  0
   -7.3285    2.8380   26.4135 C   0  0  0  0  0  0  0  0  0  0  0  0
  -11.4745    3.8972   26.3177 C   0  0  0  0  0  0  0  0  0  0  0  0
  -12.1379    3.8558   27.5586 C   0  0  0  0  0  0  0  0  0  0  0  0
  -12.8852    2.8392   27.8801 C   0  0  0  0  0  0  0  0  0  0  0  0
  -13.9561    2.7342   28.0049 C   0  0  0  0  0  0  0  0  0  0  0  0
  -14.7684    3.7926   27.9893 C   0  0  0  0  0  0  0  0  0  0  0  0
  -14.1886    5.0740   27.9599 C   0  0  0  0  0  0  0  0  0  0  0  0
  -12.8133    5.1123   27.9856 C   0  0  0  0  0  0  0  0  0  0  0  0
  -12.0097    4.1993   25.2658 O   0  0  0  0  0  0  0  0  0  0  0  0
  -14.8797    1.1836   28.3437 Cl  0  0  0  0  0  0  0  0  0  0  0  0
  -10.8425    0.2785   22.7400 C   0  0  0  0  0  0  0  0  0  0  0  0
  -11.5361    1.0696   21.9472 C   0  0  0  0  0  0  0  0  0  0  0  0
  -12.3458    0.5912   20.8951 C   0  0  0  0  0  0  0  0  0  0  0  0
  -12.3222   -0.8332   20.7216 C   0  0  0  0  0  0  0  0  0  0  0  0
  -11.5451   -1.6273   21.4925 C   0  0  0  0  0  0  0  0  0  0  0  0
  -10.6437   -1.1047   22.5687 C   0  0  0  0  0  0  0  0  0  0  0  0
  7 15  1  0
 15 16  1  0
 15 22  2  0
 18 23  1  0
 10 24  1  0
 24 25  2  0
 25 26  1  0
 26 27  2  0
 27 28  1  0
 28 29  2  0
 29 24  1  0
  2  3  2  0
  3  6  1  0
  6  5  2  0
  5  4  1  0
  4  1  2  0
  1  2  1  0
  2  7  1  0
  7  8  2  0
 13 14  2  0
 14  1  1  0
  8  9  1  0
  9 10  2  0
 10 11  1  0
 11 12  2  0
 12 13  1  0
 13  8  1  0
 16 17  2  0
 17 18  1  0
 18 19  2  0
 19 20  1  0
 20 21  2  0
 21 16  1  0
M  END
$$$$
