No_6409-complexes_sdf/6BKW-FPZ/2024-09-17-14-21-01/
     RDKit          3D

 21 23  0  0  0  0  0  0  0  0999 V2000
   -7.7129    4.2099   27.0854 C   0  0  0  0  0  0  0  0  0  0  0  0
   -8.2112    3.0637   26.9225 C   0  0  0  0  0  0  0  0  0  0  0  0
   -9.5629    2.7997   27.0678 C   0  0  0  0  0  0  0  0  0  0  0  0
   -8.5911    5.3704   27.2036 C   0  0  0  0  0  0  0  0  0  0  0  0
   -9.9544    5.1489   27.1401 C   0  0  0  0  0  0  0  0  0  0  0  0
  -10.4577    3.9280   27.0818 C   0  0  0  0  0  0  0  0  0  0  0  0
   -8.0445    6.6298   27.2942 N   0  0  0  0  0  0  0  0  0  0  0  0
  -10.0636    1.4089   26.9501 C   0  0  2  0  0  0  0  0  0  0  0  0
  -11.3028    1.0120   27.8538 Cl  0  0  0  0  0  0  0  0  0  0  0  0
   -8.8787    0.5551   27.2764 C   0  0  0  0  0  0  0  0  0  0  0  0
   -9.0420   -0.7876   27.2521 C   0  0  0  0  0  0  0  0  0  0  0  0
   -7.9267   -1.6762   27.3018 C   0  0  0  0  0  0  0  0  0  0  0  0
   -6.6532   -1.0858   27.2945 C   0  0  0  0  0  0  0  0  0  0  0  0
   -6.4915    0.3006   27.2376 C   0  0  0  0  0  0  0  0  0  0  0  0
   -7.5376    1.1178   27.1965 C   0  0  0  0  0  0  0  0  0  0  0  0
   -7.3503    2.3902   27.0263 N   0  0  0  0  0  0  0  0  0  0  0  0
  -10.4161    1.2870   25.5209 C   0  0  0  0  0  0  0  0  0  0  0  0
   -9.8310    1.6433   24.4686 C   0  0  0  0  0  0  0  0  0  0  0  0
   -9.1245    2.5518   24.3478 C   0  0  0  0  0  0  0  0  0  0  0  0
  -11.7333    0.5692   25.4156 C   0  0  0  0  0  0  0  0  0  0  0  0
   -9.7988    0.6036   23.3944 C   0  0  0  0  0  0  0  0  0  0  0  0
  4  7  1  0
  3  8  1  0
  8  9  1  1
  8 10  1  0
  2 16  1  0
 15 16  1  0
  8 17  1  0
 17 18  1  0
 18 19  1  0
 17 20  1  0
 18 21  1  0
  1  2  2  0
  2  3  1  0
  3  6  2  0
  6  5  1  0
  5  4  2  0
  4  1  1  0
 10 11  2  0
 11 12  1  0
 12 13  2  0
 13 14  1  0
 14 15  2  0
 15 10  1  0
M  END
$$$$
