No_6159-complexes_sdf/6BKW-FPZ/2024-09-17-14-21-01/
     RDKit          3D

 30 33  0  0  0  0  0  0  0  0999 V2000
   -7.9040    3.9820   27.1177 C   0  0  0  0  0  0  0  0  0  0  0  0
   -8.2057    2.8231   26.8733 C   0  0  0  0  0  0  0  0  0  0  0  0
   -8.7695    5.0740   26.7916 C   0  0  0  0  0  0  0  0  0  0  0  0
   -8.4337    6.4678   27.0913 C   0  0  0  0  0  0  0  0  0  0  0  0
   -9.3742    2.4311   26.2346 C   0  0  0  0  0  0  0  0  0  0  0  0
  -10.2395    3.4267   25.8887 C   0  0  0  0  0  0  0  0  0  0  0  0
   -9.9567    4.7548   26.1374 C   0  0  0  0  0  0  0  0  0  0  0  0
   -7.9839    7.5474   27.0128 N   0  0  0  0  0  0  0  0  0  0  0  0
   -7.2381    1.6824   27.2965 C   0  0  0  0  0  0  0  0  0  0  0  0
   -6.0854    2.0139   27.8533 N   0  0  0  0  0  0  0  0  0  0  0  0
   -5.2302    0.9428   28.1913 C   0  0  0  0  0  0  0  0  0  0  0  0
   -5.6331   -0.3082   28.0845 C   0  0  0  0  0  0  0  0  0  0  0  0
   -7.4630    0.3084   27.2650 C   0  0  0  0  0  0  0  0  0  0  0  0
   -6.7897   -0.6338   27.6652 C   0  0  0  0  0  0  0  0  0  0  0  0
   -3.9772    1.3922   28.7289 N   0  0  0  0  0  0  0  0  0  0  0  0
  -11.4463    3.1155   25.1043 C   0  0  0  0  0  0  0  0  0  0  0  0
  -12.5738    2.8882   25.6593 C   0  0  0  0  0  0  0  0  0  0  0  0
  -12.7059    2.7107   26.9356 C   0  0  0  0  0  0  0  0  0  0  0  0
  -11.9244    2.5691   27.7664 C   0  0  0  0  0  0  0  0  0  0  0  0
  -12.2513    2.3338   29.3096 C   0  0  0  0  0  0  0  0  0  0  0  0
  -13.5227    2.5487   29.7275 C   0  0  0  0  0  0  0  0  0  0  0  0
  -14.4707    2.8960   28.7469 C   0  0  0  0  0  0  0  0  0  0  0  0
  -14.1865    3.0338   27.4545 C   0  0  0  0  0  0  0  0  0  0  0  0
  -11.2490    3.0966   23.6514 C   0  0  0  0  0  0  0  0  0  0  0  0
  -10.1673    3.2384   23.0596 C   0  0  0  0  0  0  0  0  0  0  0  0
   -9.9630    3.2633   21.6600 C   0  0  0  0  0  0  0  0  0  0  0  0
  -12.3517    2.9457   22.8427 C   0  0  0  0  0  0  0  0  0  0  0  0
  -12.3266    3.0074   21.4590 C   0  0  0  0  0  0  0  0  0  0  0  0
  -11.0375    3.1930   20.8693 C   0  0  0  0  0  0  0  0  0  0  0  0
  -13.5824    2.3668   24.9111 O   0  0  0  0  0  0  0  0  0  0  0  0
  3  4  1  0
  4  8  3  0
  2  9  1  0
 11 15  1  0
  6 16  1  0
 16 17  1  0
 17 18  1  0
 16 24  1  0
 17 30  2  0
 18 19  2  0
 19 20  1  0
 20 21  2  0
 21 22  1  0
 22 23  2  0
 23 18  1  0
 24 25  2  0
 25 26  1  0
 26 29  2  0
 29 28  1  0
 28 27  2  0
 27 24  1  0
  1  2  2  0
  2  5  1  0
  5  6  2  0
  6  7  1  0
  7  3  2  0
  3  1  1  0
  9 10  2  0
 10 11  1  0
 11 12  2  0
 12 14  1  0
 14 13  2  0
 13  9  1  0
M  END
$$$$
