No_6442-complexes_sdf/6BKW-FPZ/2024-09-17-14-21-01/
     RDKit          3D

 15 16  0  0  0  0  0  0  0  0999 V2000
   -7.9040    3.9820   27.1177 C   0  0  0  0  0  0  0  0  0  0  0  0
   -8.2057    2.8231   26.8733 C   0  0  0  0  0  0  0  0  0  0  0  0
   -9.2962    2.4021   26.1155 C   0  0  0  0  0  0  0  0  0  0  0  0
   -8.7358    5.0662   26.5917 C   0  0  0  0  0  0  0  0  0  0  0  0
   -8.4603    6.4492   26.8781 C   0  0  0  0  0  0  0  0  0  0  0  0
  -10.1146    3.3815   25.6105 C   0  0  0  0  0  0  0  0  0  0  0  0
   -9.8194    4.7235   25.8263 C   0  0  0  0  0  0  0  0  0  0  0  0
   -8.0989    7.5398   27.0611 N   0  0  0  0  0  0  0  0  0  0  0  0
   -9.5383    0.9649   25.9178 C   0  0  0  0  0  0  0  0  0  0  0  0
   -8.6754    0.1331   26.0339 C   0  0  0  0  0  0  0  0  0  0  0  0
   -8.9188   -1.2433   25.8752 C   0  0  0  0  0  0  0  0  0  0  0  0
  -10.2260   -1.6023   25.5542 C   0  0  0  0  0  0  0  0  0  0  0  0
  -10.8268    0.4074   25.6140 C   0  0  0  0  0  0  0  0  0  0  0  0
  -11.8787    1.5264   25.4840 C   0  0  0  0  0  0  0  0  0  0  0  0
  -11.1580   -0.7880   25.4392 C   0  0  0  0  0  0  0  0  0  0  0  0
  4  5  1  0
  5  8  3  0
  3  9  1  0
 13 14  1  0
  1  2  2  0
  2  3  1  0
  3  6  2  0
  6  7  1  0
  7  4  2  0
  4  1  1  0
  9 10  2  0
 10 11  1  0
 11 12  2  0
 12 15  1  0
 15 13  2  0
 13  9  1  0
M  END
$$$$
