No_6364-complexes_sdf/6BKW-FPZ/2024-09-17-14-21-01/
     RDKit          3D

 14 15  0  0  0  0  0  0  0  0999 V2000
   -7.7129    4.2099   27.0854 C   0  0  0  0  0  0  0  0  0  0  0  0
   -8.9133    4.4736   27.0998 C   0  0  0  0  0  0  0  0  0  0  0  0
   -9.4643    5.5426   27.7628 C   0  0  0  0  0  0  0  0  0  0  0  0
   -6.8373    4.9942   27.9785 C   0  0  0  0  0  0  0  0  0  0  0  0
   -7.3932    6.0303   28.6784 C   0  0  0  0  0  0  0  0  0  0  0  0
   -8.7122    6.3429   28.5485 C   0  0  0  0  0  0  0  0  0  0  0  0
   -9.7990    3.6123   26.2052 C   0  0  0  0  0  0  0  0  0  0  0  0
  -10.6863    2.8677   26.5569 N   0  0  0  0  0  0  0  0  0  0  0  0
  -10.9838    2.5473   27.6578 C   0  0  0  0  0  0  0  0  0  0  0  0
  -11.9384    1.4489   28.0663 C   0  0  0  0  0  0  0  0  0  0  0  0
   -9.4723    3.8439   24.9360 O   0  0  0  0  0  0  0  0  0  0  0  0
  -12.4309    0.8454   27.0673 C   0  0  0  0  0  0  0  0  0  0  0  0
  -12.1502    1.0999   25.7664 C   0  0  0  0  0  0  0  0  0  0  0  0
  -11.2593    2.0970   25.4993 C   0  0  0  0  0  0  0  0  0  0  0  0
  2  7  1  0
  7  8  1  0
  8  9  1  0
  7 11  2  0
 10 12  1  0
  8 14  1  0
 13 14  1  0
  9 10  1  0
 12 13  1  0
  1  2  2  0
  2  3  1  0
  3  6  2  0
  6  5  1  0
  5  4  2  0
  4  1  1  0
M  END
$$$$
