No_6078-complexes_sdf/6BKW-FPZ/2024-09-17-14-21-01/
     RDKit          3D

 25 27  0  0  0  0  0  0  0  0999 V2000
   -7.2496    3.8871   27.4508 C   0  0  0  0  0  0  0  0  0  0  0  0
   -8.5096    4.0291   27.2770 C   0  0  0  0  0  0  0  0  0  0  0  0
   -9.3502    2.8685   26.8763 C   0  0  0  0  0  0  0  0  0  0  0  0
   -6.6288    2.5513   27.4938 C   0  0  0  0  0  0  0  0  0  0  0  0
   -7.4365    1.4714   27.2032 C   0  0  0  0  0  0  0  0  0  0  0  0
   -8.7772    1.6579   26.9338 C   0  0  0  0  0  0  0  0  0  0  0  0
   -9.1078    5.3660   27.2249 C   0  0  0  0  0  0  0  0  0  0  0  0
   -8.7000    6.1682   26.4702 F   0  0  0  0  0  0  0  0  0  0  0  0
   -9.0805    5.9237   28.5737 F   0  0  0  0  0  0  0  0  0  0  0  0
  -10.5301    5.3015   27.1710 F   0  0  0  0  0  0  0  0  0  0  0  0
   -6.7918    0.1923   27.1571 C   0  0  0  0  0  0  0  0  0  0  0  0
   -7.2973   -0.8650   26.7415 C   0  0  0  0  0  0  0  0  0  0  0  0
   -6.6419   -2.1403   26.7247 C   0  0  0  0  0  0  0  0  0  0  0  0
   -5.3925    0.0954   27.6248 C   0  0  0  0  0  0  0  0  0  0  0  0
   -4.9297   -0.8432   27.7622 C   0  0  0  0  0  0  0  0  0  0  0  0
   -3.4701   -0.8825   28.4022 C   0  0  0  0  0  0  0  0  0  0  0  0
   -5.3751   -2.1090   27.3361 C   0  0  0  0  0  0  0  0  0  0  0  0
   -3.1428   -0.9927   29.7119 C   0  0  0  0  0  0  0  0  0  0  0  0
   -2.1226   -1.6211   30.2419 C   0  0  0  0  0  0  0  0  0  0  0  0
   -1.0018   -1.7692   29.3905 C   0  0  0  0  0  0  0  0  0  0  0  0
   -2.2839   -0.9856   27.4745 C   0  0  0  0  0  0  0  0  0  0  0  0
   -1.1150   -1.5350   28.0019 C   0  0  0  0  0  0  0  0  0  0  0  0
   -4.3268   -0.5946   30.6903 C   0  0  0  0  0  0  0  0  0  0  0  0
   -4.0940   -0.5696   32.0227 C   0  0  0  0  0  0  0  0  0  0  0  0
   -2.7760   -0.9974   32.5192 C   0  0  0  0  0  0  0  0  0  0  0  0
  2  7  1  0
  7  8  1  0
  7  9  1  0
  7 10  1  0
  5 11  1  0
 15 16  1  0
 18 23  1  0
 23 24  2  3
 24 25  1  0
 11 12  2  0
 12 13  1  0
 13 17  2  0
 17 15  1  0
 15 14  2  0
 14 11  1  0
  1  2  2  0
  2  3  1  0
  3  6  2  0
  6  5  1  0
  5  4  2  0
  4  1  1  0
 16 18  2  0
 18 19  1  0
 19 20  2  0
 20 22  1  0
 22 21  2  0
 21 16  1  0
M  END
$$$$
