No_674-complexes_sdf/6BKW-FPZ/2024-09-17-14-21-01/
     RDKit          3D

 25 27  0  0  0  0  0  0  0  0999 V2000
   -7.9040    3.9820   27.1177 C   0  0  0  0  0  0  0  0  0  0  0  0
   -8.2057    2.8231   26.8733 C   0  0  0  0  0  0  0  0  0  0  0  0
   -8.7695    5.0740   26.7916 C   0  0  0  0  0  0  0  0  0  0  0  0
   -8.4337    6.4678   27.0913 C   0  0  0  0  0  0  0  0  0  0  0  0
   -9.3742    2.4311   26.2346 C   0  0  0  0  0  0  0  0  0  0  0  0
  -10.2395    3.4267   25.8887 C   0  0  0  0  0  0  0  0  0  0  0  0
   -9.9567    4.7548   26.1374 C   0  0  0  0  0  0  0  0  0  0  0  0
   -8.5487    6.7970   28.2303 F   0  0  0  0  0  0  0  0  0  0  0  0
   -9.2267    7.3313   26.2905 F   0  0  0  0  0  0  0  0  0  0  0  0
   -7.1151    6.7578   26.9108 F   0  0  0  0  0  0  0  0  0  0  0  0
   -7.2407    1.6919   27.3102 C   0  0  0  0  0  0  0  0  0  0  0  0
   -5.9637    1.9759   27.8087 C   0  0  0  0  0  0  0  0  0  0  0  0
   -5.1025    0.9195   28.1974 C   0  0  0  0  0  0  0  0  0  0  0  0
   -5.5443   -0.3582   28.1378 C   0  0  0  0  0  0  0  0  0  0  0  0
   -7.7028    0.3372   27.2846 C   0  0  0  0  0  0  0  0  0  0  0  0
   -6.8705   -0.6214   27.7320 C   0  0  0  0  0  0  0  0  0  0  0  0
   -4.8342   -1.5111   28.6707 C   0  0  0  0  0  0  0  0  0  0  0  0
   -3.6005   -1.1702   29.2591 C   0  0  0  0  0  0  0  0  0  0  0  0
   -2.7313   -2.1973   29.7715 C   0  0  0  0  0  0  0  0  0  0  0  0
   -3.2837   -3.4132   29.8243 C   0  0  0  0  0  0  0  0  0  0  0  0
   -5.1422   -2.7857   28.8488 C   0  0  0  0  0  0  0  0  0  0  0  0
   -4.4447   -3.7362   29.3607 C   0  0  0  0  0  0  0  0  0  0  0  0
  -11.4616    3.1687   25.1216 C   0  0  0  0  0  0  0  0  0  0  0  0
  -12.5655    2.7254   25.7884 C   0  0  0  0  0  0  0  0  0  0  0  0
  -13.7723    2.4718   25.0901 C   0  0  0  0  0  0  0  0  0  0  0  0
  3  4  1  0
  4  8  1  0
  4  9  1  0
  4 10  1  0
  2 11  1  0
 14 17  1  0
  6 23  1  0
 23 24  2  3
 24 25  1  0
 17 18  2  0
 18 19  1  0
 19 20  2  0
 20 22  1  0
 22 21  2  0
 21 17  1  0
 11 12  2  0
 12 13  1  0
 13 14  2  0
 14 16  1  0
 16 15  2  0
 15 11  1  0
  1  2  2  0
  2  5  1  0
  5  6  2  0
  6  7  1  0
  7  3  2  0
  3  1  1  0
M  END
$$$$
