No_686-complexes_sdf/6BKW-FPZ/2024-09-17-14-21-01/
     RDKit          3D

 17 19  0  0  0  0  0  0  0  0999 V2000
   -7.2496    3.8871   27.4508 C   0  0  0  0  0  0  0  0  0  0  0  0
   -8.5096    4.0291   27.2770 C   0  0  0  0  0  0  0  0  0  0  0  0
   -9.2669    5.1645   27.5845 C   0  0  0  0  0  0  0  0  0  0  0  0
   -8.4566    6.3212   27.8001 C   0  0  0  0  0  0  0  0  0  0  0  0
   -6.4921    5.0197   27.7961 C   0  0  0  0  0  0  0  0  0  0  0  0
   -7.1702    6.2351   27.9936 C   0  0  0  0  0  0  0  0  0  0  0  0
   -9.1763    2.6261   27.0063 C   0  0  0  0  0  0  0  0  0  0  0  0
   -8.5656    1.5915   26.7546 C   0  0  0  0  0  0  0  0  0  0  0  0
   -9.2558    0.4260   26.4259 C   0  0  0  0  0  0  0  0  0  0  0  0
  -10.6389    0.4559   26.3397 C   0  0  0  0  0  0  0  0  0  0  0  0
  -10.6577    2.3772   26.8653 C   0  0  0  0  0  0  0  0  0  0  0  0
  -11.4284    3.7227   27.2766 C   0  0  0  0  0  0  0  0  0  0  0  0
  -11.3126    1.3322   26.6351 C   0  0  0  0  0  0  0  0  0  0  0  0
  -10.6960    4.9524   27.4625 C   0  0  0  0  0  0  0  0  0  0  0  0
  -12.8632    3.7501   27.3561 C   0  0  0  0  0  0  0  0  0  0  0  0
  -13.4552    3.5655   28.5989 C   0  0  0  0  0  0  0  0  0  0  0  0
  -14.8434    3.5923   28.8081 C   0  0  0  0  0  0  0  0  0  0  0  0
 12 15  1  0
 15 16  2  3
 16 17  1  0
  3 14  1  0
 14 12  2  0
 12 11  1  0
  7  2  1  0
  1  2  2  0
  2  3  1  0
  3  4  2  0
  4  6  1  0
  6  5  2  0
  5  1  1  0
  7  8  2  0
  8  9  1  0
  9 10  2  0
 10 13  1  0
 13 11  2  0
 11  7  1  0
M  END
$$$$
