No_6008-complexes_sdf/6BKW-FPZ/2024-09-17-14-21-01/
     RDKit          3D

 11 11  0  0  0  0  0  0  0  0999 V2000
   -7.2496    3.8871   27.4508 C   0  0  0  0  0  0  0  0  0  0  0  0
   -8.5096    4.0291   27.2770 C   0  0  0  0  0  0  0  0  0  0  0  0
   -9.3451    2.8786   26.9046 C   0  0  0  0  0  0  0  0  0  0  0  0
   -6.6893    2.5856   27.4759 N   0  0  0  0  0  0  0  0  0  0  0  0
   -7.4012    1.5331   27.2231 C   0  0  0  0  0  0  0  0  0  0  0  0
   -6.8008    0.2713   27.2990 C   0  0  0  0  0  0  0  0  0  0  0  0
   -8.7371    1.6578   26.9786 C   0  0  0  0  0  0  0  0  0  0  0  0
   -9.0961    5.4089   27.2233 C   0  0  0  0  0  0  0  0  0  0  0  0
   -8.2239    6.5117   27.1840 C   0  0  0  0  0  0  0  0  0  0  0  0
   -7.3394   -0.8711   27.2161 C   0  0  0  0  0  0  0  0  0  0  0  0
   -6.6975   -2.0523   27.3325 C   0  0  0  0  0  0  0  0  0  0  0  0
  5  6  1  0
  2  8  1  0
  8  9  1  0
  6 10  2  3
 10 11  1  0
  1  2  2  0
  2  3  1  0
  3  7  2  0
  7  5  1  0
  5  4  2  0
  4  1  1  0
M  END
$$$$
