No_6866-complexes_sdf/6BKW-FPZ/2024-09-17-14-21-01/
     RDKit          3D

 19 21  0  0  0  0  0  0  0  0999 V2000
   -7.9040    3.9820   27.1177 C   0  0  0  0  0  0  0  0  0  0  0  0
   -7.8663    4.8694   27.9238 C   0  0  0  0  0  0  0  0  0  0  0  0
   -7.4547    2.7080   27.4594 C   0  0  0  0  0  0  0  0  0  0  0  0
   -7.9337    1.5946   26.8372 C   0  0  0  0  0  0  0  0  0  0  0  0
   -7.4947    0.3059   27.1189 C   0  0  0  0  0  0  0  0  0  0  0  0
   -6.3125    0.1774   27.7925 C   0  0  0  0  0  0  0  0  0  0  0  0
   -5.5852    1.3263   28.2170 C   0  0  0  0  0  0  0  0  0  0  0  0
   -6.0949    2.5650   27.9722 C   0  0  0  0  0  0  0  0  0  0  0  0
   -8.4372    6.2570   27.7271 C   0  0  0  0  0  0  0  0  0  0  0  0
   -8.7626    4.2068   25.9844 C   0  0  0  0  0  0  0  0  0  0  0  0
   -9.4078    5.4159   25.7330 C   0  0  0  0  0  0  0  0  0  0  0  0
   -9.1777    6.4727   26.6319 C   0  0  0  0  0  0  0  0  0  0  0  0
   -4.2813    1.1618   28.9132 C   0  0  0  0  0  0  0  0  0  0  0  0
   -3.9992   -0.0054   29.5908 C   0  0  0  0  0  0  0  0  0  0  0  0
   -4.5841   -1.0718   29.5742 C   0  0  0  0  0  0  0  0  0  0  0  0
   -5.8314   -1.0731   28.6313 C   0  0  0  0  0  0  0  0  0  0  0  0
   -8.2059   -0.8596   26.7481 C   0  0  0  0  0  0  0  0  0  0  0  0
   -8.9678   -1.3681   27.1557 C   0  0  0  0  0  0  0  0  0  0  0  0
   -9.7125   -2.5710   26.6841 C   0  0  0  0  0  0  0  0  0  0  0  0
  5 17  1  0
 17 18  2  3
 18 19  1  0
  3  1  1  0
  3  4  2  0
  4  5  1  0
  5  6  2  0
  7  8  2  0
  8  3  1  0
  1  2  2  0
  2  9  1  0
  9 12  2  0
 12 11  1  0
 11 10  2  0
 10  1  1  0
  6  7  1  0
  7 13  1  0
 13 14  2  0
 14 15  1  0
 15 16  2  0
 16  6  1  0
M  END
$$$$
