No_6389-complexes_sdf/6BKW-FPZ/2024-09-17-14-21-01/
     RDKit          3D

 22 26  0  0  0  0  0  0  0  0999 V2000
   -7.7129    4.2099   27.0854 C   0  0  0  0  0  0  0  0  0  0  0  0
   -8.2112    3.0637   26.9225 C   0  0  1  0  0  0  0  0  0  0  0  0
   -7.0021    4.5281   28.2396 C   0  0  0  0  0  0  0  0  0  0  0  0
   -7.5497    1.9016   27.4549 C   0  0  0  0  0  0  0  0  0  0  0  0
   -8.0831    0.6050   27.2852 C   0  0  0  0  0  0  0  0  0  0  0  0
   -9.3847    0.5379   26.8015 C   0  0  0  0  0  0  0  0  0  0  0  0
  -10.0898    1.6195   26.3689 C   0  0  0  0  0  0  0  0  0  0  0  0
   -9.4935    2.8855   26.3990 C   0  0  0  0  0  0  0  0  0  0  0  0
   -6.5987    5.4207   28.5750 C   0  0  0  0  0  0  0  0  0  0  0  0
   -7.0686    6.7614   27.9988 C   0  0  0  0  0  0  0  0  0  0  0  0
   -8.3707    5.3690   26.5684 C   0  0  0  0  0  0  0  0  0  0  0  0
   -7.9945    6.6469   26.9812 C   0  0  0  0  0  0  0  0  0  0  0  0
   -8.5705    7.8645   26.4139 C   0  0  0  0  0  0  0  0  0  0  0  0
   -7.5451   -0.6317   27.7597 C   0  0  0  0  0  0  0  0  0  0  0  0
   -8.2040   -1.7279   28.1417 C   0  0  0  0  0  0  0  0  0  0  0  0
   -9.6160   -1.6981   27.7606 C   0  0  0  0  0  0  0  0  0  0  0  0
  -10.1712   -0.6261   27.1414 C   0  0  0  0  0  0  0  0  0  0  0  0
  -11.4045    1.5051   25.7826 C   0  0  0  0  0  0  0  0  0  0  0  0
  -11.9819    2.5670   25.1581 C   0  0  0  0  0  0  0  0  0  0  0  0
  -11.2486    3.8005   25.1040 C   0  0  0  0  0  0  0  0  0  0  0  0
  -10.0843    3.9419   25.7071 C   0  0  0  0  0  0  0  0  0  0  0  0
   -9.5291    5.2827   25.8779 C   0  0  0  0  0  0  0  0  0  0  0  0
  1  2  1  0
  2  4  1  1
  4  5  1  0
  6  7  1  0
  2  8  1  0
 12 13  1  0
 11 22  1  0
 21 22  1  0
  7  8  1  0
  8 21  2  0
 21 20  1  0
 20 19  2  0
 19 18  1  0
 18  7  2  0
  5  6  2  0
  6 17  1  0
 17 16  2  0
 16 15  1  0
 15 14  2  0
 14  5  1  0
  1  3  2  0
  3  9  1  0
  9 10  2  0
 10 12  1  0
 12 11  2  0
 11  1  1  0
M  END
$$$$
