No_6048-complexes_sdf/6BKW-FPZ/2024-09-17-14-21-01/
     RDKit          3D

 18 20  0  0  0  0  0  0  0  0999 V2000
   -7.9040    3.9820   27.1177 C   0  0  0  0  0  0  0  0  0  0  0  0
   -9.0711    4.3164   27.0630 C   0  0  0  0  0  0  0  0  0  0  0  0
   -9.5294    5.4517   27.7215 C   0  0  0  0  0  0  0  0  0  0  0  0
   -6.9328    4.7309   27.8881 C   0  0  0  0  0  0  0  0  0  0  0  0
   -7.3666    5.8455   28.5488 C   0  0  0  0  0  0  0  0  0  0  0  0
   -8.6669    6.2428   28.4199 C   0  0  0  0  0  0  0  0  0  0  0  0
  -10.1698    3.6149   26.3541 C   0  0  0  0  0  0  0  0  0  0  0  0
  -10.2385    3.8109   25.0074 C   0  0  0  0  0  0  0  0  0  0  0  0
  -11.0418    3.1433   24.1122 C   0  0  0  0  0  0  0  0  0  0  0  0
  -11.9672    2.2794   24.6808 C   0  0  0  0  0  0  0  0  0  0  0  0
  -11.0277    2.6699   26.8356 C   0  0  0  0  0  0  0  0  0  0  0  0
  -11.9552    1.9894   26.0706 C   0  0  0  0  0  0  0  0  0  0  0  0
  -11.0816    3.5012   22.7176 C   0  0  0  0  0  0  0  0  0  0  0  0
  -11.0042    4.8087   22.3412 C   0  0  0  0  0  0  0  0  0  0  0  0
  -11.1191    2.5052   21.7409 C   0  0  0  0  0  0  0  0  0  0  0  0
  -11.1965    2.7320   20.4240 C   0  0  0  0  0  0  0  0  0  0  0  0
  -11.0040    5.1370   20.9270 C   0  0  0  0  0  0  0  0  0  0  0  0
  -11.0577    4.1170   19.9999 C   0  0  0  0  0  0  0  0  0  0  0  0
  2  7  1  0
  9 13  1  0
  7  8  2  0
  8  9  1  0
  9 10  2  0
 10 12  1  0
 12 11  2  0
 11  7  1  0
  1  2  2  0
  2  3  1  0
  3  6  2  0
  6  5  1  0
  5  4  2  0
  4  1  1  0
 13 14  2  0
 14 17  1  0
 17 18  2  0
 18 16  1  0
 16 15  2  0
 15 13  1  0
M  END
$$$$
