No_617-complexes_sdf/6BKW-FPZ/2024-09-17-14-21-01/
     RDKit          3D

 19 21  0  0  0  0  0  0  0  0999 V2000
   -7.7129    4.2099   27.0854 C   0  0  0  0  0  0  0  0  0  0  0  0
   -8.2112    3.0637   26.9225 C   0  0  0  0  0  0  0  0  0  0  0  0
   -8.5108    5.3904   26.9436 C   0  0  0  0  0  0  0  0  0  0  0  0
   -9.7256    5.1955   26.3518 C   0  0  0  0  0  0  0  0  0  0  0  0
   -9.4995    2.8258   26.4878 C   0  0  0  0  0  0  0  0  0  0  0  0
  -10.2542    3.9691   26.2055 C   0  0  0  0  0  0  0  0  0  0  0  0
   -7.9456    6.5695   27.1656 F   0  0  0  0  0  0  0  0  0  0  0  0
   -7.3632    1.8215   27.2517 C   0  0  0  0  0  0  0  0  0  0  0  0
   -7.7961    0.5274   27.0926 C   0  0  0  0  0  0  0  0  0  0  0  0
   -6.9365   -0.4780   27.3491 C   0  0  0  0  0  0  0  0  0  0  0  0
   -5.6514   -0.2280   27.8572 C   0  0  0  0  0  0  0  0  0  0  0  0
   -5.2254    1.0861   28.0539 C   0  0  0  0  0  0  0  0  0  0  0  0
   -5.9972    2.0906   27.7441 C   0  0  0  0  0  0  0  0  0  0  0  0
   -4.7524   -1.3699   28.2242 C   0  0  0  0  0  0  0  0  0  0  0  0
   -3.6553   -1.3383   28.0066 C   0  0  0  0  0  0  0  0  0  0  0  0
   -5.3886   -2.4458   28.9647 C   0  0  0  0  0  0  0  0  0  0  0  0
   -5.0593   -2.8871   29.8073 C   0  0  0  0  0  0  0  0  0  0  0  0
   -2.7260   -2.2646   28.8220 C   0  0  0  0  0  0  0  0  0  0  0  0
   -3.4719   -3.0928   29.7518 C   0  0  0  0  0  0  0  0  0  0  0  0
  3  7  1  0
  2  8  1  0
 11 14  1  0
 14 15  2  0
 15 18  1  0
 18 19  2  0
 19 17  1  0
 17 16  2  0
 16 14  1  0
  8  9  2  0
  9 10  1  0
 10 11  2  0
 11 12  1  0
 12 13  2  0
 13  8  1  0
  1  2  2  0
  2  5  1  0
  5  6  2  0
  6  4  1  0
  4  3  2  0
  3  1  1  0
M  END
$$$$
