No_6131-complexes_sdf/6BKW-FPZ/2024-09-17-14-21-01/
     RDKit          3D

 20 23  0  0  0  0  0  0  0  0999 V2000
   -7.7129    4.2099   27.0854 C   0  0  2  0  0  0  0  0  0  0  0  0
   -8.2112    3.0637   26.9225 C   0  0  0  0  0  0  0  0  0  0  0  0
   -7.0021    4.5281   28.2396 C   0  0  0  0  0  0  0  0  0  0  0  0
   -9.4237    2.7810   26.2714 C   0  0  0  0  0  0  0  0  0  0  0  0
   -9.9782    1.4391   26.2525 C   0  0  0  0  0  0  0  0  0  0  0  0
   -9.2622    0.4320   26.8729 C   0  0  0  0  0  0  0  0  0  0  0  0
   -8.0745    0.6657   27.5462 C   0  0  0  0  0  0  0  0  0  0  0  0
   -7.4723    1.9739   27.6189 C   0  0  0  0  0  0  0  0  0  0  0  0
   -6.8855    5.9211   28.5310 C   0  0  0  0  0  0  0  0  0  0  0  0
   -8.6136    5.3606   26.9145 C   0  0  2  0  0  0  0  0  0  0  0  0
   -9.7033    5.3662   26.0952 N   0  0  0  0  0  0  0  0  0  0  0  0
   -8.1268    6.5175   27.5297 C   0  0  0  0  0  0  0  0  0  0  0  0
  -10.1310    4.0399   25.7579 C   0  0  0  0  0  0  0  0  0  0  0  0
  -11.0929    3.8908   24.9761 O   0  0  0  0  0  0  0  0  0  0  0  0
   -7.2915   -0.4713   28.1322 C   0  0  0  0  0  0  0  0  0  0  0  0
   -6.5475   -1.1796   27.5221 C   0  0  0  0  0  0  0  0  0  0  0  0
   -5.7763   -2.1600   28.1841 C   0  0  0  0  0  0  0  0  0  0  0  0
   -5.9089   -2.3338   29.5914 C   0  0  0  0  0  0  0  0  0  0  0  0
   -6.8666   -1.6254   30.2310 C   0  0  0  0  0  0  0  0  0  0  0  0
   -7.4748   -0.7111   29.5635 C   0  0  0  0  0  0  0  0  0  0  0  0
  1  2  1  0
  3  9  1  0
  1 10  1  0
  9 12  1  0
 10 12  1  6
  4 13  1  0
 11 13  1  0
 13 14  2  0
  7 15  1  0
  1  3  1  1
 10 11  1  0
 15 16  2  0
 16 17  1  0
 17 18  2  0
 18 19  1  0
 19 20  2  0
 20 15  1  0
  2  4  2  0
  4  5  1  0
  5  6  2  0
  6  7  1  0
  7  8  2  0
  8  2  1  0
M  END
$$$$
