No_6582-complexes_sdf/6BKW-FPZ/2024-09-17-14-21-01/
     RDKit          3D

 12 12  0  0  0  0  0  0  0  0999 V2000
   -7.9040    3.9820   27.1177 C   0  0  0  0  0  0  0  0  0  0  0  0
   -7.8663    4.8694   27.9238 C   0  0  0  0  0  0  0  0  0  0  0  0
   -7.4547    2.7080   27.4594 C   0  0  0  0  0  0  0  0  0  0  0  0
   -6.1474    2.6388   27.8014 C   0  0  0  0  0  0  0  0  0  0  0  0
   -8.5539    6.1392   27.6636 C   0  0  0  0  0  0  0  0  0  0  0  0
   -8.9152    4.0957   26.1018 C   0  0  0  0  0  0  0  0  0  0  0  0
   -9.3589    2.9599   25.2858 C   0  0  0  0  0  0  0  0  0  0  0  0
   -9.5411    5.3266   25.8559 C   0  0  0  0  0  0  0  0  0  0  0  0
   -9.2656    6.3493   26.6674 C   0  0  0  0  0  0  0  0  0  0  0  0
   -5.4607    1.3671   27.9982 C   0  0  0  0  0  0  0  0  0  0  0  0
   -6.1424    0.1793   27.8557 C   0  0  0  0  0  0  0  0  0  0  0  0
   -7.5029    0.2640   27.3760 C   0  0  0  0  0  0  0  0  0  0  0  0
  3  4  1  0
  6  7  1  0
  4 10  2  3
 10 11  1  0
 11 12  2  0
  3  1  1  0
  1  2  2  0
  2  5  1  0
  5  9  2  0
  9  8  1  0
  8  6  2  0
  6  1  1  0
M  END
$$$$
