No_6379-complexes_sdf/6BKW-FPZ/2024-09-17-14-21-01/
     RDKit          3D

 15 16  0  0  0  0  0  0  0  0999 V2000
   -7.9040    3.9820   27.1177 C   0  0  0  0  0  0  0  0  0  0  0  0
   -8.2057    2.8231   26.8733 C   0  0  0  0  0  0  0  0  0  0  0  0
   -9.2962    2.4021   26.1155 C   0  0  0  0  0  0  0  0  0  0  0  0
   -8.7358    5.0662   26.5917 C   0  0  0  0  0  0  0  0  0  0  0  0
   -9.7618    4.7023   25.7546 C   0  0  0  0  0  0  0  0  0  0  0  0
  -10.0066    3.4105   25.4922 C   0  0  0  0  0  0  0  0  0  0  0  0
   -8.6256    6.4768   26.9069 C   0  0  0  0  0  0  0  0  0  0  0  0
   -8.4267    6.9180   28.1186 N   0  0  0  0  0  0  0  0  0  0  0  0
   -8.6424    7.3055   25.9262 O   0  0  0  0  0  0  0  0  0  0  0  0
   -7.3996    1.7589   27.4622 N   0  0  0  0  0  0  0  0  0  0  0  0
   -6.0790    1.9414   27.7612 C   0  0  0  0  0  0  0  0  0  0  0  0
   -5.3573    0.7376   28.2635 C   0  0  0  0  0  0  0  0  0  0  0  0
   -7.8264    0.4381   27.4726 C   0  0  0  0  0  0  0  0  0  0  0  0
   -7.1647   -0.6141   27.9513 C   0  0  0  0  0  0  0  0  0  0  0  0
   -5.8687   -0.4132   28.3852 C   0  0  0  0  0  0  0  0  0  0  0  0
  4  7  1  0
  7  8  1  0
  7  9  2  0
  2 10  1  0
 10 11  1  0
 10 13  1  0
 12 15  1  0
 14 15  1  0
 11 12  1  0
 14 13  1  0
  1  2  2  0
  2  3  1  0
  3  6  2  0
  6  5  1  0
  5  4  2  0
  4  1  1  0
M  END
$$$$
