No_6694-complexes_sdf/6BKW-FPZ/2024-09-17-14-21-01/
     RDKit          3D

  9  9  0  0  0  0  0  0  0  0999 V2000
   -7.9040    3.9820   27.1177 C   0  0  2  0  0  0  0  0  0  0  0  0
   -9.0711    4.3164   27.0630 C   0  0  0  0  0  0  0  0  0  0  0  0
   -9.8698    3.9665   25.9494 C   0  0  0  0  0  0  0  0  0  0  0  0
   -7.4981    2.6202   26.7684 C   0  0  0  0  0  0  0  0  0  0  0  0
   -9.7010    2.6670   25.4919 C   0  0  2  0  0  0  0  0  0  0  0  0
   -8.4517    2.0209   25.8679 C   0  0  0  0  0  0  0  0  0  0  0  0
   -7.1654    4.4232   28.3976 C   0  0  0  0  0  0  0  0  0  0  0  0
  -10.4479    2.1160   24.4208 C   0  0  0  0  0  0  0  0  0  0  0  0
  -10.4932    0.9393   24.2103 C   0  0  0  0  0  0  0  0  0  0  0  0
  1  2  1  0
  2  3  1  0
  1  4  1  0
  3  5  1  0
  4  6  1  0
  5  6  1  0
  1  7  1  1
  5  8  1  6
  8  9  2  0
M  END
$$$$
