No_6117-complexes_sdf/6BKW-FPZ/2024-09-17-14-21-01/
     RDKit          3D

 40 43  0  0  0  0  0  0  0  0999 V2000
   -7.9040    3.9820   27.1177 C   0  0  0  0  0  0  0  0  0  0  0  0
   -7.8663    4.8694   27.9238 C   0  0  0  0  0  0  0  0  0  0  0  0
   -7.4547    2.7080   27.4594 C   0  0  0  0  0  0  0  0  0  0  0  0
   -7.9337    1.5946   26.8372 C   0  0  0  0  0  0  0  0  0  0  0  0
   -8.9603    1.7678   26.1391 C   0  0  0  0  0  0  0  0  0  0  0  0
   -9.5151    2.9338   25.7451 C   0  0  0  0  0  0  0  0  0  0  0  0
   -9.0514    3.9881   26.3110 C   0  0  0  0  0  0  0  0  0  0  0  0
   -7.0383    4.9895   28.9476 N   0  0  0  0  0  0  0  0  0  0  0  0
   -8.3801    6.1743   27.5542 N   0  0  0  0  0  0  0  0  0  0  0  0
  -10.6001    3.1969   24.6837 C   0  0  0  0  0  0  0  0  0  0  0  0
  -11.7385    3.3688   25.0741 N   0  0  0  0  0  0  0  0  0  0  0  0
  -10.2721    3.0474   23.3110 C   0  0  0  0  0  0  0  0  0  0  0  0
  -11.2435    3.4217   22.4086 C   0  0  0  0  0  0  0  0  0  0  0  0
  -12.7689    3.7248   24.2257 C   0  0  0  0  0  0  0  0  0  0  0  0
  -12.5335    3.7244   22.8637 C   0  0  0  0  0  0  0  0  0  0  0  0
   -7.3346    0.2668   27.1848 C   0  0  0  0  0  0  0  0  0  0  0  0
   -8.0026   -0.8750   27.2139 C   0  0  0  0  0  0  0  0  0  0  0  0
   -7.4417   -2.0799   27.6639 C   0  0  0  0  0  0  0  0  0  0  0  0
   -6.1566   -2.0533   28.2093 C   0  0  0  0  0  0  0  0  0  0  0  0
   -5.4285   -0.8777   28.2631 C   0  0  0  0  0  0  0  0  0  0  0  0
   -5.9860    0.3054   27.8442 C   0  0  0  0  0  0  0  0  0  0  0  0
   -4.0432   -0.8483   28.8299 C   0  0  1  0  0  0  0  0  0  0  0  0
   -3.1303   -0.0826   28.1999 C   0  0  0  0  0  0  0  0  0  0  0  0
   -3.7165   -1.5076   30.0284 C   0  0  0  0  0  0  0  0  0  0  0  0
   -4.1897   -1.1491   31.1419 C   0  0  0  0  0  0  0  0  0  0  0  0
   -4.0394   -1.7975   32.3396 C   0  0  0  0  0  0  0  0  0  0  0  0
   -3.1683   -2.9021   32.3218 C   0  0  0  0  0  0  0  0  0  0  0  0
   -2.5809   -3.2762   31.1525 C   0  0  0  0  0  0  0  0  0  0  0  0
   -2.8015   -2.5682   29.9572 C   0  0  0  0  0  0  0  0  0  0  0  0
   -2.0503   -0.4325   27.8891 O   0  0  0  0  0  0  0  0  0  0  0  0
   -3.4745    1.2408   27.8659 O   0  0  0  0  0  0  0  0  0  0  0  0
  -10.9596    3.4088   20.9807 C   0  0  0  0  0  0  0  0  0  0  0  0
  -11.0333    2.1676   20.4046 C   0  0  0  0  0  0  0  0  0  0  0  0
  -10.4014    4.5183   20.3553 C   0  0  0  0  0  0  0  0  0  0  0  0
  -14.0495    4.0872   24.8257 C   0  0  0  0  0  0  0  0  0  0  0  0
  -14.8625    4.8181   24.2998 N   0  0  0  0  0  0  0  0  0  0  0  0
  -14.9555    5.3249   23.3370 C   0  0  0  0  0  0  0  0  0  0  0  0
  -15.9942    6.3477   22.9602 C   0  0  0  0  0  0  0  0  0  0  0  0
  -16.5310    6.5472   24.2682 C   0  0  0  0  0  0  0  0  0  0  0  0
  -17.5834    7.3847   24.6616 C   0  0  0  0  0  0  0  0  0  0  0  0
  1  2  1  0
  2  8  1  0
  2  9  2  0
  6 10  1  0
  4 16  1  0
 20 22  1  0
 22 23  1  1
 22 24  1  0
 23 30  2  0
 23 31  1  0
 13 32  1  0
 32 33  1  0
 32 34  1  0
 14 35  1  0
 35 36  2  3
 36 37  1  0
 37 38  2  3
 38 39  1  0
 39 40  1  0
 16 17  2  0
 17 18  1  0
 18 19  2  0
 19 20  1  0
 20 21  2  0
 21 16  1  0
 10 11  2  0
 11 14  1  0
 14 15  2  0
 15 13  1  0
 13 12  2  0
 12 10  1  0
 24 25  2  0
 25 26  1  0
 26 27  2  0
 27 28  1  0
 28 29  2  0
 29 24  1  0
  1  3  2  0
  3  4  1  0
  4  5  2  0
  5  6  1  0
  6  7  2  0
  7  1  1  0
M  END
$$$$
