No_6243-complexes_sdf/6BKW-FPZ/2024-09-17-14-21-01/
     RDKit          3D

 12 13  0  0  0  0  0  0  0  0999 V2000
   -7.9040    3.9820   27.1177 C   0  0  0  0  0  0  0  0  0  0  0  0
   -7.8663    4.8694   27.9238 C   0  0  0  0  0  0  0  0  0  0  0  0
   -9.0491    3.8523   26.2542 C   0  0  0  0  0  0  0  0  0  0  0  0
   -8.7661    5.9491   27.9690 C   0  0  0  0  0  0  0  0  0  0  0  0
   -9.1715    2.7136   25.4037 C   0  0  0  0  0  0  0  0  0  0  0  0
   -9.8832    5.8611   27.1405 C   0  0  0  0  0  0  0  0  0  0  0  0
  -10.0016    4.7998   26.3324 C   0  0  0  0  0  0  0  0  0  0  0  0
   -8.6631    1.4684   25.7780 C   0  0  0  0  0  0  0  0  0  0  0  0
  -10.0023    2.7524   24.2576 C   0  0  0  0  0  0  0  0  0  0  0  0
   -8.7714    0.3897   24.9484 C   0  0  0  0  0  0  0  0  0  0  0  0
  -10.0929    1.6570   23.4232 C   0  0  0  0  0  0  0  0  0  0  0  0
   -9.4840    0.4731   23.7717 C   0  0  0  0  0  0  0  0  0  0  0  0
  3  5  1  0
  1  2  2  0
  2  4  1  0
  4  6  2  0
  6  7  1  0
  7  3  2  0
  3  1  1  0
  5  8  2  0
  8 10  1  0
 10 12  2  0
 12 11  1  0
 11  9  2  0
  9  5  1  0
M  END
$$$$
