No_605-complexes_sdf/6BKW-FPZ/2024-09-17-14-21-01/
     RDKit          3D

 15 15  0  0  0  0  0  0  0  0999 V2000
   -7.9040    3.9820   27.1177 C   0  0  0  0  0  0  0  0  0  0  0  0
   -7.8663    4.8694   27.9238 C   0  0  0  0  0  0  0  0  0  0  0  0
   -9.0501    3.8017   26.2617 C   0  0  0  0  0  0  0  0  0  0  0  0
  -10.0189    4.7608   26.3707 C   0  0  0  0  0  0  0  0  0  0  0  0
   -8.6973    5.9722   27.8968 C   0  0  0  0  0  0  0  0  0  0  0  0
   -9.8216    5.8946   27.1241 C   0  0  0  0  0  0  0  0  0  0  0  0
   -9.1437    2.6293   25.4175 C   0  0  0  0  0  0  0  0  0  0  0  0
   -8.6170    1.4258   25.8177 C   0  0  0  0  0  0  0  0  0  0  0  0
   -8.0311    1.3669   27.1547 C   0  0  0  0  0  0  0  0  0  0  0  0
   -7.3950    2.6332   27.6186 C   0  0  0  0  0  0  0  0  0  0  0  0
   -5.8613    2.4801   28.3118 Cl  0  0  0  0  0  0  0  0  0  0  0  0
   -7.8900    2.7046   28.5600 C   0  0  0  0  0  0  0  0  0  0  0  0
   -7.0946    4.5600   26.3457 F   0  0  0  0  0  0  0  0  0  0  0  0
   -8.4348    1.6794   28.7129 F   0  0  0  0  0  0  0  0  0  0  0  0
   -7.4101   -0.0208   27.3380 C   0  0  0  0  0  0  0  0  0  0  0  0
  3  7  1  0
  7  8  2  3
  8  9  1  0
  9 10  2  3
 10 11  1  0
 10 12  1  0
  1 13  1  0
 12 14  1  0
  9 15  1  0
  1  2  2  0
  2  5  1  0
  5  6  2  0
  6  4  1  0
  4  3  2  0
  3  1  1  0
M  END
$$$$
