No_6791-complexes_sdf/6BKW-FPZ/2024-09-17-14-21-01/
     RDKit          3D

 33 36  0  0  0  0  0  0  0  0999 V2000
   -7.7129    4.2099   27.0854 C   0  0  0  0  0  0  0  0  0  0  0  0
   -7.7814    5.1722   27.8972 C   0  0  0  0  0  0  0  0  0  0  0  0
   -8.8998    3.8713   26.3707 C   0  0  0  0  0  0  0  0  0  0  0  0
   -8.9563    2.6796   25.5490 C   0  0  0  0  0  0  0  0  0  0  0  0
   -8.8131    6.1334   27.9344 C   0  0  0  0  0  0  0  0  0  0  0  0
   -9.9804    5.8121   27.1929 C   0  0  0  0  0  0  0  0  0  0  0  0
   -9.9861    4.6836   26.4532 C   0  0  0  0  0  0  0  0  0  0  0  0
   -9.8352    2.5435   24.5126 C   0  0  0  0  0  0  0  0  0  0  0  0
   -9.8680    1.4156   23.7412 C   0  0  0  0  0  0  0  0  0  0  0  0
   -8.8988    0.3731   23.9922 C   0  0  0  0  0  0  0  0  0  0  0  0
   -8.0409    0.4782   25.0443 C   0  0  0  0  0  0  0  0  0  0  0  0
   -8.0131    1.6137   25.8514 C   0  0  0  0  0  0  0  0  0  0  0  0
  -10.9101    1.2709   22.4168 Cl  0  0  0  0  0  0  0  0  0  0  0  0
   -6.6674    5.5658   28.6381 O   0  0  0  0  0  0  0  0  0  0  0  0
   -7.0862   -0.6053   25.3136 C   0  0  0  0  0  0  0  0  0  0  0  0
   -7.4017   -1.4075   26.0142 O   0  0  0  0  0  0  0  0  0  0  0  0
   -5.9761   -0.6107   24.6343 O   0  0  0  0  0  0  0  0  0  0  0  0
   -6.7876   -2.1027   26.8169 C   0  0  0  0  0  0  0  0  0  0  0  0
   -6.5993   -1.7003   28.0701 C   0  0  0  0  0  0  0  0  0  0  0  0
   -5.8163   -2.3677   29.1049 C   0  0  0  0  0  0  0  0  0  0  0  0
   -5.2405   -3.5219   28.7199 C   0  0  0  0  0  0  0  0  0  0  0  0
   -5.4259   -3.9553   27.4369 C   0  0  0  0  0  0  0  0  0  0  0  0
   -6.1285   -3.2582   26.4948 C   0  0  0  0  0  0  0  0  0  0  0  0
   -5.7750   -1.7438   30.4510 C   0  0  0  0  0  0  0  0  0  0  0  0
   -4.7446   -0.8477   30.7049 C   0  0  0  0  0  0  0  0  0  0  0  0
   -4.0196   -0.1240   29.7524 C   0  0  0  0  0  0  0  0  0  0  0  0
   -2.9549    0.7510   30.1746 C   0  0  0  0  0  0  0  0  0  0  0  0
   -4.3101   -0.6259   32.0983 C   0  0  0  0  0  0  0  0  0  0  0  0
   -5.0812   -1.3652   33.1330 C   0  0  0  0  0  0  0  0  0  0  0  0
   -4.6892   -1.1447   34.4665 C   0  0  0  0  0  0  0  0  0  0  0  0
   -3.3896   -0.6225   34.7253 C   0  0  0  0  0  0  0  0  0  0  0  0
   -2.5484   -0.2051   33.6545 C   0  0  0  0  0  0  0  0  0  0  0  0
   -3.0013   -0.2221   32.3483 C   0  0  0  0  0  0  0  0  0  0  0  0
  3  4  1  0
  9 13  1  0
  2 14  1  0
 11 15  1  0
 15 16  1  0
 15 17  2  0
 16 18  1  0
 20 24  1  0
 24 25  1  0
 25 26  1  0
 26 27  2  0
 25 28  1  0
  4  8  2  0
  8  9  1  0
  9 10  2  0
 10 11  1  0
 11 12  2  0
 12  4  1  0
 28 29  2  0
 29 30  1  0
 30 31  2  0
 31 32  1  0
 32 33  2  0
 33 28  1  0
 18 19  2  0
 19 20  1  0
 20 21  2  0
 21 22  1  0
 22 23  2  0
 23 18  1  0
  1  2  2  0
  2  5  1  0
  5  6  2  0
  6  7  1  0
  7  3  2  0
  3  1  1  0
M  END
$$$$
