No_6019-complexes_sdf/6BKW-FPZ/2024-09-17-14-21-01/
     RDKit          3D

 25 28  0  0  0  0  0  0  0  0999 V2000
   -7.2496    3.8871   27.4508 C   0  0  0  0  0  0  0  0  0  0  0  0
   -7.6161    2.7143   27.1523 C   0  0  0  0  0  0  0  0  0  0  0  0
   -8.8302    2.4659   26.5056 C   0  0  0  0  0  0  0  0  0  0  0  0
   -8.1584    5.0090   27.3234 C   0  0  0  0  0  0  0  0  0  0  0  0
   -9.3788    4.7965   26.7695 C   0  0  0  0  0  0  0  0  0  0  0  0
   -9.7028    3.5649   26.3276 C   0  0  0  0  0  0  0  0  0  0  0  0
   -6.7803    1.6411   27.3559 N   0  0  0  0  0  0  0  0  0  0  0  0
   -7.0291    0.3561   27.0278 C   0  0  0  0  0  0  0  0  0  0  0  0
   -8.3411    0.1162   26.4981 C   0  0  0  0  0  0  0  0  0  0  0  0
   -9.2007    1.1206   26.2095 C   0  0  0  0  0  0  0  0  0  0  0  0
   -7.6423    6.5885   27.8776 Cl  0  0  0  0  0  0  0  0  0  0  0  0
   -6.1923   -0.5965   27.3734 N   0  0  0  0  0  0  0  0  0  0  0  0
   -5.0423   -0.2391   28.0476 C   0  0  0  0  0  0  0  0  0  0  0  0
   -4.0974   -0.8382   28.3606 C   0  0  0  0  0  0  0  0  0  0  0  0
   -2.9200   -0.3040   29.1302 C   0  0  0  0  0  0  0  0  0  0  0  0
   -3.1298    0.9936   29.6568 C   0  0  0  0  0  0  0  0  0  0  0  0
   -4.9235    1.0647   28.7778 N   0  0  0  0  0  0  0  0  0  0  0  0
   -3.8786    1.4236   29.4418 C   0  0  0  0  0  0  0  0  0  0  0  0
   -6.3595   -1.9226   27.0640 C   0  0  0  0  0  0  0  0  0  0  0  0
   -6.7757   -2.7645   27.7429 C   0  0  0  0  0  0  0  0  0  0  0  0
   -7.2225   -2.4954   29.1507 C   0  0  0  0  0  0  0  0  0  0  0  0
   -7.8063   -3.4120   30.0669 C   0  0  0  0  0  0  0  0  0  0  0  0
   -8.0747   -4.6499   29.4930 C   0  0  0  0  0  0  0  0  0  0  0  0
   -7.7701   -4.9816   28.2247 C   0  0  0  0  0  0  0  0  0  0  0  0
   -7.1402   -4.0799   27.3804 C   0  0  0  0  0  0  0  0  0  0  0  0
  4 11  1  0
  8 12  1  0
 12 13  1  0
 12 19  1  0
 19 20  1  0
  1  2  2  0
  3  6  2  0
  6  5  1  0
  5  4  2  0
  4  1  1  0
  2  3  1  0
  3 10  1  0
 10  9  2  0
  9  8  1  0
  8  7  2  0
  7  2  1  0
 13 14  2  0
 14 15  1  0
 15 16  2  0
 16 18  1  0
 18 17  2  0
 17 13  1  0
 20 21  2  0
 21 22  1  0
 22 23  2  0
 23 24  1  0
 24 25  2  0
 25 20  1  0
M  END
$$$$
