No_6971-complexes_sdf/6BKW-FPZ/2024-09-17-14-21-01/
     RDKit          3D

 39 42  0  0  0  0  0  0  0  0999 V2000
   -7.9040    3.9820   27.1177 C   0  0  0  0  0  0  0  0  0  0  0  0
   -8.2057    2.8231   26.8733 C   0  0  0  0  0  0  0  0  0  0  0  0
   -8.7695    5.0740   26.7916 C   0  0  0  0  0  0  0  0  0  0  0  0
   -8.4337    6.4678   27.0913 C   0  0  0  0  0  0  0  0  0  0  0  0
   -9.3742    2.4311   26.2346 C   0  0  0  0  0  0  0  0  0  0  0  0
  -10.2395    3.4267   25.8887 C   0  0  0  0  0  0  0  0  0  0  0  0
   -9.9567    4.7548   26.1374 C   0  0  0  0  0  0  0  0  0  0  0  0
   -7.9839    7.5474   27.0128 N   0  0  0  0  0  0  0  0  0  0  0  0
   -7.2381    1.6824   27.2965 C   0  0  0  0  0  0  0  0  0  0  0  0
   -7.6435    0.5966   27.5041 F   0  0  0  0  0  0  0  0  0  0  0  0
   -6.5077    2.1875   28.4032 F   0  0  0  0  0  0  0  0  0  0  0  0
   -6.2961    1.5067   26.2885 F   0  0  0  0  0  0  0  0  0  0  0  0
  -11.4481    3.0905   25.1274 C   0  0  0  0  0  0  0  0  0  0  0  0
  -12.5816    2.9596   25.7544 C   0  0  0  0  0  0  0  0  0  0  0  0
  -13.7912    2.8365   25.1802 C   0  0  0  0  0  0  0  0  0  0  0  0
  -11.4198    3.0515   23.7283 C   0  0  0  0  0  0  0  0  0  0  0  0
  -10.1920    3.2128   22.9712 C   0  0  0  0  0  0  0  0  0  0  0  0
  -13.7642    2.7892   23.7447 C   0  0  0  0  0  0  0  0  0  0  0  0
  -12.6090    2.9299   23.0192 C   0  0  0  0  0  0  0  0  0  0  0  0
  -12.6373    3.0693   27.3201 C   0  0  0  0  0  0  0  0  0  0  0  0
  -12.1757    2.2889   28.0996 C   0  0  0  0  0  0  0  0  0  0  0  0
  -12.4645    2.1384   29.3396 C   0  0  0  0  0  0  0  0  0  0  0  0
  -13.2234    3.2013   30.0404 C   0  0  0  0  0  0  0  0  0  0  0  0
  -13.5170    4.1675   27.8228 C   0  0  0  0  0  0  0  0  0  0  0  0
  -13.6019    3.2005   31.3958 C   0  0  2  0  0  0  0  0  0  0  0  0
  -13.7633    4.2454   29.1765 C   0  0  0  0  0  0  0  0  0  0  0  0
  -14.7181    3.2012   31.8448 N   0  0  0  0  0  0  0  0  0  0  0  0
  -14.9902    3.3447   33.0959 C   0  0  0  0  0  0  0  0  0  0  0  0
  -13.9387    3.3121   34.0162 C   0  0  0  0  0  0  0  0  0  0  0  0
  -12.6179    3.4696   33.6170 C   0  0  0  0  0  0  0  0  0  0  0  0
  -12.4585    3.4178   32.3249 C   0  0  0  0  0  0  0  0  0  0  0  0
  -11.5657    3.7253   34.5808 C   0  0  0  0  0  0  0  0  0  0  0  0
  -11.8656    4.8564   35.7687 Cl  0  0  0  0  0  0  0  0  0  0  0  0
  -15.8302    3.0792   30.8467 C   0  0  0  0  0  0  0  0  0  0  0  0
  -16.2536    1.8719   30.5262 C   0  0  0  0  0  0  0  0  0  0  0  0
  -16.1603    0.8594   31.1852 C   0  0  0  0  0  0  0  0  0  0  0  0
  -16.5404   -0.4877   30.7775 C   0  0  0  0  0  0  0  0  0  0  0  0
  -16.7796   -0.5881   29.7861 C   0  0  0  0  0  0  0  0  0  0  0  0
  -16.9473    0.3718   28.7279 C   0  0  0  0  0  0  0  0  0  0  0  0
  3  4  1  0
  4  8  3  0
  2  9  1  0
  9 10  1  0
  9 11  1  0
  9 12  1  0
  6 13  1  0
 16 17  1  0
 14 20  1  0
 25 23  1  6
 25 27  1  0
 27 28  1  0
 29 30  1  0
 25 31  1  0
 30 31  1  0
 30 32  1  0
 32 33  1  0
 27 34  1  0
 34 35  2  3
 35 36  1  0
 36 37  2  3
 37 38  1  0
 38 39  2  0
 29 28  1  0
 20 21  2  0
 21 22  1  0
 22 23  2  0
 23 26  1  0
 26 24  2  0
 24 20  1  0
  1  2  2  0
  2  5  1  0
  5  6  2  0
  6  7  1  0
  7  3  2  0
  3  1  1  0
 13 14  1  0
 14 15  2  0
 15 18  1  0
 18 19  2  0
 19 16  1  0
 16 13  2  0
M  END
$$$$
