No_6373-complexes_sdf/6BKW-FPZ/2024-09-17-14-21-01/
     RDKit          3D

 23 25  0  0  0  0  0  0  0  0999 V2000
   -7.7129    4.2099   27.0854 C   0  0  0  0  0  0  0  0  0  0  0  0
   -8.9133    4.4736   27.0998 C   0  0  0  0  0  0  0  0  0  0  0  0
   -9.4643    5.5426   27.7628 C   0  0  0  0  0  0  0  0  0  0  0  0
   -6.8373    4.9942   27.9785 C   0  0  0  0  0  0  0  0  0  0  0  0
   -7.3932    6.0303   28.6784 C   0  0  0  0  0  0  0  0  0  0  0  0
   -8.7122    6.3429   28.5485 C   0  0  0  0  0  0  0  0  0  0  0  0
   -9.7912    3.6118   26.1875 C   0  0  0  0  0  0  0  0  0  0  0  0
  -10.0449    4.0843   24.9272 C   0  0  0  0  0  0  0  0  0  0  0  0
  -10.7514    3.4030   23.9427 C   0  0  0  0  0  0  0  0  0  0  0  0
  -11.1304    2.1011   24.2165 C   0  0  0  0  0  0  0  0  0  0  0  0
  -10.1220    2.3147   26.2102 C   0  0  0  0  0  0  0  0  0  0  0  0
  -10.7497    1.5402   25.3804 C   0  0  0  0  0  0  0  0  0  0  0  0
  -11.0985    4.1021   22.6790 C   0  0  1  0  0  0  0  0  0  0  0  0
  -11.2902    5.3804   22.7057 C   0  0  0  0  0  0  0  0  0  0  0  0
  -11.0663    3.2774   21.5203 C   0  0  0  0  0  0  0  0  0  0  0  0
  -10.1995    2.6416   21.1025 C   0  0  0  0  0  0  0  0  0  0  0  0
   -8.9931    2.4202   21.9306 C   0  0  0  0  0  0  0  0  0  0  0  0
   -8.7137    0.9950   22.3443 C   0  0  0  0  0  0  0  0  0  0  0  0
   -7.6831    0.6392   23.1043 C   0  0  0  0  0  0  0  0  0  0  0  0
   -7.5033   -0.6545   23.5438 C   0  0  0  0  0  0  0  0  0  0  0  0
   -9.6269   -0.0516   21.9049 C   0  0  0  0  0  0  0  0  0  0  0  0
   -9.3430   -1.3708   22.2353 C   0  0  0  0  0  0  0  0  0  0  0  0
   -8.2767   -1.6900   23.0548 C   0  0  0  0  0  0  0  0  0  0  0  0
  2  7  1  0
  9 13  1  0
 13 14  1  6
 13 15  1  0
 15 16  2  3
 16 17  1  0
 17 18  1  0
  7  8  2  0
  8  9  1  0
  9 10  2  0
 10 12  1  0
 12 11  2  0
 11  7  1  0
  1  2  2  0
  2  3  1  0
  3  6  2  0
  6  5  1  0
  5  4  2  0
  4  1  1  0
 18 19  2  0
 19 20  1  0
 20 23  2  0
 23 22  1  0
 22 21  2  0
 21 18  1  0
M  END
$$$$
