No_6281-complexes_sdf/6BKW-FPZ/2024-09-17-14-21-01/
     RDKit          3D

 28 29  0  0  0  0  0  0  0  0999 V2000
   -7.2496    3.8871   27.4508 C   0  0  0  0  0  0  0  0  0  0  0  0
   -7.6161    2.7143   27.1523 C   0  0  0  0  0  0  0  0  0  0  0  0
   -8.8827    2.2318   27.1220 C   0  0  0  0  0  0  0  0  0  0  0  0
   -8.2837    4.9116   27.6108 C   0  0  0  0  0  0  0  0  0  0  0  0
   -9.6088    4.5175   27.5560 C   0  0  0  0  0  0  0  0  0  0  0  0
   -9.9243    3.2149   27.3938 C   0  0  0  0  0  0  0  0  0  0  0  0
   -7.9067    6.1291   27.9030 F   0  0  0  0  0  0  0  0  0  0  0  0
   -9.2875    0.8490   26.9184 C   0  0  0  0  0  0  0  0  0  0  0  0
  -10.3106    0.3994   27.5189 C   0  0  0  0  0  0  0  0  0  0  0  0
  -10.6897   -0.9455   27.4249 C   0  0  0  0  0  0  0  0  0  0  0  0
   -9.8996   -1.7726   26.6738 C   0  0  0  0  0  0  0  0  0  0  0  0
   -8.5681   -0.0664   26.1998 C   0  0  0  0  0  0  0  0  0  0  0  0
   -8.8133   -1.3015   26.0350 C   0  0  0  0  0  0  0  0  0  0  0  0
   -7.8661   -2.3178   25.0608 Cl  0  0  0  0  0  0  0  0  0  0  0  0
  -11.9645   -1.2243   28.1334 C   0  0  0  0  0  0  0  0  0  0  0  0
  -12.8413   -1.3858   27.4710 F   0  0  0  0  0  0  0  0  0  0  0  0
  -12.1686   -0.2336   29.0909 F   0  0  0  0  0  0  0  0  0  0  0  0
  -11.6899   -2.3508   28.9121 F   0  0  0  0  0  0  0  0  0  0  0  0
  -10.4206    5.5657   27.8015 O   0  0  0  0  0  0  0  0  0  0  0  0
   -6.6211    1.8028   27.0145 F   0  0  0  0  0  0  0  0  0  0  0  0
  -11.1876    2.8868   27.3991 O   0  0  0  0  0  0  0  0  0  0  0  0
  -12.0002    3.5722   28.2173 C   0  0  0  0  0  0  0  0  0  0  0  0
  -12.5748    2.8690   29.2596 C   0  0  0  0  0  0  0  0  0  0  0  0
  -13.4627    3.3911   30.2494 C   0  0  0  0  0  0  0  0  0  0  0  0
  -13.5069    2.9099   31.5215 C   0  0  0  0  0  0  0  0  0  0  0  0
  -13.9248    3.6801   32.5263 C   0  0  0  0  0  0  0  0  0  0  0  0
  -14.6720    4.8865   32.2510 C   0  0  0  0  0  0  0  0  0  0  0  0
  -14.8004    5.2489   30.9329 C   0  0  0  0  0  0  0  0  0  0  0  0
  4  7  1  0
  3  8  1  0
 13 14  1  0
 10 15  1  0
 15 16  1  0
 15 17  1  0
 15 18  1  0
  5 19  1  0
  2 20  1  0
  6 21  1  0
 21 22  1  0
 22 23  1  0
 23 24  2  3
 24 25  1  0
 25 26  2  3
 26 27  1  0
 27 28  2  0
  1  2  2  0
  2  3  1  0
  3  6  2  0
  6  5  1  0
  5  4  2  0
  4  1  1  0
  8  9  2  0
  9 10  1  0
 10 11  2  0
 11 13  1  0
 13 12  2  0
 12  8  1  0
M  END
$$$$
