No_6997-complexes_sdf/6BKW-FPZ/2024-09-17-14-21-01/
     RDKit          3D

 25 28  0  0  0  0  0  0  0  0999 V2000
   -7.9040    3.9820   27.1177 C   0  0  0  0  0  0  0  0  0  0  0  0
   -7.8663    4.8694   27.9238 C   0  0  0  0  0  0  0  0  0  0  0  0
   -7.4698    2.6989   27.4277 C   0  0  0  0  0  0  0  0  0  0  0  0
   -7.9683    1.5964   26.8266 C   0  0  0  0  0  0  0  0  0  0  0  0
   -8.9447    1.7923   25.8533 C   0  0  0  0  0  0  0  0  0  0  0  0
   -9.4405    2.9988   25.5757 C   0  0  0  0  0  0  0  0  0  0  0  0
   -8.9424    4.1117   26.2388 C   0  0  0  0  0  0  0  0  0  0  0  0
   -8.0991    6.0941   27.8047 N   0  0  0  0  0  0  0  0  0  0  0  0
   -7.2487    0.3289   27.2143 C   0  0  1  0  0  0  0  0  0  0  0  0
   -8.0724   -0.7831   27.5548 C   0  0  0  0  0  0  0  0  0  0  0  0
   -9.3197   -0.7859   27.4784 C   0  0  0  0  0  0  0  0  0  0  0  0
  -10.1562   -1.8164   28.0548 C   0  0  0  0  0  0  0  0  0  0  0  0
   -9.4750   -2.8318   28.6737 C   0  0  0  0  0  0  0  0  0  0  0  0
   -7.4828   -1.8649   28.3563 C   0  0  0  0  0  0  0  0  0  0  0  0
   -8.1532   -2.8410   28.8613 C   0  0  0  0  0  0  0  0  0  0  0  0
   -5.8798    0.1532   26.9628 C   0  0  0  0  0  0  0  0  0  0  0  0
   -8.9449    6.5731   26.9192 C   0  0  0  0  0  0  0  0  0  0  0  0
   -9.4777    5.4887   26.0310 C   0  0  0  0  0  0  0  0  0  0  0  0
  -10.4233    3.1867   24.4812 C   0  0  0  0  0  0  0  0  0  0  0  0
  -10.3817    2.4739   23.4333 C   0  0  0  0  0  0  0  0  0  0  0  0
  -10.9230    2.4826   22.5269 C   0  0  0  0  0  0  0  0  0  0  0  0
  -11.8092    3.6343   22.2102 C   0  0  0  0  0  0  0  0  0  0  0  0
  -11.9203    4.5468   23.2353 C   0  0  0  0  0  0  0  0  0  0  0  0
  -11.1709    4.4383   24.3476 C   0  0  0  0  0  0  0  0  0  0  0  0
   -5.2225    0.6660   26.2014 O   0  0  0  0  0  0  0  0  0  0  0  0
  4  9  1  0
  9 10  1  0
  9 16  1  6
  6 19  1  0
 16 25  2  0
 10 11  2  0
 11 12  1  0
 12 13  2  0
 13 15  1  0
 15 14  2  0
 14 10  1  0
  1  2  2  0
  2  8  1  0
  8 17  2  0
 17 18  1  0
 18  7  2  0
 19 20  2  0
 20 21  1  0
 21 22  2  0
 22 23  1  0
 23 24  2  0
 24 19  1  0
  1  3  1  0
  3  4  2  0
  4  5  1  0
  5  6  2  0
  6  7  1  0
  7  1  1  0
M  END
$$$$
