No_6605-complexes_sdf/6BKW-FPZ/2024-09-17-14-21-01/
     RDKit          3D

 24 28  0  0  0  0  0  0  0  0999 V2000
   -7.7129    4.2099   27.0854 C   0  0  1  0  0  0  0  0  0  0  0  0
   -7.7814    5.1722   27.8972 C   0  0  0  0  0  0  0  0  0  0  0  0
   -7.3155    2.9700   27.6145 C   0  0  0  0  0  0  0  0  0  0  0  0
   -7.1760    1.9119   26.6708 C   0  0  1  0  0  0  0  0  0  0  0  0
   -6.6246    0.7144   27.2456 C   0  0  0  0  0  0  0  0  0  0  0  0
   -6.0178   -0.2215   26.6026 C   0  0  0  0  0  0  0  0  0  0  0  0
   -8.5777    6.2613   27.5028 C   0  0  0  0  0  0  0  0  0  0  0  0
   -8.8338    4.2435   26.1619 C   0  0  2  0  0  0  0  0  0  0  0  0
   -9.2478    5.7815   26.2857 C   0  0  0  0  0  0  0  0  0  0  0  0
   -6.5484   -0.9084   25.7051 C   0  0  0  0  0  0  0  0  0  0  0  0
   -7.5904   -0.4058   25.1647 C   0  0  0  0  0  0  0  0  0  0  0  0
   -8.3218    0.7427   25.1609 C   0  0  0  0  0  0  0  0  0  0  0  0
   -8.5801    1.8460   26.0722 C   0  0  2  0  0  0  0  0  0  0  0  0
   -9.3934    3.3722   25.7494 C   0  0  2  0  0  0  0  0  0  0  0  0
   -8.3052   -1.3088   24.2061 O   0  0  0  0  0  0  0  0  0  0  0  0
   -9.4140    1.2312   27.1856 C   0  0  0  0  0  0  0  0  0  0  0  0
  -10.3726    3.2029   24.7751 C   0  0  0  0  0  0  0  0  0  0  0  0
  -11.6630    3.5651   25.2069 C   0  0  0  0  0  0  0  0  0  0  0  0
  -10.1732    2.8712   23.4498 C   0  0  0  0  0  0  0  0  0  0  0  0
  -11.1365    2.9299   22.4913 C   0  0  0  0  0  0  0  0  0  0  0  0
  -12.7137    3.6904   24.2943 C   0  0  0  0  0  0  0  0  0  0  0  0
  -12.4337    3.3577   22.9340 C   0  0  0  0  0  0  0  0  0  0  0  0
   -9.0708   -0.7761   23.3502 C   0  0  0  0  0  0  0  0  0  0  0  0
   -9.0924    0.7889   23.7971 C   0  0  0  0  0  0  0  0  0  0  0  0
  1  2  1  0
  1  3  1  1
  4  3  1  1
  4  5  1  0
  5  6  1  0
  2  7  2  0
  1  8  1  0
  7  9  1  0
  8  9  1  1
  6 10  1  0
 10 11  1  0
 11 12  1  0
  4 13  1  0
 12 13  1  0
  8 14  1  0
 13 14  1  0
 11 15  1  0
 13 16  1  1
 14 17  1  6
 15 23  1  0
 12 24  1  0
 23 24  1  0
 17 18  2  0
 18 21  1  0
 21 22  2  0
 22 20  1  0
 20 19  2  0
 19 17  1  0
M  END
$$$$
