No_6111-complexes_sdf/6BKW-FPZ/2024-09-17-14-21-01/
     RDKit          3D

 11 11  0  0  0  0  0  0  0  0999 V2000
   -7.9040    3.9820   27.1177 C   0  0  0  0  0  0  0  0  0  0  0  0
   -8.2057    2.8231   26.8733 C   0  0  0  0  0  0  0  0  0  0  0  0
   -7.0130    4.3706   28.1140 C   0  0  0  0  0  0  0  0  0  0  0  0
   -9.3829    2.4374   26.1668 C   0  0  0  0  0  0  0  0  0  0  0  0
  -10.0975    3.4171   25.5988 C   0  0  1  0  0  0  0  0  0  0  0  0
   -9.7335    4.7745   25.7705 C   0  0  0  0  0  0  0  0  0  0  0  0
   -8.7317    5.1107   26.5933 C   0  0  0  0  0  0  0  0  0  0  0  0
  -11.2130    3.0904   24.6733 C   0  0  0  0  0  0  0  0  0  0  0  0
  -12.3397    3.1642   25.1510 F   0  0  0  0  0  0  0  0  0  0  0  0
  -11.1455    3.9803   23.5875 F   0  0  0  0  0  0  0  0  0  0  0  0
  -11.0106    1.7363   23.9923 C   0  0  0  0  0  0  0  0  0  0  0  0
  1  2  1  0
  1  3  2  0
  2  4  1  0
  4  5  1  0
  5  6  1  0
  1  7  1  0
  6  7  3  0
  5  8  1  6
  8  9  1  0
  8 10  1  0
  8 11  1  0
M  END
$$$$
