No_6948-complexes_sdf/6BKW-FPZ/2024-09-17-14-21-01/
     RDKit          3D

 34 37  0  0  0  0  0  0  0  0999 V2000
   -7.7129    4.2099   27.0854 C   0  0  0  0  0  0  0  0  0  0  0  0
   -8.2112    3.0637   26.9225 C   0  0  0  0  0  0  0  0  0  0  0  0
   -8.5108    5.3904   26.9436 C   0  0  0  0  0  0  0  0  0  0  0  0
   -7.9752    6.6981   27.2112 C   0  0  0  0  0  0  0  0  0  0  0  0
   -9.5213    2.8208   26.4688 C   0  0  0  0  0  0  0  0  0  0  0  0
  -10.2979    3.9327   26.2378 C   0  0  0  0  0  0  0  0  0  0  0  0
  -11.5835    3.8361   25.7433 C   0  0  0  0  0  0  0  0  0  0  0  0
   -9.7789    5.2166   26.4585 C   0  0  0  0  0  0  0  0  0  0  0  0
   -8.6332    7.7973   26.8595 N   0  0  0  0  0  0  0  0  0  0  0  0
  -11.9392    3.7289   24.3632 C   0  0  0  0  0  0  0  0  0  0  0  0
  -10.8240    3.5912   23.4335 C   0  0  0  0  0  0  0  0  0  0  0  0
  -11.0641    3.5300   22.0358 C   0  0  0  0  0  0  0  0  0  0  0  0
   -9.9833    3.4726   21.1092 C   0  0  0  0  0  0  0  0  0  0  0  0
   -7.5390    1.7105   27.2020 C   0  0  0  0  0  0  0  0  0  0  0  0
   -6.9747    1.0128   26.7177 C   0  0  0  0  0  0  0  0  0  0  0  0
   -6.2801   -0.1640   27.2772 C   0  0  0  0  0  0  0  0  0  0  0  0
   -5.1199   -0.3619   27.1439 C   0  0  0  0  0  0  0  0  0  0  0  0
   -4.1039   -0.4911   27.6680 C   0  0  0  0  0  0  0  0  0  0  0  0
   -4.0137   -0.5226   29.1452 C   0  0  0  0  0  0  0  0  0  0  0  0
   -5.3490   -0.7514   29.6469 C   0  0  0  0  0  0  0  0  0  0  0  0
   -6.4240   -0.3439   28.8048 C   0  0  0  0  0  0  0  0  0  0  0  0
  -13.1828    3.6042   23.7864 C   0  0  0  0  0  0  0  0  0  0  0  0
  -13.4566    3.5609   22.4227 C   0  0  0  0  0  0  0  0  0  0  0  0
  -12.3862    3.5442   21.5559 C   0  0  0  0  0  0  0  0  0  0  0  0
   -2.9056   -0.9663   29.9614 C   0  0  0  0  0  0  0  0  0  0  0  0
   -1.8383   -1.4850   29.5125 C   0  0  0  0  0  0  0  0  0  0  0  0
   -2.9627   -0.5422   31.4034 C   0  0  0  0  0  0  0  0  0  0  0  0
   -2.3252   -1.4055   32.3373 C   0  0  0  0  0  0  0  0  0  0  0  0
   -2.4268   -1.0479   33.7060 C   0  0  0  0  0  0  0  0  0  0  0  0
   -1.3262   -2.2953   31.9388 C   0  0  0  0  0  0  0  0  0  0  0  0
   -1.5227   -1.6532   28.1375 C   0  0  0  0  0  0  0  0  0  0  0  0
   -0.9064   -2.1511   30.5428 C   0  0  0  0  0  0  0  0  0  0  0  0
   -3.6269   -1.1661   34.1804 O   0  0  0  0  0  0  0  0  0  0  0  0
   -1.6073   -0.2514   34.3585 O   0  0  0  0  0  0  0  0  0  0  0  0
  3  4  1  0
  4  9  2  0
  7 10  1  0
 12 13  1  0
  2 14  1  0
 14 15  2  3
 15 16  1  0
 19 25  1  0
 28 29  1  0
 26 31  1  0
 29 33  1  0
 29 34  2  0
  7  6  1  0
  1  2  2  0
  2  5  1  0
  5  6  2  0
  6  8  1  0
  8  3  2  0
  3  1  1  0
 10 11  2  0
 11 12  1  0
 12 24  2  0
 24 23  1  0
 23 22  2  0
 22 10  1  0
 25 26  2  0
 26 32  1  0
 32 30  2  0
 30 28  1  0
 28 27  2  0
 27 25  1  0
 16 17  2  0
 17 18  1  0
 18 19  2  0
 19 20  1  0
 20 21  2  0
 21 16  1  0
M  END
$$$$
