No_6158-complexes_sdf/6BKW-FPZ/2024-09-17-14-21-01/
     RDKit          3D

 18 21  0  0  0  0  0  0  0  0999 V2000
   -7.2496    3.8871   27.4508 C   0  0  0  0  0  0  0  0  0  0  0  0
   -7.6161    2.7143   27.1523 C   0  0  0  0  0  0  0  0  0  0  0  0
   -7.1619    1.8631   27.5232 C   0  0  0  0  0  0  0  0  0  0  0  0
   -8.0036    5.1085   27.2100 C   0  0  2  0  0  0  0  0  0  0  0  0
   -9.0764    5.1562   26.4023 C   0  0  0  0  0  0  0  0  0  0  0  0
   -9.5423    3.9741   25.8512 C   0  0  1  0  0  0  0  0  0  0  0  0
   -8.8464    2.7352   26.2619 C   0  0  0  0  0  0  0  0  0  0  0  0
   -7.5925    0.4293   27.3761 C   0  0  0  0  0  0  0  0  0  0  0  0
   -8.8064    0.3083   26.6947 C   0  0  0  0  0  0  0  0  0  0  0  0
   -9.4560    1.4926   26.0294 C   0  0  0  0  0  0  0  0  0  0  0  0
   -7.4629    6.4105   27.8320 C   0  0  0  0  0  0  0  0  0  0  0  0
  -10.6029    1.2761   25.2524 C   0  0  0  0  0  0  0  0  0  0  0  0
  -10.8223    0.1693   24.6153 C   0  0  0  0  0  0  0  0  0  0  0  0
  -11.9209   -0.0006   23.7695 C   0  0  0  0  0  0  0  0  0  0  0  0
  -12.6815    1.1068   23.4830 C   0  0  0  0  0  0  0  0  0  0  0  0
  -12.4245    2.3347   24.0569 C   0  0  0  0  0  0  0  0  0  0  0  0
  -11.3676    2.4833   24.9209 C   0  0  0  0  0  0  0  0  0  0  0  0
  -10.7473    3.7623   25.1199 C   0  0  0  0  0  0  0  0  0  0  0  0
  1  2  1  0
  1  4  1  0
  4  5  1  0
  6  5  1  1
  6  7  1  0
  4 11  1  6
 10 12  1  0
  6 18  1  0
 17 18  1  0
 12 13  2  0
 13 14  1  0
 14 15  2  0
 15 16  1  0
 16 17  2  0
 17 12  1  0
  2  3  2  0
  3  8  1  0
  8  9  2  0
  9 10  1  0
 10  7  2  0
  7  2  1  0
M  END
$$$$
