No_6884-complexes_sdf/6BKW-FPZ/2024-09-17-14-21-01/
     RDKit          3D

 20 22  0  0  0  0  0  0  0  0999 V2000
   -7.7129    4.2099   27.0854 C   0  0  0  0  0  0  0  0  0  0  0  0
   -7.7814    5.1722   27.8972 C   0  0  0  0  0  0  0  0  0  0  0  0
   -8.8255    3.2789   27.1191 C   0  0  0  0  0  0  0  0  0  0  0  0
   -9.9209    3.4734   27.9101 C   0  0  0  0  0  0  0  0  0  0  0  0
  -10.9752    2.5069   28.0201 C   0  0  0  0  0  0  0  0  0  0  0  0
   -8.9991    5.6269   28.5996 C   0  0  0  0  0  0  0  0  0  0  0  0
   -9.9928    4.6433   28.6536 C   0  0  0  0  0  0  0  0  0  0  0  0
  -11.7134    2.3337   27.0213 C   0  0  0  0  0  0  0  0  0  0  0  0
  -11.6953    2.2510   25.9362 C   0  0  0  0  0  0  0  0  0  0  0  0
  -12.7249    1.9607   24.9321 C   0  0  0  0  0  0  0  0  0  0  0  0
  -13.9493    1.7485   25.4356 C   0  0  0  0  0  0  0  0  0  0  0  0
  -13.2308    1.9357   27.4815 C   0  0  0  0  0  0  0  0  0  0  0  0
  -14.2000    1.6791   26.6742 C   0  0  0  0  0  0  0  0  0  0  0  0
   -8.6898    2.1366   26.3412 N   0  0  0  0  0  0  0  0  0  0  0  0
   -7.9966    0.9723   26.6070 C   0  0  0  0  0  0  0  0  0  0  0  0
   -7.8436   -0.0430   25.7662 C   0  0  0  0  0  0  0  0  0  0  0  0
   -8.6247   -0.1235   24.6809 C   0  0  0  0  0  0  0  0  0  0  0  0
   -9.1718    1.1445   24.1796 C   0  0  0  0  0  0  0  0  0  0  0  0
   -9.2180    2.1818   25.0282 C   0  0  0  0  0  0  0  0  0  0  0  0
  -10.8872    1.7690   29.1298 O   0  0  0  0  0  0  0  0  0  0  0  0
  4  5  1  0
  5  8  1  0
  3 14  1  0
 14 15  1  0
 16 17  1  0
 14 19  1  0
 18 19  1  0
  5 20  2  0
 15 16  1  0
 17 18  1  0
  1  2  2  0
  2  6  1  0
  6  7  2  0
  7  4  1  0
  4  3  2  0
  3  1  1  0
  8  9  2  0
  9 10  1  0
 10 11  2  0
 11 13  1  0
 13 12  2  0
 12  8  1  0
M  END
$$$$
