No_6062-complexes_sdf/6BKW-FPZ/2024-09-17-14-21-01/
     RDKit          3D

 21 22  0  0  0  0  0  0  0  0999 V2000
   -7.9040    3.9820   27.1177 C   0  0  0  0  0  0  0  0  0  0  0  0
   -9.0711    4.3164   27.0630 C   0  0  0  0  0  0  0  0  0  0  0  0
   -9.5294    5.4517   27.7215 C   0  0  0  0  0  0  0  0  0  0  0  0
   -6.9328    4.7309   27.8881 C   0  0  0  0  0  0  0  0  0  0  0  0
   -7.3377    5.8421   28.5537 C   0  0  0  0  0  0  0  0  0  0  0  0
   -8.6411    6.2609   28.3972 C   0  0  0  0  0  0  0  0  0  0  0  0
  -10.1659    3.5880   26.3758 C   0  0  0  0  0  0  0  0  0  0  0  0
  -11.1593    2.9565   26.8773 C   0  0  0  0  0  0  0  0  0  0  0  0
  -11.2825    2.7931   28.1316 C   0  0  0  0  0  0  0  0  0  0  0  0
  -12.3120    2.0372   28.8519 C   0  0  0  0  0  0  0  0  0  0  0  0
   -9.9344    3.6509   24.8814 C   0  0  0  0  0  0  0  0  0  0  0  0
  -10.6658    3.0178   23.9124 C   0  0  0  0  0  0  0  0  0  0  0  0
  -11.7909    2.4003   24.5735 C   0  0  0  0  0  0  0  0  0  0  0  0
  -12.0786    2.2974   25.9423 C   0  0  0  0  0  0  0  0  0  0  0  0
  -12.3612    0.8163   28.6248 N   0  0  0  0  0  0  0  0  0  0  0  0
  -11.3465    0.0474   28.5961 C   0  0  0  0  0  0  0  0  0  0  0  0
  -11.1482   -0.8034   27.6100 C   0  0  0  0  0  0  0  0  0  0  0  0
   -9.8724   -1.2700   27.3144 C   0  0  0  0  0  0  0  0  0  0  0  0
   -9.5814   -2.1494   26.3001 C   0  0  0  0  0  0  0  0  0  0  0  0
  -10.6912   -2.5492   25.5067 C   0  0  0  0  0  0  0  0  0  0  0  0
  -11.9459   -2.1182   25.7767 C   0  0  0  0  0  0  0  0  0  0  0  0
  2  7  1  0
  9 10  1  0
 10 15  1  0
 15 16  1  0
 16 17  2  3
 17 18  1  0
 18 19  2  3
 19 20  1  0
 20 21  2  0
  9  8  1  0
  1  2  2  0
  2  3  1  0
  3  6  2  0
  6  5  1  0
  5  4  2  0
  4  1  1  0
  7  8  2  0
  8 14  1  0
 14 13  2  0
 13 12  1  0
 12 11  2  0
 11  7  1  0
M  END
$$$$
