No_6506-complexes_sdf/6BKW-FPZ/2024-09-17-14-21-01/
     RDKit          3D

  4  3  0  0  0  0  0  0  0  0999 V2000
   -7.9040    3.9820   27.1177 C   0  0  0  0  0  0  0  0  0  0  0  0
   -7.8663    4.8694   27.9238 C   0  0  0  0  0  0  0  0  0  0  0  0
   -9.0122    3.7325   26.1961 C   0  0  0  0  0  0  0  0  0  0  0  0
   -9.1497    2.5449   25.4699 C   0  0  0  0  0  0  0  0  0  0  0  0
  1  2  3  0
  1  3  1  0
  3  4  1  0
M  END
$$$$
