No_6356-complexes_sdf/6BKW-FPZ/2024-09-17-14-21-01/
     RDKit          3D

 13 13  0  0  0  0  0  0  0  0999 V2000
   -7.2496    3.8871   27.4508 C   0  0  0  0  0  0  0  0  0  0  0  0
   -8.5096    4.0291   27.2770 C   0  0  0  0  0  0  0  0  0  0  0  0
   -9.3451    2.8786   26.9046 C   0  0  0  0  0  0  0  0  0  0  0  0
   -8.7138    1.7135   26.7541 C   0  0  0  0  0  0  0  0  0  0  0  0
   -6.5992    2.6226   27.4994 C   0  0  0  0  0  0  0  0  0  0  0  0
   -9.4771    0.5241   26.4549 C   0  0  0  0  0  0  0  0  0  0  0  0
   -7.3785    1.5256   27.1389 C   0  0  0  0  0  0  0  0  0  0  0  0
   -9.1590    5.3891   27.3466 C   0  0  0  0  0  0  0  0  0  0  0  0
   -8.3740    6.3658   27.0886 F   0  0  0  0  0  0  0  0  0  0  0  0
   -9.6952    5.6972   28.6291 F   0  0  0  0  0  0  0  0  0  0  0  0
  -10.2247    5.4695   26.5004 F   0  0  0  0  0  0  0  0  0  0  0  0
  -10.6116    0.4181   26.3309 C   0  0  0  0  0  0  0  0  0  0  0  0
  -11.3585   -0.7856   25.9602 C   0  0  0  0  0  0  0  0  0  0  0  0
  4  6  1  0
  2  8  1  0
  8  9  1  0
  8 10  1  0
  8 11  1  0
  6 12  2  3
 12 13  1  0
  1  2  2  0
  2  3  1  0
  3  4  2  0
  4  7  1  0
  7  5  2  0
  5  1  1  0
M  END
$$$$
