No_6985-complexes_sdf/6BKW-FPZ/2024-09-17-14-21-01/
     RDKit          3D

 29 33  0  0  0  0  0  0  0  0999 V2000
   -7.7129    4.2099   27.0854 C   0  0  0  0  0  0  0  0  0  0  0  0
   -8.2112    3.0637   26.9225 C   0  0  0  0  0  0  0  0  0  0  0  0
   -8.4224    5.2106   27.8516 C   0  0  0  0  0  0  0  0  0  0  0  0
   -9.5628    2.7160   27.4089 C   0  0  0  0  0  0  0  0  0  0  0  0
  -10.2428    3.7496   28.1155 C   0  0  0  0  0  0  0  0  0  0  0  0
   -7.8060    6.5538   27.9901 C   0  0  0  0  0  0  0  0  0  0  0  0
   -9.7056    4.9853   28.3055 C   0  0  0  0  0  0  0  0  0  0  0  0
  -10.0724    1.3719   27.2484 C   0  0  0  0  0  0  0  0  0  0  0  0
   -9.2426    0.3828   27.1621 C   0  0  0  0  0  0  0  0  0  0  0  0
   -7.8921    0.6764   27.1787 C   0  0  0  0  0  0  0  0  0  0  0  0
   -7.3283    1.9378   26.9298 C   0  0  0  0  0  0  0  0  0  0  0  0
  -11.6247    3.4963   28.6208 C   0  0  0  0  0  0  0  0  0  0  0  0
  -12.6742    4.3001   28.4015 C   0  0  0  0  0  0  0  0  0  0  0  0
  -13.9556    4.1108   28.8938 C   0  0  0  0  0  0  0  0  0  0  0  0
  -14.1198    2.9535   29.7120 C   0  0  0  0  0  0  0  0  0  0  0  0
  -13.1165    2.0484   29.9316 C   0  0  0  0  0  0  0  0  0  0  0  0
  -11.8655    2.3172   29.4274 C   0  0  0  0  0  0  0  0  0  0  0  0
   -6.9530   -0.5513   26.9101 C   0  0  0  0  0  0  0  0  0  0  0  0
   -7.1569   -1.5258   27.3619 C   0  0  0  0  0  0  0  0  0  0  0  0
   -6.2195   -2.5846   27.4091 C   0  0  0  0  0  0  0  0  0  0  0  0
   -4.9852   -2.3984   26.7656 C   0  0  0  0  0  0  0  0  0  0  0  0
   -4.7233   -1.1553   26.1798 C   0  0  0  0  0  0  0  0  0  0  0  0
   -5.6231   -0.1513   26.3482 C   0  0  0  0  0  0  0  0  0  0  0  0
  -15.0256    5.1070   28.6670 C   0  0  0  0  0  0  0  0  0  0  0  0
  -15.3409    5.9311   29.5168 N   0  0  0  0  0  0  0  0  0  0  0  0
  -16.1706    7.0519   29.1710 C   0  0  0  0  0  0  0  0  0  0  0  0
  -16.5260    7.1470   27.8257 C   0  0  0  0  0  0  0  0  0  0  0  0
  -15.3721    5.5074   27.2898 C   0  0  0  0  0  0  0  0  0  0  0  0
  -16.0573    6.4634   26.8762 C   0  0  0  0  0  0  0  0  0  0  0  0
  3  6  1  0
  5 12  1  0
 10 18  1  0
 14 24  1  0
 12 13  2  0
 13 14  1  0
 14 15  2  0
 15 16  1  0
 16 17  2  0
 17 12  1  0
  4  8  1  0
  8  9  2  0
  9 10  1  0
 10 11  2  0
 11  2  1  0
 18 19  2  0
 19 20  1  0
 20 21  2  0
 21 22  1  0
 22 23  2  0
 23 18  1  0
 24 25  2  0
 25 26  1  0
 26 27  2  0
 27 29  1  0
 29 28  2  0
 28 24  1  0
  1  2  2  0
  2  4  1  0
  4  5  2  0
  5  7  1  0
  7  3  2  0
  3  1  1  0
M  END
$$$$
