No_6075-complexes_sdf/6BKW-FPZ/2024-09-17-14-21-01/
     RDKit          3D

 28 30  0  0  0  0  0  0  0  0999 V2000
   -7.2496    3.8871   27.4508 C   0  0  0  0  0  0  0  0  0  0  0  0
   -7.6161    2.7143   27.1523 C   0  0  0  0  0  0  0  0  0  0  0  0
   -8.8302    2.4659   26.5056 C   0  0  0  0  0  0  0  0  0  0  0  0
   -8.1584    5.0090   27.3234 C   0  0  0  0  0  0  0  0  0  0  0  0
   -7.8138    6.3406   27.7108 C   0  0  0  0  0  0  0  0  0  0  0  0
   -9.7360    3.4989   26.3532 C   0  0  0  0  0  0  0  0  0  0  0  0
   -9.3942    4.8432   26.7521 C   0  0  0  0  0  0  0  0  0  0  0  0
   -9.1857    1.0968   26.1448 C   0  0  0  0  0  0  0  0  0  0  0  0
   -9.6085    0.1642   26.8718 N   0  0  0  0  0  0  0  0  0  0  0  0
   -9.7092   -1.0878   26.7567 C   0  0  0  0  0  0  0  0  0  0  0  0
   -8.9595    0.7327   24.9386 O   0  0  0  0  0  0  0  0  0  0  0  0
   -8.7284   -1.8598   26.9674 C   0  0  0  0  0  0  0  0  0  0  0  0
   -7.7952   -1.5660   27.8601 C   0  0  0  0  0  0  0  0  0  0  0  0
   -6.5509   -1.8544   28.2493 C   0  0  0  0  0  0  0  0  0  0  0  0
   -5.7520   -1.2205   29.2333 C   0  0  0  0  0  0  0  0  0  0  0  0
   -5.1179   -1.7708   30.1451 C   0  0  0  0  0  0  0  0  0  0  0  0
   -4.5982   -3.0262   30.0005 C   0  0  0  0  0  0  0  0  0  0  0  0
   -5.1621   -3.7184   28.9300 C   0  0  0  0  0  0  0  0  0  0  0  0
   -6.1604   -3.2703   28.1417 C   0  0  0  0  0  0  0  0  0  0  0  0
   -8.4661    7.4724   27.1059 C   0  0  0  0  0  0  0  0  0  0  0  0
   -4.5540   -0.6815   31.1387 C   0  0  0  0  0  0  0  0  0  0  0  0
   -4.5827   -0.9298   32.4211 N   0  0  0  0  0  0  0  0  0  0  0  0
   -5.6550   -0.9180   33.1548 C   0  0  0  0  0  0  0  0  0  0  0  0
   -5.5751   -1.3269   34.5515 C   0  0  0  0  0  0  0  0  0  0  0  0
   -3.3869   -1.2854   33.0830 C   0  0  0  0  0  0  0  0  0  0  0  0
   -3.2293   -1.6008   34.4045 C   0  0  0  0  0  0  0  0  0  0  0  0
   -4.3893   -1.5270   35.1870 C   0  0  0  0  0  0  0  0  0  0  0  0
   -4.0576    0.3881   30.7397 O   0  0  0  0  0  0  0  0  0  0  0  0
  4  5  1  0
  3  8  1  0
  8  9  1  0
  9 10  1  0
  8 11  2  0
 10 12  1  0
 12 13  2  3
 13 14  1  0
  5 20  1  0
 16 21  1  0
 21 22  1  0
 22 23  1  0
 22 25  1  0
 24 27  1  0
 26 27  1  0
 21 28  2  0
 23 24  1  0
 26 25  1  0
  1  2  2  0
  2  3  1  0
  3  6  2  0
  6  7  1  0
  7  4  2  0
  4  1  1  0
 14 15  2  0
 15 16  1  0
 16 17  2  0
 17 18  1  0
 18 19  2  0
 19 14  1  0
M  END
$$$$
