No_6087-complexes_sdf/6BKW-FPZ/2024-09-17-14-21-01/
     RDKit          3D

 30 32  0  0  0  0  0  0  0  0999 V2000
   -7.7129    4.2099   27.0854 C   0  0  0  0  0  0  0  0  0  0  0  0
   -8.9133    4.4736   27.0998 C   0  0  0  0  0  0  0  0  0  0  0  0
   -9.7135    3.9633   26.0300 C   0  0  0  0  0  0  0  0  0  0  0  0
   -6.8655    4.8824   28.1822 C   0  0  0  0  0  0  0  0  0  0  0  0
   -9.2221    2.8459   25.3619 C   0  0  0  0  0  0  0  0  0  0  0  0
   -8.0164    2.2957   25.7889 C   0  0  0  0  0  0  0  0  0  0  0  0
   -7.3052    2.9474   26.8072 C   0  0  0  0  0  0  0  0  0  0  0  0
  -10.0330    2.1843   24.3790 C   0  0  0  0  0  0  0  0  0  0  0  0
   -9.7030    1.0090   23.9743 C   0  0  0  0  0  0  0  0  0  0  0  0
  -10.3930    0.3968   22.8930 C   0  0  0  0  0  0  0  0  0  0  0  0
  -11.4366    1.0883   22.2517 C   0  0  0  0  0  0  0  0  0  0  0  0
  -10.9840    2.7960   23.6318 C   0  0  0  0  0  0  0  0  0  0  0  0
  -11.6787    2.3428   22.6397 C   0  0  0  0  0  0  0  0  0  0  0  0
   -9.4637    5.8358   27.5754 C   0  0  0  0  0  0  0  0  0  0  0  0
  -12.7971    3.0621   21.9538 C   0  0  1  0  0  0  0  0  0  0  0  0
  -13.8850    3.2009   22.6896 C   0  0  0  0  0  0  0  0  0  0  0  0
  -14.8942    4.0061   22.2425 C   0  0  0  0  0  0  0  0  0  0  0  0
  -16.0605    4.3251   23.0499 C   0  0  0  0  0  0  0  0  0  0  0  0
  -16.0304    4.1971   24.0990 C   0  0  0  0  0  0  0  0  0  0  0  0
  -14.9939    3.5167   24.8949 C   0  0  0  0  0  0  0  0  0  0  0  0
  -13.8931    3.1418   24.1835 C   0  0  0  0  0  0  0  0  0  0  0  0
  -12.1619    4.2995   21.4107 C   0  0  0  0  0  0  0  0  0  0  0  0
  -13.2908    2.2512   20.6982 C   0  0  0  0  0  0  0  0  0  0  0  0
  -13.9023    1.3096   20.7079 C   0  0  0  0  0  0  0  0  0  0  0  0
  -14.3425    0.6384   19.5284 C   0  0  0  0  0  0  0  0  0  0  0  0
  -13.1486    3.1575   19.5217 C   0  0  0  0  0  0  0  0  0  0  0  0
  -15.0247   -0.5155   19.5784 C   0  0  0  0  0  0  0  0  0  0  0  0
  -15.4221   -1.0687   18.3544 C   0  0  0  0  0  0  0  0  0  0  0  0
  -15.1297   -0.4342   17.1957 C   0  0  0  0  0  0  0  0  0  0  0  0
  -14.4349    0.7117   17.1626 C   0  0  0  0  0  0  0  0  0  0  0  0
  1  4  1  0
  5  8  1  0
  2 14  1  0
 13 15  1  0
 15 16  1  0
 15 22  1  6
 15 23  1  0
 23 24  2  3
 24 25  1  0
 23 26  1  0
 25 27  2  3
 27 28  1  0
 28 29  2  3
 29 30  1  0
 16 17  2  0
 17 18  1  0
 18 19  2  0
 19 20  1  0
 20 21  2  0
 21 16  1  0
  8  9  2  0
  9 10  1  0
 10 11  2  0
 11 13  1  0
 13 12  2  0
 12  8  1  0
  1  2  2  0
  2  3  1  0
  3  5  2  0
  5  6  1  0
  6  7  2  0
  7  1  1  0
M  END
$$$$
