No_6126-complexes_sdf/6BKW-FPZ/2024-09-17-14-21-01/
     RDKit          3D

 29 32  0  0  0  0  0  0  0  0999 V2000
   -7.2496    3.8871   27.4508 C   0  0  0  0  0  0  0  0  0  0  0  0
   -8.5096    4.0291   27.2770 C   0  0  0  0  0  0  0  0  0  0  0  0
   -9.2677    5.1714   27.5773 C   0  0  0  0  0  0  0  0  0  0  0  0
   -6.5550    4.9883   28.1029 C   0  0  0  0  0  0  0  0  0  0  0  0
   -8.5395    6.2425   28.0724 C   0  0  0  0  0  0  0  0  0  0  0  0
   -7.1794    6.1173   28.2629 C   0  0  0  0  0  0  0  0  0  0  0  0
   -9.1269    2.6836   26.7561 C   0  0  0  0  0  0  0  0  0  0  0  0
   -9.8552    2.0876   27.4283 C   0  0  0  0  0  0  0  0  0  0  0  0
  -10.2890    0.7445   27.1533 C   0  0  0  0  0  0  0  0  0  0  0  0
   -9.8914    0.2353   25.9500 C   0  0  0  0  0  0  0  0  0  0  0  0
   -9.0932    0.9795   25.1068 C   0  0  0  0  0  0  0  0  0  0  0  0
   -8.6569    2.2777   25.5188 C   0  0  0  0  0  0  0  0  0  0  0  0
   -8.6819    0.5701   23.9103 F   0  0  0  0  0  0  0  0  0  0  0  0
  -11.1904   -0.0459   28.0628 C   0  0  0  0  0  0  0  0  0  0  0  0
  -10.7537   -1.0789   28.6129 N   0  0  0  0  0  0  0  0  0  0  0  0
  -11.6035   -1.7631   29.4596 C   0  0  0  0  0  0  0  0  0  0  0  0
  -12.8277   -1.2085   29.7498 C   0  0  0  0  0  0  0  0  0  0  0  0
  -12.4352    0.4439   28.5126 C   0  0  0  0  0  0  0  0  0  0  0  0
  -13.1848   -0.1049   29.3038 N   0  0  0  0  0  0  0  0  0  0  0  0
  -10.5298    5.2412   27.3224 F   0  0  0  0  0  0  0  0  0  0  0  0
  -11.1489   -2.9497   30.0178 N   0  0  0  0  0  0  0  0  0  0  0  0
   -9.8767   -3.2461   29.9092 C   0  0  0  0  0  0  0  0  0  0  0  0
   -9.4080   -4.4588   30.6949 C   0  0  0  0  0  0  0  0  0  0  0  0
   -9.9365   -4.7992   31.6491 C   0  0  0  0  0  0  0  0  0  0  0  0
  -11.3223   -4.4028   31.9043 C   0  0  0  0  0  0  0  0  0  0  0  0
  -11.7689   -3.3215   31.2073 C   0  0  0  0  0  0  0  0  0  0  0  0
  -13.0984   -2.8530   31.5584 C   0  0  0  0  0  0  0  0  0  0  0  0
  -11.5329   -2.3829   31.9303 C   0  0  0  0  0  0  0  0  0  0  0  0
  -13.5909   -1.7833   30.6642 C   0  0  0  0  0  0  0  0  0  0  0  0
  2  7  1  0
 11 13  1  0
  9 14  1  0
  3 20  1  0
 16 21  1  0
 21 22  2  3
 22 23  1  0
 23 24  1  0
 24 25  1  0
 25 26  2  3
 26 27  1  0
 26 28  1  0
 17 29  1  0
 27 29  1  0
 14 15  2  0
 15 16  1  0
 16 17  2  0
 17 19  1  0
 19 18  2  0
 18 14  1  0
  1  2  2  0
  2  3  1  0
  3  5  2  0
  5  6  1  0
  6  4  2  0
  4  1  1  0
  7  8  2  0
  8  9  1  0
  9 10  2  0
 10 11  1  0
 11 12  2  0
 12  7  1  0
M  END
$$$$
