No_6382-complexes_sdf/6BKW-FPZ/2024-09-17-14-21-01/
     RDKit          3D

 12 12  0  0  0  0  0  0  0  0999 V2000
   -7.9040    3.9820   27.1177 C   0  0  0  0  0  0  0  0  0  0  0  0
   -7.8663    4.8694   27.9238 C   0  0  0  0  0  0  0  0  0  0  0  0
   -7.4698    2.6989   27.4277 C   0  0  0  0  0  0  0  0  0  0  0  0
   -7.9683    1.5964   26.8266 C   0  0  0  0  0  0  0  0  0  0  0  0
   -8.9447    1.7923   25.8533 C   0  0  0  0  0  0  0  0  0  0  0  0
   -9.4405    2.9988   25.5757 C   0  0  0  0  0  0  0  0  0  0  0  0
   -8.9424    4.1117   26.2388 C   0  0  0  0  0  0  0  0  0  0  0  0
   -7.0149    5.0235   28.9341 N   0  0  0  0  0  0  0  0  0  0  0  0
   -8.5039    6.1764   27.7789 N   0  0  0  0  0  0  0  0  0  0  0  0
  -10.4072    3.1673   24.4518 C   0  0  0  0  0  0  0  0  0  0  0  0
  -10.9707    4.3730   24.1630 C   0  0  0  0  0  0  0  0  0  0  0  0
  -11.8856    4.5830   23.1333 C   0  0  0  0  0  0  0  0  0  0  0  0
  2  8  1  0
  2  9  1  0
  6 10  1  0
 10 11  2  3
 11 12  1  0
  2  1  1  0
  1  3  2  0
  3  4  1  0
  4  5  2  0
  5  6  1  0
  6  7  2  0
  7  1  1  0
M  END
$$$$
