No_6821-complexes_sdf/6BKW-FPZ/2024-09-17-14-21-01/
     RDKit          3D

 27 30  0  0  0  0  0  0  0  0999 V2000
   -7.2496    3.8871   27.4508 C   0  0  0  0  0  0  0  0  0  0  0  0
   -7.9379    4.9063   27.8518 C   0  0  0  0  0  0  0  0  0  0  0  0
   -9.3376    4.8647   27.7795 C   0  0  0  0  0  0  0  0  0  0  0  0
   -7.8544    2.6294   27.0414 C   0  0  0  0  0  0  0  0  0  0  0  0
   -7.1614    1.5016   26.7557 C   0  0  0  0  0  0  0  0  0  0  0  0
   -9.2736    2.6261   27.0257 C   0  0  0  0  0  0  0  0  0  0  0  0
  -10.0045    3.7370   27.4296 C   0  0  0  0  0  0  0  0  0  0  0  0
   -6.0443    1.1337   27.6286 C   0  0  0  0  0  0  0  0  0  0  0  0
   -5.3533   -0.0271   27.5386 C   0  0  0  0  0  0  0  0  0  0  0  0
   -5.8479   -0.9550   26.6679 C   0  0  0  0  0  0  0  0  0  0  0  0
   -7.5727    0.4010   26.0486 C   0  0  0  0  0  0  0  0  0  0  0  0
   -6.9621   -0.7485   25.9354 C   0  0  0  0  0  0  0  0  0  0  0  0
   -4.1196   -0.2214   28.3389 C   0  0  0  0  0  0  0  0  0  0  0  0
   -3.0104   -0.2735   27.9383 C   0  0  0  0  0  0  0  0  0  0  0  0
   -4.3502   -0.3283   29.8430 C   0  0  0  0  0  0  0  0  0  0  0  0
   -3.3187   -0.4766   30.7552 C   0  0  0  0  0  0  0  0  0  0  0  0
   -1.7981   -0.4702   28.8119 C   0  0  0  0  0  0  0  0  0  0  0  0
   -3.4777   -0.6068   32.1416 C   0  0  0  0  0  0  0  0  0  0  0  0
   -1.9926   -0.5701   30.1361 C   0  0  0  0  0  0  0  0  0  0  0  0
   -4.5952   -0.6165   32.5756 O   0  0  0  0  0  0  0  0  0  0  0  0
   -2.4162   -0.6060   32.9967 N   0  0  0  0  0  0  0  0  0  0  0  0
   -2.6038   -0.6486   34.4413 C   0  0  0  0  0  0  0  0  0  0  0  0
   -1.9894   -1.7622   35.0760 C   0  0  0  0  0  0  0  0  0  0  0  0
   -2.2818   -1.8973   36.2342 C   0  0  0  0  0  0  0  0  0  0  0  0
   -3.0259   -0.9508   36.9351 C   0  0  0  0  0  0  0  0  0  0  0  0
   -3.6630    0.1129   36.2974 C   0  0  0  0  0  0  0  0  0  0  0  0
   -3.4107    0.1873   35.0050 C   0  0  0  0  0  0  0  0  0  0  0  0
  4  5  1  0
  9 13  1  0
 16 18  1  0
 18 20  2  0
 18 21  1  0
 21 22  1  0
  5  8  2  0
  8  9  1  0
  9 10  2  0
 10 12  1  0
 12 11  2  0
 11  5  1  0
 13 14  2  0
 14 17  1  0
 17 19  2  0
 19 16  1  0
 16 15  2  0
 15 13  1  0
 22 23  2  0
 23 24  1  0
 24 25  2  0
 25 26  1  0
 26 27  2  0
 27 22  1  0
  1  2  2  0
  2  3  1  0
  3  7  2  0
  7  6  1  0
  6  4  2  0
  4  1  1  0
M  END
$$$$
