No_6950-complexes_sdf/6BKW-FPZ/2024-09-17-14-21-01/
     RDKit          3D

 15 16  0  0  0  0  0  0  0  0999 V2000
   -7.9040    3.9820   27.1177 C   0  0  0  0  0  0  0  0  0  0  0  0
   -8.2057    2.8231   26.8733 C   0  0  0  0  0  0  0  0  0  0  0  0
   -9.2962    2.4021   26.1155 C   0  0  0  0  0  0  0  0  0  0  0  0
   -8.8403    4.9695   26.9329 C   0  0  0  0  0  0  0  0  0  0  0  0
   -8.6045    6.4001   27.2264 C   0  0  0  0  0  0  0  0  0  0  0  0
  -10.2136    3.3588   25.8175 C   0  0  0  0  0  0  0  0  0  0  0  0
   -9.9623    4.6882   26.1367 C   0  0  0  0  0  0  0  0  0  0  0  0
   -7.2341    1.7589   27.2085 N   0  0  0  0  0  0  0  0  0  0  0  0
   -7.3128    0.4683   26.9215 C   0  0  0  0  0  0  0  0  0  0  0  0
   -6.1987   -0.3304   27.3768 C   0  0  0  0  0  0  0  0  0  0  0  0
   -6.1353   -1.6781   27.2684 C   0  0  0  0  0  0  0  0  0  0  0  0
   -5.0639   -2.3807   27.7558 C   0  0  0  0  0  0  0  0  0  0  0  0
   -3.9866   -1.7397   28.4080 C   0  0  0  0  0  0  0  0  0  0  0  0
   -4.0419   -0.3141   28.5544 C   0  0  0  0  0  0  0  0  0  0  0  0
   -5.1336    0.3729   28.1040 C   0  0  0  0  0  0  0  0  0  0  0  0
  4  5  1  0
  2  8  1  0
  8  9  2  3
  9 10  1  0
  1  2  2  0
  2  3  1  0
  3  6  2  0
  6  7  1  0
  7  4  2  0
  4  1  1  0
 10 11  2  0
 11 12  1  0
 12 13  2  0
 13 14  1  0
 14 15  2  0
 15 10  1  0
M  END
$$$$
