No_6333-complexes_sdf/6BKW-FPZ/2024-09-17-14-21-01/
     RDKit          3D

 17 19  0  0  0  0  0  0  0  0999 V2000
   -7.7129    4.2099   27.0854 C   0  0  0  0  0  0  0  0  0  0  0  0
   -8.2112    3.0637   26.9225 C   0  0  0  0  0  0  0  0  0  0  0  0
   -9.4446    2.8304   26.1868 C   0  0  0  0  0  0  0  0  0  0  0  0
   -8.4697    5.3956   26.7238 C   0  0  0  0  0  0  0  0  0  0  0  0
   -9.6172    5.2111   25.9513 C   0  0  0  0  0  0  0  0  0  0  0  0
  -10.0424    3.9782   25.6873 C   0  0  0  0  0  0  0  0  0  0  0  0
   -7.5056    1.8167   27.4088 C   0  0  0  0  0  0  0  0  0  0  0  0
   -8.0423    0.5366   27.2920 C   0  0  0  0  0  0  0  0  0  0  0  0
   -9.3616    0.5005   26.6856 C   0  0  0  0  0  0  0  0  0  0  0  0
   -9.9941    1.5661   26.0723 C   0  0  0  0  0  0  0  0  0  0  0  0
   -7.7766    6.6705   27.0175 C   0  0  0  0  0  0  0  0  0  0  0  0
   -6.9915    6.8032   27.8914 O   0  0  0  0  0  0  0  0  0  0  0  0
   -8.3146    7.7848   26.5160 O   0  0  0  0  0  0  0  0  0  0  0  0
   -7.3999   -0.5594   27.8887 C   0  0  0  0  0  0  0  0  0  0  0  0
   -6.0498   -0.4931   28.2052 C   0  0  0  0  0  0  0  0  0  0  0  0
   -5.3140    0.6256   27.9785 C   0  0  0  0  0  0  0  0  0  0  0  0
   -6.0469    1.8978   27.6793 C   0  0  0  0  0  0  0  0  0  0  0  0
  2  7  1  0
  8  9  1  0
  3 10  1  0
  9 10  1  0
  4 11  1  0
 11 12  1  0
 11 13  2  0
  7  8  2  0
  8 14  1  0
 14 15  2  0
 15 16  1  0
 16 17  2  0
 17  7  1  0
  1  2  2  0
  2  3  1  0
  3  6  2  0
  6  5  1  0
  5  4  2  0
  4  1  1  0
M  END
$$$$
