No_6343-complexes_sdf/6BKW-FPZ/2024-09-17-14-21-01/
     RDKit          3D

 40 44  0  0  0  0  0  0  0  0999 V2000
   -7.2496    3.8871   27.4508 C   0  0  0  0  0  0  0  0  0  0  0  0
   -7.6161    2.7143   27.1523 C   0  0  0  0  0  0  0  0  0  0  0  0
   -8.8302    2.4659   26.5056 C   0  0  0  0  0  0  0  0  0  0  0  0
   -8.1584    5.0090   27.3234 C   0  0  0  0  0  0  0  0  0  0  0  0
   -9.3788    4.7965   26.7695 C   0  0  0  0  0  0  0  0  0  0  0  0
   -9.7028    3.5649   26.3276 C   0  0  0  0  0  0  0  0  0  0  0  0
   -6.7182    1.5519   27.3631 C   0  0  0  0  0  0  0  0  0  0  0  0
   -7.0500    0.2083   27.2450 C   0  0  0  0  0  0  0  0  0  0  0  0
   -6.2063   -0.7601   27.5521 C   0  0  0  0  0  0  0  0  0  0  0  0
   -4.9394   -0.4352   28.1041 C   0  0  0  0  0  0  0  0  0  0  0  0
   -4.5672    0.8802   28.2862 C   0  0  0  0  0  0  0  0  0  0  0  0
   -5.4068    1.8597   27.9844 C   0  0  0  0  0  0  0  0  0  0  0  0
   -7.6942    6.3581   27.7806 C   0  0  0  0  0  0  0  0  0  0  0  0
  -11.0008    3.3427   25.6431 C   0  0  0  0  0  0  0  0  0  0  0  0
  -12.1241    2.9933   26.3165 C   0  0  0  0  0  0  0  0  0  0  0  0
  -11.0824    3.4660   24.2197 C   0  0  0  0  0  0  0  0  0  0  0  0
  -11.0504    2.6767   23.4719 C   0  0  0  0  0  0  0  0  0  0  0  0
  -10.9487    2.9223   22.0495 C   0  0  0  0  0  0  0  0  0  0  0  0
  -10.9910    4.2451   21.5545 C   0  0  0  0  0  0  0  0  0  0  0  0
  -10.9730    5.2641   22.5081 C   0  0  0  0  0  0  0  0  0  0  0  0
  -10.9408    4.9969   23.8152 C   0  0  0  0  0  0  0  0  0  0  0  0
  -12.7647    3.8737   27.0177 C   0  0  0  0  0  0  0  0  0  0  0  0
  -13.9713    3.6617   27.7522 C   0  0  0  0  0  0  0  0  0  0  0  0
  -14.5002    2.4082   27.5558 C   0  0  0  0  0  0  0  0  0  0  0  0
  -12.7728    1.7847   26.1160 C   0  0  0  0  0  0  0  0  0  0  0  0
  -13.9458    1.4798   26.7493 C   0  0  0  0  0  0  0  0  0  0  0  0
   -4.1599   -1.6679   28.5210 C   0  0  2  0  0  0  0  0  0  0  0  0
   -3.3494   -1.6376   29.5185 C   0  0  0  0  0  0  0  0  0  0  0  0
   -3.5652   -0.7334   30.5635 C   0  0  0  0  0  0  0  0  0  0  0  0
   -3.9681   -1.2553   31.8752 C   0  0  0  0  0  0  0  0  0  0  0  0
   -3.0562   -1.0653   32.7920 C   0  0  0  0  0  0  0  0  0  0  0  0
   -2.0771   -1.7627   33.1308 C   0  0  0  0  0  0  0  0  0  0  0  0
   -1.0742   -1.4589   34.1625 C   0  0  0  0  0  0  0  0  0  0  0  0
    0.1380   -2.0030   34.2156 C   0  0  0  0  0  0  0  0  0  0  0  0
    0.4293   -3.0272   33.2847 C   0  0  0  0  0  0  0  0  0  0  0  0
   -0.4251   -3.3077   32.2829 C   0  0  0  0  0  0  0  0  0  0  0  0
   -1.5668   -2.6123   32.1476 C   0  0  0  0  0  0  0  0  0  0  0  0
   -3.6286   -2.2816   27.3043 C   0  0  0  0  0  0  0  0  0  0  0  0
   -5.1739   -1.8301   31.9881 C   0  0  0  0  0  0  0  0  0  0  0  0
   -5.8002   -2.6632   31.1824 C   0  0  0  0  0  0  0  0  0  0  0  0
  2  7  1  0
  4 13  1  0
  6 14  1  0
 14 15  1  0
 14 16  1  0
 10 27  1  0
 27 28  1  0
 28 29  1  0
 29 30  1  0
 30 31  1  0
 27 38  1  6
 30 39  1  0
 39 40  1  0
 31 32  1  0
 32 33  2  0
 33 34  1  0
 34 35  2  0
 35 36  1  0
 36 37  2  0
 37 32  1  0
  1  2  2  0
  2  3  1  0
  3  6  2  0
  6  5  1  0
  5  4  2  0
  4  1  1  0
  7  8  2  0
  8  9  1  0
  9 10  2  0
 10 11  1  0
 11 12  2  0
 12  7  1  0
 15 22  2  0
 22 23  1  0
 23 24  2  0
 24 26  1  0
 26 25  2  0
 25 15  1  0
 16 17  2  0
 17 18  1  0
 18 19  2  0
 19 20  1  0
 20 21  2  0
 21 16  1  0
M  END
$$$$
