No_6061-complexes_sdf/6BKW-FPZ/2024-09-17-14-21-01/
     RDKit          3D

 36 40  0  0  0  0  0  0  0  0999 V2000
   -7.2496    3.8871   27.4508 C   0  0  0  0  0  0  0  0  0  0  0  0
   -8.5096    4.0291   27.2770 C   0  0  0  0  0  0  0  0  0  0  0  0
   -9.3451    2.8786   26.9046 C   0  0  0  0  0  0  0  0  0  0  0  0
   -6.6065    2.5680   27.5073 C   0  0  0  0  0  0  0  0  0  0  0  0
   -7.3970    1.4834   27.2271 C   0  0  0  0  0  0  0  0  0  0  0  0
   -8.7029    1.6398   26.9934 C   0  0  0  0  0  0  0  0  0  0  0  0
   -9.1106    5.3702   27.2076 C   0  0  0  0  0  0  0  0  0  0  0  0
  -10.4242    5.6786   27.4667 C   0  0  0  0  0  0  0  0  0  0  0  0
   -8.2289    6.4834   26.9174 C   0  0  0  0  0  0  0  0  0  0  0  0
   -8.2638    7.7754   27.1457 C   0  0  0  0  0  0  0  0  0  0  0  0
   -6.7457    0.1844   27.2566 C   0  0  0  0  0  0  0  0  0  0  0  0
   -5.4789    0.0754   27.8060 C   0  0  0  0  0  0  0  0  0  0  0  0
   -4.8419   -1.1760   27.9418 C   0  0  0  0  0  0  0  0  0  0  0  0
   -5.4510   -2.2308   27.3541 C   0  0  0  0  0  0  0  0  0  0  0  0
   -7.2082   -1.0010   26.8314 C   0  0  0  0  0  0  0  0  0  0  0  0
   -6.6519   -2.1716   26.8386 C   0  0  0  0  0  0  0  0  0  0  0  0
   -3.4564   -1.1915   28.5723 C   0  0  1  0  0  0  0  0  0  0  0  0
   -2.5318   -0.6543   27.7777 C   0  0  0  0  0  0  0  0  0  0  0  0
   -3.4314   -0.5139   29.9740 C   0  0  0  0  0  0  0  0  0  0  0  0
   -3.1710   -1.4444   31.0170 C   0  0  0  0  0  0  0  0  0  0  0  0
   -4.0699   -1.9255   31.5058 C   0  0  0  0  0  0  0  0  0  0  0  0
   -3.9314   -2.9687   32.3943 C   0  0  0  0  0  0  0  0  0  0  0  0
   -2.6804   -3.1684   33.0258 C   0  0  0  0  0  0  0  0  0  0  0  0
   -1.5938   -2.4297   32.5860 C   0  0  0  0  0  0  0  0  0  0  0  0
   -1.7764   -1.5190   31.5557 C   0  0  0  0  0  0  0  0  0  0  0  0
   -3.0831   -2.7142   28.7831 C   0  0  0  0  0  0  0  0  0  0  0  0
   -2.3051   -3.2046   27.9475 C   0  0  2  0  0  0  0  0  0  0  0  0
   -1.7416   -1.1706   26.7531 C   0  0  0  0  0  0  0  0  0  0  0  0
   -1.9150   -4.6520   28.1260 C   0  0  0  0  0  0  0  0  0  0  0  0
   -1.4828   -2.5140   26.9810 C   0  0  0  0  0  0  0  0  0  0  0  0
   -3.5537    0.6964   30.1167 O   0  0  0  0  0  0  0  0  0  0  0  0
   -1.7974   -5.1349   29.3416 C   0  0  0  0  0  0  0  0  0  0  0  0
   -1.4898   -6.2346   29.7800 C   0  0  0  0  0  0  0  0  0  0  0  0
   -1.1966   -7.2081   28.7757 C   0  0  0  0  0  0  0  0  0  0  0  0
   -1.2806   -6.8234   27.4701 C   0  0  0  0  0  0  0  0  0  0  0  0
   -1.5890   -5.5195   27.1120 C   0  0  0  0  0  0  0  0  0  0  0  0
  2  7  1  0
  7  8  2  0
  7  9  1  0
  9 10  1  0
  5 11  1  0
 13 17  1  0
 17 18  1  0
 17 19  1  1
 19 20  1  0
 17 26  1  0
 27 29  1  1
 27 30  1  0
 28 30  1  0
 19 31  2  0
 18 28  1  0
 27 26  1  0
  1  2  2  0
  2  3  1  0
  3  6  2  0
  6  5  1  0
  5  4  2  0
  4  1  1  0
 29 32  2  0
 32 33  1  0
 33 34  2  0
 34 35  1  0
 35 36  2  0
 36 29  1  0
 11 12  2  0
 12 13  1  0
 13 14  2  0
 14 16  1  0
 16 15  2  0
 15 11  1  0
 20 21  2  0
 21 22  1  0
 22 23  2  0
 23 24  1  0
 24 25  2  0
 25 20  1  0
M  END
$$$$
