No_6936-complexes_sdf/6BKW-FPZ/2024-09-17-14-21-01/
     RDKit          3D

 29 31  0  0  0  0  0  0  0  0999 V2000
   -7.7129    4.2099   27.0854 C   0  0  0  0  0  0  0  0  0  0  0  0
   -8.9133    4.4736   27.0998 C   0  0  0  0  0  0  0  0  0  0  0  0
   -9.7937    3.7368   26.2091 C   0  0  0  0  0  0  0  0  0  0  0  0
   -7.2496    2.8647   26.8496 C   0  0  0  0  0  0  0  0  0  0  0  0
   -8.1891    1.9790   26.3454 C   0  0  0  0  0  0  0  0  0  0  0  0
   -9.4252    2.4603   26.0121 C   0  0  0  0  0  0  0  0  0  0  0  0
   -9.1215    6.0211   27.2510 C   0  0  0  0  0  0  0  0  0  0  0  0
   -8.2443    6.9920   26.8595 C   0  0  0  0  0  0  0  0  0  0  0  0
   -7.7713    0.5763   26.1648 C   0  0  0  0  0  0  0  0  0  0  0  0
   -8.0121    0.0918   25.0991 O   0  0  0  0  0  0  0  0  0  0  0  0
   -7.1970   -0.0830   27.1620 O   0  0  0  0  0  0  0  0  0  0  0  0
   -7.7105    7.8893   26.9446 N   0  0  0  0  0  0  0  0  0  0  0  0
   -6.3694   -0.9876   27.0578 C   0  0  0  0  0  0  0  0  0  0  0  0
   -5.6020   -1.3225   27.8470 C   0  0  0  0  0  0  0  0  0  0  0  0
   -4.6834   -1.6260   28.2478 C   0  0  0  0  0  0  0  0  0  0  0  0
   -4.0041   -0.8639   29.3498 C   0  0  0  0  0  0  0  0  0  0  0  0
   -4.4179   -0.3711   30.3361 C   0  0  0  0  0  0  0  0  0  0  0  0
   -3.6627    0.4166   31.3358 C   0  0  0  0  0  0  0  0  0  0  0  0
   -2.9995   -0.1035   32.2397 N   0  0  0  0  0  0  0  0  0  0  0  0
   -3.2967   -1.1599   32.9102 C   0  0  0  0  0  0  0  0  0  0  0  0
   -2.3624   -1.7483   33.5400 C   0  0  0  0  0  0  0  0  0  0  0  0
   -4.6382   -1.4716   33.0480 C   0  0  0  0  0  0  0  0  0  0  0  0
   -4.9675   -2.5256   33.9582 C   0  0  0  0  0  0  0  0  0  0  0  0
   -2.6656   -2.8259   34.4798 C   0  0  0  0  0  0  0  0  0  0  0  0
   -4.0051   -3.1920   34.6512 C   0  0  0  0  0  0  0  0  0  0  0  0
   -2.4965   -1.2409   29.4351 C   0  0  0  0  0  0  0  0  0  0  0  0
   -1.8846   -1.7858   28.2366 C   0  0  0  0  0  0  0  0  0  0  0  0
   -2.6466   -2.2559   27.2885 C   0  0  0  0  0  0  0  0  0  0  0  0
   -3.7763   -2.1685   27.3247 C   0  0  0  0  0  0  0  0  0  0  0  0
  2  7  1  0
  7  8  1  0
  5  9  1  0
  9 10  2  0
  9 11  1  0
  8 12  3  0
 11 13  1  0
 13 14  2  3
 14 15  1  0
 16 17  1  0
 17 18  1  0
 18 19  1  0
 19 20  1  0
 20 21  2  0
 21 24  1  0
 24 25  2  0
 25 23  1  0
 23 22  2  0
 22 20  1  0
  1  2  2  0
  2  3  1  0
  3  6  2  0
  6  5  1  0
  5  4  2  0
  4  1  1  0
 15 16  1  0
 16 26  2  0
 26 27  1  0
 27 28  2  0
 28 29  1  0
 29 15  2  0
M  END
$$$$
