No_6211-complexes_sdf/6BKW-FPZ/2024-09-17-14-21-01/
     RDKit          3D

 23 27  0  0  0  0  0  0  0  0999 V2000
   -7.9040    3.9820   27.1177 C   0  0  0  0  0  0  0  0  0  0  0  0
   -7.8663    4.8694   27.9238 C   0  0  0  0  0  0  0  0  0  0  0  0
   -9.0491    3.8523   26.2542 C   0  0  0  0  0  0  0  0  0  0  0  0
   -8.7661    5.9491   27.9690 C   0  0  0  0  0  0  0  0  0  0  0  0
   -9.9295    4.8502   26.2323 C   0  0  0  0  0  0  0  0  0  0  0  0
   -9.8077    5.9288   27.0933 C   0  0  0  0  0  0  0  0  0  0  0  0
   -6.8002    2.6256   27.2024 Cl  0  0  0  0  0  0  0  0  0  0  0  0
   -9.1191    2.6984   25.2948 C   0  0  0  0  0  0  0  0  0  0  0  0
  -10.1024    2.8266   24.2781 C   0  0  0  0  0  0  0  0  0  0  0  0
  -10.3076    1.6856   23.4965 C   0  0  0  0  0  0  0  0  0  0  0  0
  -11.2134    1.7588   22.3676 C   0  0  0  0  0  0  0  0  0  0  0  0
  -11.9088    2.9948   22.1901 C   0  0  0  0  0  0  0  0  0  0  0  0
  -11.6855    4.0607   22.9963 C   0  0  0  0  0  0  0  0  0  0  0  0
  -10.7304    4.0119   24.0296 C   0  0  0  0  0  0  0  0  0  0  0  0
  -10.6845    5.0934   24.9660 N   0  0  0  0  0  0  0  0  0  0  0  0
   -9.5766    0.4190   23.6217 C   0  0  0  0  0  0  0  0  0  0  0  0
   -8.5355   -0.4201   22.5968 Br  0  0  0  0  0  0  0  0  0  0  0  0
   -9.0840    0.1500   24.9448 C   0  0  0  0  0  0  0  0  0  0  0  0
   -8.8179    1.3574   25.8495 C   0  0  0  0  0  0  0  0  0  0  0  0
  -11.3464    0.6894   21.4806 C   0  0  0  0  0  0  0  0  0  0  0  0
  -11.8865    0.9277   20.3225 C   0  0  0  0  0  0  0  0  0  0  0  0
  -12.2608    2.0767   19.9210 C   0  0  0  0  0  0  0  0  0  0  0  0
  -12.4745    3.2108   20.8690 C   0  0  0  0  0  0  0  0  0  0  0  0
  1  7  1  0
  3  8  1  0
  5 15  1  0
 14 15  1  0
 16 17  1  0
 12 23  2  0
 23 22  1  0
 22 21  2  0
 21 20  1  0
 20 11  2  0
 10 11  1  0
 11 12  1  0
 12 13  1  0
 13 14  2  0
 14  9  1  0
  8  9  2  0
  9 10  1  0
 10 16  2  0
 16 18  1  0
 18 19  2  0
 19  8  1  0
  1  2  2  0
  2  4  1  0
  4  6  2  0
  6  5  1  0
  5  3  2  0
  3  1  1  0
M  END
$$$$
