No_6861-complexes_sdf/6BKW-FPZ/2024-09-17-14-21-01/
     RDKit          3D

 25 27  0  0  0  0  0  0  0  0999 V2000
   -7.9040    3.9820   27.1177 C   0  0  0  0  0  0  0  0  0  0  0  0
   -7.8663    4.8694   27.9238 C   0  0  1  0  0  0  0  0  0  0  0  0
   -9.0491    3.8523   26.2542 C   0  0  0  0  0  0  0  0  0  0  0  0
   -9.9827    3.2456   26.6451 C   0  0  0  0  0  0  0  0  0  0  0  0
   -9.1410    5.3568   28.4612 C   0  0  0  0  0  0  0  0  0  0  0  0
  -10.5003    4.9280   28.1786 C   0  0  0  0  0  0  0  0  0  0  0  0
  -10.8724    4.1156   27.2691 C   0  0  0  0  0  0  0  0  0  0  0  0
   -6.8459    5.3444   28.5674 O   0  0  0  0  0  0  0  0  0  0  0  0
  -12.3316    3.6826   27.3551 C   0  0  0  0  0  0  0  0  0  0  0  0
  -13.0019    2.9962   28.0984 C   0  0  0  0  0  0  0  0  0  0  0  0
  -12.3212    2.3159   29.1139 C   0  0  0  0  0  0  0  0  0  0  0  0
  -13.0002    1.3732   30.0295 C   0  0  0  0  0  0  0  0  0  0  0  0
  -13.9688    1.0410   29.7472 C   0  0  0  0  0  0  0  0  0  0  0  0
  -14.8834    1.5866   28.7536 C   0  0  0  0  0  0  0  0  0  0  0  0
  -14.3172    2.4959   27.9798 C   0  0  0  0  0  0  0  0  0  0  0  0
  -13.0529    4.3922   26.1821 C   0  0  0  0  0  0  0  0  0  0  0  0
  -14.2372    4.7781   26.2588 C   0  0  0  0  0  0  0  0  0  0  0  0
  -15.1296    3.9508   27.0464 C   0  0  0  0  0  0  0  0  0  0  0  0
  -10.7390    2.4192   25.4716 C   0  0  0  0  0  0  0  0  0  0  0  0
  -10.7167    2.8770   24.2267 C   0  0  0  0  0  0  0  0  0  0  0  0
  -11.1662    2.1757   23.1165 C   0  0  0  0  0  0  0  0  0  0  0  0
  -11.1321    2.7756   21.8863 C   0  0  0  0  0  0  0  0  0  0  0  0
  -10.5365    4.0743   21.6607 C   0  0  0  0  0  0  0  0  0  0  0  0
  -10.1809    4.7864   22.7957 C   0  0  0  0  0  0  0  0  0  0  0  0
  -10.2802    4.3148   24.0133 C   0  0  0  0  0  0  0  0  0  0  0  0
  1  2  1  0
  1  3  1  0
  3  4  2  0
  2  5  1  0
  5  6  1  0
  4  7  1  0
  6  7  2  0
  2  8  1  1
  7  9  1  0
  4 19  1  0
 19 20  2  3
 20 21  1  0
 21 22  2  3
 22 23  1  0
 23 24  2  3
 24 25  1  0
  9 10  1  0
 15 18  1  0
 18 17  2  0
 17 16  1  0
 16  9  2  0
 10 11  2  0
 11 12  1  0
 12 13  2  0
 13 14  1  0
 14 15  2  0
 15 10  1  0
M  END
$$$$
