No_677-complexes_sdf/6BKW-FPZ/2024-09-17-14-21-01/
     RDKit          3D

 35 41  0  0  0  0  0  0  0  0999 V2000
   -7.9040    3.9820   27.1177 C   0  0  0  0  0  0  0  0  0  0  0  0
   -9.0711    4.3164   27.0630 C   0  0  0  0  0  0  0  0  0  0  0  0
   -9.9692    3.7224   26.1073 C   0  0  0  0  0  0  0  0  0  0  0  0
   -6.9787    4.6761   28.1003 C   0  0  0  0  0  0  0  0  0  0  0  0
   -9.4538    2.6801   25.3673 C   0  0  0  0  0  0  0  0  0  0  0  0
   -8.1927    2.1957   25.6621 C   0  0  0  0  0  0  0  0  0  0  0  0
   -7.4333    2.8255   26.6299 C   0  0  0  0  0  0  0  0  0  0  0  0
  -10.3181    2.0008   24.3846 C   0  0  0  0  0  0  0  0  0  0  0  0
  -10.7358    2.6411   23.3159 C   0  0  0  0  0  0  0  0  0  0  0  0
  -11.4735    2.0086   22.2438 C   0  0  0  0  0  0  0  0  0  0  0  0
  -11.6287    0.6012   22.3603 C   0  0  0  0  0  0  0  0  0  0  0  0
  -10.4396    0.6125   24.2797 C   0  0  0  0  0  0  0  0  0  0  0  0
  -11.0707   -0.0469   23.3409 C   0  0  0  0  0  0  0  0  0  0  0  0
   -7.4835    5.8040   28.6531 N   0  0  0  0  0  0  0  0  0  0  0  0
   -5.8200    4.3116   28.2858 O   0  0  0  0  0  0  0  0  0  0  0  0
  -10.7550    4.1336   23.0135 C   0  0  0  0  0  0  0  0  0  0  0  0
  -11.8304    4.8303   23.1771 C   0  0  0  0  0  0  0  0  0  0  0  0
  -10.3238    4.5356   21.6872 C   0  0  0  0  0  0  0  0  0  0  0  0
  -11.3074   -1.7569   23.4470 Cl  0  0  0  0  0  0  0  0  0  0  0  0
  -12.6107    4.5662   24.4472 C   0  0  0  0  0  0  0  0  0  0  0  0
  -14.0244    4.8925   24.5632 C   0  0  0  0  0  0  0  0  0  0  0  0
  -14.6575    4.7024   25.7870 C   0  0  0  0  0  0  0  0  0  0  0  0
  -13.9205    4.1744   26.8932 C   0  0  0  0  0  0  0  0  0  0  0  0
  -12.6231    3.8371   26.7636 C   0  0  0  0  0  0  0  0  0  0  0  0
  -11.9640    4.0324   25.6268 C   0  0  0  0  0  0  0  0  0  0  0  0
  -11.1871    4.1438   26.0746 N   0  0  0  0  0  0  0  0  0  0  0  0
  -10.9833    5.6918   26.3926 C   0  0  0  0  0  0  0  0  0  0  0  0
   -9.6066    5.6550   27.1572 C   0  0  1  0  0  0  0  0  0  0  0  0
   -8.7949    6.3329   28.0853 C   0  0  0  0  0  0  0  0  0  0  0  0
  -14.7370    5.3907   23.4264 C   0  0  0  0  0  0  0  0  0  0  0  0
  -14.9318    4.8137   22.3580 C   0  0  0  0  0  0  0  0  0  0  0  0
  -15.6410    5.3726   21.2786 C   0  0  0  0  0  0  0  0  0  0  0  0
  -16.2117    6.6435   21.4628 C   0  0  0  0  0  0  0  0  0  0  0  0
  -16.0239    7.3470   22.6311 C   0  0  0  0  0  0  0  0  0  0  0  0
  -15.3189    6.7732   23.6806 C   0  0  0  0  0  0  0  0  0  0  0  0
  1  4  1  0
  5  8  1  0
  4 14  1  0
  4 15  2  0
  9 16  1  0
 16 17  2  0
 16 18  1  0
 13 19  1  0
 17 20  1  0
  3 26  1  0
 25 26  1  0
 26 27  1  0
  2 28  1  0
 14 29  1  0
 28 29  1  1
 21 30  1  0
 27 28  1  0
  1  7  2  0
  7  6  1  0
  6  5  2  0
  5  3  1  0
  3  2  2  0
  2  1  1  0
 30 31  2  0
 31 32  1  0
 32 33  2  0
 33 34  1  0
 34 35  2  0
 35 30  1  0
 20 21  2  0
 21 22  1  0
 22 23  2  0
 23 24  1  0
 24 25  2  0
 25 20  1  0
  8  9  2  0
  9 10  1  0
 10 11  2  0
 11 13  1  0
 13 12  2  0
 12  8  1  0
M  END
$$$$
