No_6136-complexes_sdf/6BKW-FPZ/2024-09-17-14-21-01/
     RDKit          3D

 24 26  0  0  0  0  0  0  0  0999 V2000
   -7.9040    3.9820   27.1177 C   0  0  0  0  0  0  0  0  0  0  0  0
   -7.8663    4.8694   27.9238 C   0  0  0  0  0  0  0  0  0  0  0  0
   -9.0491    3.8523   26.2542 C   0  0  0  0  0  0  0  0  0  0  0  0
   -8.7661    5.9491   27.9690 C   0  0  0  0  0  0  0  0  0  0  0  0
   -9.9295    4.8502   26.2323 C   0  0  0  0  0  0  0  0  0  0  0  0
   -9.8077    5.9288   27.0933 C   0  0  0  0  0  0  0  0  0  0  0  0
   -6.9996    2.9096   27.1565 O   0  0  0  0  0  0  0  0  0  0  0  0
   -7.2903    1.6969   27.7061 C   0  0  0  0  0  0  0  0  0  0  0  0
   -6.8683    0.5792   26.8893 C   0  0  2  0  0  0  0  0  0  0  0  0
   -7.6111   -0.4275   26.8156 C   0  0  1  0  0  0  0  0  0  0  0  0
   -7.2773   -1.5285   26.7412 N   0  0  0  0  0  0  0  0  0  0  0  0
   -6.0848   -1.8944   26.2415 C   0  0  0  0  0  0  0  0  0  0  0  0
   -5.0389   -0.9582   26.4234 C   0  0  0  0  0  0  0  0  0  0  0  0
   -5.5068    0.4165   26.7342 C   0  0  0  0  0  0  0  0  0  0  0  0
   -8.2926   -2.7635   26.7893 C   0  0  0  0  0  0  0  0  0  0  0  0
   -9.4667   -2.4149   27.0094 C   0  0  0  0  0  0  0  0  0  0  0  0
   -9.0447   -0.2033   27.2808 C   0  0  0  0  0  0  0  0  0  0  0  0
   -9.9491   -1.1469   27.4736 C   0  0  0  0  0  0  0  0  0  0  0  0
   -9.0931    2.7387   25.2583 C   0  0  0  0  0  0  0  0  0  0  0  0
  -10.0179    2.8602   24.1938 C   0  0  0  0  0  0  0  0  0  0  0  0
  -10.2693    1.7175   23.4863 C   0  0  0  0  0  0  0  0  0  0  0  0
  -10.0192    0.4997   24.0296 C   0  0  0  0  0  0  0  0  0  0  0  0
   -9.7975   -0.4366   23.3175 C   0  0  0  0  0  0  0  0  0  0  0  0
   -9.3328   -1.7625   23.8556 C   0  0  0  0  0  0  0  0  0  0  0  0
  1  7  1  0
  7  8  1  0
  9  8  1  1
  9 10  1  0
 10 11  1  0
 11 12  1  0
  9 14  1  0
 13 14  1  0
 11 15  1  0
 10 17  1  1
 16 18  1  0
  3 19  1  0
 19 20  2  3
 20 21  1  0
 21 22  1  0
 22 23  2  3
 23 24  1  0
 13 12  1  0
 17 18  1  0
 16 15  1  0
  1  2  2  0
  2  4  1  0
  4  6  2  0
  6  5  1  0
  5  3  2  0
  3  1  1  0
M  END
$$$$
