No_6921-complexes_sdf/6BKW-FPZ/2024-09-17-14-21-01/
     RDKit          3D

 14 15  0  0  0  0  0  0  0  0999 V2000
   -7.9040    3.9820   27.1177 C   0  0  0  0  0  0  0  0  0  0  0  0
   -7.8663    4.8694   27.9238 C   0  0  0  0  0  0  0  0  0  0  0  0
   -9.0953    3.1697   27.0532 C   0  0  0  0  0  0  0  0  0  0  0  0
  -10.1313    3.4052   27.8871 C   0  0  0  0  0  0  0  0  0  0  0  0
   -8.9489    5.3814   28.6671 C   0  0  0  0  0  0  0  0  0  0  0  0
  -11.3390    2.6523   27.8968 C   0  0  0  0  0  0  0  0  0  0  0  0
  -10.0808    4.5561   28.7249 C   0  0  0  0  0  0  0  0  0  0  0  0
  -12.5026    3.1695   28.2289 C   0  0  0  0  0  0  0  0  0  0  0  0
  -11.2198    1.2135   27.7734 C   0  0  0  0  0  0  0  0  0  0  0  0
  -12.1540    0.3868   28.2869 C   0  0  0  0  0  0  0  0  0  0  0  0
  -13.6134    2.3110   28.6375 C   0  0  0  0  0  0  0  0  0  0  0  0
  -13.3952    0.9438   28.6018 C   0  0  0  0  0  0  0  0  0  0  0  0
   -8.9954    1.8951   26.2821 C   0  0  0  0  0  0  0  0  0  0  0  0
   -9.9927    0.8949   26.7250 C   0  0  0  0  0  0  0  0  0  0  0  0
  4  6  1  0
  3 13  1  0
 13 14  2  0
  6  8  2  0
  8 11  1  0
 11 12  2  0
 12 10  1  0
 10  9  2  0
  9  6  1  0
  1  2  2  0
  2  5  1  0
  5  7  2  0
  7  4  1  0
  4  3  2  0
  3  1  1  0
M  END
$$$$
