No_6777-complexes_sdf/6BKW-FPZ/2024-09-17-14-21-01/
     RDKit          3D

 20 22  0  0  0  0  0  0  0  0999 V2000
   -7.9040    3.9820   27.1177 C   0  0  0  0  0  0  0  0  0  0  0  0
   -7.8663    4.8694   27.9238 C   0  0  0  0  0  0  0  0  0  0  0  0
   -9.0491    3.8523   26.2542 C   0  0  0  0  0  0  0  0  0  0  0  0
   -8.6020    5.9544   27.7203 C   0  0  0  0  0  0  0  0  0  0  0  0
   -9.7838    4.9247   26.0626 C   0  0  0  0  0  0  0  0  0  0  0  0
   -9.6083    6.0325   26.8808 C   0  0  0  0  0  0  0  0  0  0  0  0
   -7.0940    2.6787   27.3460 C   0  0  0  0  0  0  0  0  0  0  0  0
   -7.4613    1.3946   26.8803 C   0  0  0  0  0  0  0  0  0  0  0  0
   -8.7450    1.3368   26.3333 C   0  0  0  0  0  0  0  0  0  0  0  0
   -9.4725    2.5352   25.7886 C   0  0  0  0  0  0  0  0  0  0  0  0
   -6.6165    0.4018   27.2185 C   0  0  0  0  0  0  0  0  0  0  0  0
   -5.8813   -0.1236   26.4946 C   0  0  0  0  0  0  0  0  0  0  0  0
   -4.8704   -1.2281   26.7977 C   0  0  0  0  0  0  0  0  0  0  0  0
   -4.8505   -1.6321   28.1179 C   0  0  0  0  0  0  0  0  0  0  0  0
   -5.7611   -1.0561   29.0335 C   0  0  0  0  0  0  0  0  0  0  0  0
   -6.5816   -0.0519   28.6329 C   0  0  0  0  0  0  0  0  0  0  0  0
  -10.5276    2.3482   24.9351 C   0  0  0  0  0  0  0  0  0  0  0  0
  -11.6388    2.3222   25.2559 F   0  0  0  0  0  0  0  0  0  0  0  0
  -10.3411    3.3879   23.9728 F   0  0  0  0  0  0  0  0  0  0  0  0
  -10.2402    1.2546   24.1426 F   0  0  0  0  0  0  0  0  0  0  0  0
  8 11  1  0
 10 17  1  0
 17 18  1  0
 17 19  1  0
 17 20  1  0
 11 12  2  0
 12 13  1  0
 13 14  2  0
 14 15  1  0
 15 16  2  0
 16 11  1  0
  1  2  2  0
  2  4  1  0
  4  6  2  0
  6  5  1  0
  5  3  2  0
  1  3  1  0
  3 10  1  0
 10  9  2  0
  9  8  1  0
  8  7  2  0
  7  1  1  0
M  END
$$$$
