No_662-complexes_sdf/6BKW-FPZ/2024-09-17-14-21-01/
     RDKit          3D

 23 26  0  0  0  0  0  0  0  0999 V2000
   -7.9040    3.9820   27.1177 C   0  0  0  0  0  0  0  0  0  0  0  0
   -7.8663    4.8694   27.9238 C   0  0  0  0  0  0  0  0  0  0  0  0
   -7.4698    2.6989   27.4277 C   0  0  0  0  0  0  0  0  0  0  0  0
   -7.9683    1.5964   26.8266 C   0  0  0  0  0  0  0  0  0  0  0  0
   -8.9447    1.7923   25.8533 C   0  0  0  0  0  0  0  0  0  0  0  0
   -9.4405    2.9988   25.5757 C   0  0  2  0  0  0  0  0  0  0  0  0
  -10.4397    3.2630   24.6146 C   0  0  0  0  0  0  0  0  0  0  0  0
   -8.9100    4.1245   26.1959 C   0  0  0  0  0  0  0  0  0  0  0  0
   -8.1498    6.2592   27.6587 N   0  0  0  0  0  0  0  0  0  0  0  0
   -9.1628    6.6323   26.8618 C   0  0  0  0  0  0  0  0  0  0  0  0
   -9.5241    5.4416   25.9620 C   0  0  0  0  0  0  0  0  0  0  0  0
  -11.7057    3.1515   24.8995 C   0  0  0  0  0  0  0  0  0  0  0  0
  -12.1452    2.6812   26.1582 C   0  0  0  0  0  0  0  0  0  0  0  0
  -13.5618    2.6781   26.4851 C   0  0  0  0  0  0  0  0  0  0  0  0
  -13.9718    2.3044   27.7898 C   0  0  0  0  0  0  0  0  0  0  0  0
  -13.1718    2.3098   28.6534 C   0  0  0  0  0  0  0  0  0  0  0  0
  -11.7378    2.4355   28.5552 C   0  0  0  0  0  0  0  0  0  0  0  0
  -11.3071    2.6817   27.3447 C   0  0  0  0  0  0  0  0  0  0  0  0
   -9.3942    0.6488   25.0210 C   0  0  0  0  0  0  0  0  0  0  0  0
   -9.1384   -0.5799   25.4125 C   0  0  0  0  0  0  0  0  0  0  0  0
   -8.1115   -0.7704   26.4185 C   0  0  0  0  0  0  0  0  0  0  0  0
   -7.4917    0.2866   27.1489 C   0  0  0  0  0  0  0  0  0  0  0  0
   -9.9787    3.5210   23.2696 C   0  0  0  0  0  0  0  0  0  0  0  0
  1  3  1  0
  3  4  1  0
  5  6  1  0
  6  7  1  6
  6  8  1  0
  7 12  2  3
 12 13  1  0
  7 23  1  0
 13 14  2  0
 14 15  1  0
 15 16  2  0
 16 17  1  0
 17 18  2  0
 18 13  1  0
  1  2  2  0
  2  9  1  0
  9 10  2  0
 10 11  1  0
 11  8  2  0
  8  1  1  0
  4  5  2  0
  5 19  1  0
 19 20  2  0
 20 21  1  0
 21 22  2  0
 22  4  1  0
M  END
$$$$
