No_6049-complexes_sdf/6BKW-FPZ/2024-09-17-14-21-01/
     RDKit          3D

 20 22  0  0  0  0  0  0  0  0999 V2000
   -7.7129    4.2099   27.0854 C   0  0  0  0  0  0  0  0  0  0  0  0
   -7.7814    5.1722   27.8972 C   0  0  0  0  0  0  0  0  0  0  0  0
   -8.8776    3.8408   26.3416 C   0  0  0  0  0  0  0  0  0  0  0  0
   -9.9844    4.6492   26.4743 C   0  0  0  0  0  0  0  0  0  0  0  0
   -8.8026    6.0776   27.6563 C   0  0  0  0  0  0  0  0  0  0  0  0
   -9.8992    5.8309   26.9982 C   0  0  0  0  0  0  0  0  0  0  0  0
   -8.7019    2.5119   25.6717 C   0  0  0  0  0  0  0  0  0  0  0  0
   -8.3410    1.4231   26.4477 C   0  0  0  0  0  0  0  0  0  0  0  0
   -7.9060    0.2673   25.9205 C   0  0  0  0  0  0  0  0  0  0  0  0
   -8.2422    0.0737   24.5795 C   0  0  0  0  0  0  0  0  0  0  0  0
   -8.8296    1.0868   23.7915 C   0  0  0  0  0  0  0  0  0  0  0  0
   -9.0083    2.3389   24.3589 C   0  0  0  0  0  0  0  0  0  0  0  0
  -11.1514    4.2621   25.6195 C   0  0  0  0  0  0  0  0  0  0  0  0
  -12.3781    3.8454   26.5316 C   0  0  0  0  0  0  0  0  0  0  0  0
  -13.5453    3.7133   25.9750 C   0  0  0  0  0  0  0  0  0  0  0  0
  -14.6154    3.3846   26.8222 C   0  0  0  0  0  0  0  0  0  0  0  0
  -14.4145    3.2245   28.2140 C   0  0  0  0  0  0  0  0  0  0  0  0
  -13.1518    3.3906   28.7544 C   0  0  0  0  0  0  0  0  0  0  0  0
  -12.0868    3.7305   27.9466 C   0  0  0  0  0  0  0  0  0  0  0  0
  -11.3501    4.6037   24.5017 O   0  0  0  0  0  0  0  0  0  0  0  0
  3  7  1  0
  4 13  1  0
 13 14  1  0
 13 20  2  0
 14 15  2  0
 15 16  1  0
 16 17  2  0
 17 18  1  0
 18 19  2  0
 19 14  1  0
  1  2  2  0
  2  5  1  0
  5  6  2  0
  6  4  1  0
  4  3  2  0
  3  1  1  0
  7  8  2  0
  8  9  1  0
  9 10  2  0
 10 11  1  0
 11 12  2  0
 12  7  1  0
M  END
$$$$
