No_6001-complexes_sdf/6BKW-FPZ/2024-09-17-14-21-01/
     RDKit          3D

 25 28  0  0  0  0  0  0  0  0999 V2000
   -7.2496    3.8871   27.4508 C   0  0  0  0  0  0  0  0  0  0  0  0
   -7.6161    2.7143   27.1523 C   0  0  0  0  0  0  0  0  0  0  0  0
   -8.8302    2.4659   26.5056 C   0  0  0  0  0  0  0  0  0  0  0  0
   -8.1584    5.0089   27.3234 C   0  0  0  0  0  0  0  0  0  0  0  0
   -9.3788    4.7965   26.7695 C   0  0  0  0  0  0  0  0  0  0  0  0
   -9.7028    3.5649   26.3276 C   0  0  0  0  0  0  0  0  0  0  0  0
   -6.5671    1.3685   27.4084 Cl  0  0  0  0  0  0  0  0  0  0  0  0
   -7.7259    6.2172   27.7228 F   0  0  0  0  0  0  0  0  0  0  0  0
  -11.0217    3.5713   25.6300 C   0  0  2  0  0  0  0  0  0  0  0  0
  -11.3760    2.2864   25.0360 C   0  0  0  0  0  0  0  0  0  0  0  0
  -11.1640    2.1328   23.9931 C   0  0  0  0  0  0  0  0  0  0  0  0
  -10.6539    3.1764   23.0934 C   0  0  0  0  0  0  0  0  0  0  0  0
  -11.1478    4.0536   22.8716 C   0  0  0  0  0  0  0  0  0  0  0  0
  -11.4721    4.9910   24.1090 C   0  0  0  0  0  0  0  0  0  0  0  0
  -11.5157    4.6451   25.2502 N   0  0  0  0  0  0  0  0  0  0  0  0
  -11.0862    4.8529   21.7191 O   0  0  0  0  0  0  0  0  0  0  0  0
  -10.4816    4.2178   20.7068 C   0  0  0  0  0  0  0  0  0  0  0  0
  -10.1913    2.4578   21.7722 C   0  0  0  0  0  0  0  0  0  0  0  0
  -10.1103    3.1685   20.8927 C   0  0  0  0  0  0  0  0  0  0  0  0
  -11.8694    1.3980   26.0824 C   0  0  0  0  0  0  0  0  0  0  0  0
  -12.0868    1.6711   27.3096 C   0  0  0  0  0  0  0  0  0  0  0  0
  -12.5478    1.0116   28.3074 C   0  0  0  0  0  0  0  0  0  0  0  0
  -12.7359   -0.3564   28.1617 C   0  0  0  0  0  0  0  0  0  0  0  0
  -12.0933    0.0393   25.7721 C   0  0  0  0  0  0  0  0  0  0  0  0
  -12.5404   -0.8465   26.7914 C   0  0  0  0  0  0  0  0  0  0  0  0
  2  7  1  0
  4  8  1  0
  9  6  1  6
  9 10  1  0
 10 11  2  0
 11 12  1  0
 12 13  2  0
 13 14  1  0
  9 15  1  0
 14 15  2  0
 13 16  1  0
 16 17  1  0
 12 18  1  0
 17 19  2  0
 18 19  2  0
 10 20  1  0
  1  2  2  0
  2  3  1  0
  3  6  2  0
  6  5  1  0
  5  4  2  0
  4  1  1  0
 20 21  2  0
 21 22  1  0
 22 23  2  0
 23 25  1  0
 25 24  2  0
 24 20  1  0
M  END
$$$$
