No_638-complexes_sdf/6BKW-FPZ/2024-09-17-14-21-01/
     RDKit          3D

 19 21  0  0  0  0  0  0  0  0999 V2000
   -7.9040    3.9820   27.1177 C   0  0  0  0  0  0  0  0  0  0  0  0
   -7.8663    4.8694   27.9238 C   0  0  0  0  0  0  0  0  0  0  0  0
   -9.0501    3.8017   26.2617 C   0  0  0  0  0  0  0  0  0  0  0  0
  -10.0189    4.7608   26.3707 C   0  0  0  0  0  0  0  0  0  0  0  0
   -8.6973    5.9722   27.8968 C   0  0  0  0  0  0  0  0  0  0  0  0
   -9.8216    5.8946   27.1241 C   0  0  0  0  0  0  0  0  0  0  0  0
   -9.1437    2.6293   25.4175 C   0  0  0  0  0  0  0  0  0  0  0  0
  -10.1321    1.8510   25.6641 C   0  0  0  0  0  0  0  0  0  0  0  0
  -10.2309    0.6305   24.8265 C   0  0  0  0  0  0  0  0  0  0  0  0
  -11.2253   -0.2499   25.1652 C   0  0  0  0  0  0  0  0  0  0  0  0
  -11.8685   -0.0341   26.1416 C   0  0  0  0  0  0  0  0  0  0  0  0
  -11.1104    1.5479   26.7410 C   0  0  0  0  0  0  0  0  0  0  0  0
  -11.4293    2.1877   27.8940 C   0  0  0  0  0  0  0  0  0  0  0  0
  -12.5341    1.9011   28.6628 C   0  0  0  0  0  0  0  0  0  0  0  0
  -12.8044    2.7324   29.8182 C   0  0  0  0  0  0  0  0  0  0  0  0
  -13.9215    2.4828   30.5745 C   0  0  0  0  0  0  0  0  0  0  0  0
  -14.6733    1.3576   30.2931 C   0  0  0  0  0  0  0  0  0  0  0  0
  -14.4037    0.5545   29.2483 C   0  0  0  0  0  0  0  0  0  0  0  0
  -13.3311    0.7936   28.4612 C   0  0  0  0  0  0  0  0  0  0  0  0
  3  7  1  0
  7  8  2  3
  8  9  1  0
  9 10  1  0
 10 11  2  0
  8 12  1  0
 11 12  1  0
 12 13  1  0
 13 14  1  0
 14 15  2  0
 15 16  1  0
 16 17  2  0
 17 18  1  0
 18 19  2  0
 19 14  1  0
  1  2  2  0
  2  5  1  0
  5  6  2  0
  6  4  1  0
  4  3  2  0
  3  1  1  0
M  END
$$$$
