No_6115-complexes_sdf/6BKW-FPZ/2024-09-17-14-21-01/
     RDKit          3D

 24 27  0  0  0  0  0  0  0  0999 V2000
   -7.9040    3.9820   27.1177 C   0  0  0  0  0  0  0  0  0  0  0  0
   -8.2057    2.8231   26.8733 C   0  0  0  0  0  0  0  0  0  0  0  0
   -8.7463    4.9537   27.6708 C   0  0  0  0  0  0  0  0  0  0  0  0
  -10.0901    4.5164   28.0293 C   0  0  0  0  0  0  0  0  0  0  0  0
   -9.5729    2.3483   27.2382 C   0  0  0  0  0  0  0  0  0  0  0  0
  -10.4170    3.2421   27.8237 C   0  0  0  0  0  0  0  0  0  0  0  0
   -8.2984    6.3439   27.8789 C   0  0  0  0  0  0  0  0  0  0  0  0
   -9.8553    0.9095   27.0177 C   0  0  0  0  0  0  0  0  0  0  0  0
  -10.7928    0.4226   27.8400 C   0  0  0  0  0  0  0  0  0  0  0  0
  -11.7817    1.3027   28.4718 C   0  0  0  0  0  0  0  0  0  0  0  0
  -11.5549    2.6678   28.5316 C   0  0  0  0  0  0  0  0  0  0  0  0
   -8.8978    7.2287   26.7906 C   0  0  0  0  0  0  0  0  0  0  0  0
  -12.4852    3.5129   29.2759 C   0  0  0  0  0  0  0  0  0  0  0  0
  -13.4076    2.9929   30.1703 C   0  0  0  0  0  0  0  0  0  0  0  0
  -14.2600    3.8499   30.8720 C   0  0  0  0  0  0  0  0  0  0  0  0
  -14.5496    3.6122   32.1789 C   0  0  0  0  0  0  0  0  0  0  0  0
  -14.8656    4.6604   33.0657 C   0  0  0  0  0  0  0  0  0  0  0  0
  -15.4658    5.7804   32.4055 C   0  0  0  0  0  0  0  0  0  0  0  0
  -15.3697    5.9713   31.0649 C   0  0  0  0  0  0  0  0  0  0  0  0
  -14.6732    5.0380   30.2802 C   0  0  0  0  0  0  0  0  0  0  0  0
   -8.8851    0.0363   26.4813 C   0  0  0  0  0  0  0  0  0  0  0  0
   -9.1462   -1.0089   26.0669 C   0  0  0  0  0  0  0  0  0  0  0  0
  -10.4608   -1.4173   26.1372 C   0  0  0  0  0  0  0  0  0  0  0  0
  -11.3456   -0.9185   27.3443 C   0  0  0  0  0  0  0  0  0  0  0  0
  3  7  1  0
  7 12  1  0
 11 13  1  0
 13 14  2  3
 14 15  1  0
 15 16  2  0
 16 17  1  0
 17 18  2  0
 18 19  1  0
 19 20  2  0
 20 15  1  0
  6 11  2  0
 11 10  1  0
 10  9  2  0
  8  5  2  0
  8  9  1  0
  9 24  1  0
 24 23  2  0
 23 22  1  0
 22 21  2  0
 21  8  1  0
  1  2  2  0
  2  5  1  0
  5  6  1  0
  6  4  1  0
  4  3  2  0
  3  1  1  0
M  END
$$$$
