No_657-complexes_sdf/6BKW-FPZ/2024-09-17-14-21-01/
     RDKit          3D

 20 22  0  0  0  0  0  0  0  0999 V2000
   -7.9040    3.9820   27.1177 C   0  0  0  0  0  0  0  0  0  0  0  0
   -7.8663    4.8694   27.9238 C   0  0  0  0  0  0  0  0  0  0  0  0
   -9.0806    3.1428   27.1220 C   0  0  0  0  0  0  0  0  0  0  0  0
  -10.1072    3.3606   27.8219 C   0  0  0  0  0  0  0  0  0  0  0  0
   -8.4719    6.0392   27.5882 C   0  0  0  0  0  0  0  0  0  0  0  0
  -10.7890    4.6595   27.6659 C   0  0  0  0  0  0  0  0  0  0  0  0
  -10.0184    5.9139   27.9004 C   0  0  0  0  0  0  0  0  0  0  0  0
   -9.1084    1.9355   26.2294 C   0  0  0  0  0  0  0  0  0  0  0  0
   -8.2379    0.9296   26.5690 C   0  0  0  0  0  0  0  0  0  0  0  0
   -8.0437   -0.1583   25.7992 C   0  0  0  0  0  0  0  0  0  0  0  0
   -9.8144    1.8869   25.1236 C   0  0  0  0  0  0  0  0  0  0  0  0
   -9.6926    0.8375   24.2101 C   0  0  0  0  0  0  0  0  0  0  0  0
   -8.7993   -0.1894   24.5928 C   0  0  0  0  0  0  0  0  0  0  0  0
  -10.6762    3.0520   24.6759 C   0  0  0  0  0  0  0  0  0  0  0  0
  -10.6796    3.5937   23.5696 C   0  0  0  0  0  0  0  0  0  0  0  0
  -11.2430    4.4681   23.0308 C   0  0  0  0  0  0  0  0  0  0  0  0
  -11.0480    4.9446   21.6779 C   0  0  0  0  0  0  0  0  0  0  0  0
  -10.2737    4.1300   20.9234 C   0  0  0  0  0  0  0  0  0  0  0  0
   -9.6871    2.9920   21.3510 C   0  0  0  0  0  0  0  0  0  0  0  0
   -9.8164    2.6398   22.6584 C   0  0  0  0  0  0  0  0  0  0  0  0
  1  2  1  0
  1  3  1  0
  3  4  1  0
  2  5  1  0
  4  6  1  0
  5  7  1  0
  6  7  1  0
  3  8  1  0
 11 14  1  0
 14 15  1  0
 15 16  2  0
 16 17  1  0
 17 18  2  0
 18 19  1  0
 19 20  2  0
 20 15  1  0
  8  9  2  0
  9 10  1  0
 10 13  2  0
 13 12  1  0
 12 11  2  0
 11  8  1  0
M  END
$$$$
