No_6318-complexes_sdf/6BKW-FPZ/2024-09-17-14-21-01/
     RDKit          3D

 13 14  0  0  0  0  0  0  0  0999 V2000
   -7.9040    3.9820   27.1177 C   0  0  0  0  0  0  0  0  0  0  0  0
   -7.8663    4.8694   27.9238 C   0  0  0  0  0  0  0  0  0  0  0  0
   -7.4698    2.6989   27.4277 C   0  0  0  0  0  0  0  0  0  0  0  0
   -7.9683    1.5964   26.8266 C   0  0  0  0  0  0  0  0  0  0  0  0
   -7.5288    0.3101   27.1202 C   0  0  0  0  0  0  0  0  0  0  0  0
   -8.3245   -0.7895   26.7699 C   0  0  0  0  0  0  0  0  0  0  0  0
   -8.6045    6.0684   27.7548 C   0  0  0  0  0  0  0  0  0  0  0  0
   -9.3371   -0.5439   26.3378 C   0  0  0  0  0  0  0  0  0  0  0  0
   -9.3024    1.4673   26.3211 C   0  0  0  0  0  0  0  0  0  0  0  0
   -9.9972    0.5373   26.0394 C   0  0  0  0  0  0  0  0  0  0  0  0
   -9.0830    6.4452   26.4125 C   0  0  0  0  0  0  0  0  0  0  0  0
   -8.7828    4.2615   25.9680 C   0  0  0  0  0  0  0  0  0  0  0  0
   -9.2966    5.4181   25.6778 C   0  0  0  0  0  0  0  0  0  0  0  0
  1  3  1  0
  3  4  1  0
  1  2  2  0
  2  7  1  0
  7 11  2  0
 11 13  1  0
 13 12  2  0
 12  1  1  0
  4  5  2  0
  5  6  1  0
  6  8  2  0
  8 10  1  0
 10  9  2  0
  9  4  1  0
M  END
$$$$
