No_610-complexes_sdf/6BKW-FPZ/2024-09-17-14-21-01/
     RDKit          3D

 32 36  0  0  0  0  0  0  0  0999 V2000
   -7.9040    3.9820   27.1177 C   0  0  0  0  0  0  0  0  0  0  0  0
   -9.0711    4.3164   27.0630 C   0  0  0  0  0  0  0  0  0  0  0  0
   -9.5294    5.4517   27.7215 C   0  0  0  0  0  0  0  0  0  0  0  0
   -7.4336    2.7132   26.5681 C   0  0  0  0  0  0  0  0  0  0  0  0
   -8.2624    1.7597   26.6581 C   0  0  0  0  0  0  0  0  0  0  0  0
   -7.8422    0.4227   26.2422 C   0  0  0  0  0  0  0  0  0  0  0  0
   -9.9164    3.2353   26.8915 C   0  0  1  0  0  0  0  0  0  0  0  0
   -9.5467    1.9686   26.6483 C   0  0  0  0  0  0  0  0  0  0  0  0
   -8.2039   -0.2338   25.4761 C   0  0  0  0  0  0  0  0  0  0  0  0
   -9.3774    0.2752   24.6610 C   0  0  0  0  0  0  0  0  0  0  0  0
   -9.9634   -0.4263   23.5760 C   0  0  0  0  0  0  0  0  0  0  0  0
  -10.9397    0.1541   22.8403 C   0  0  0  0  0  0  0  0  0  0  0  0
  -10.2532    1.0837   25.6864 C   0  0  0  0  0  0  0  0  0  0  0  0
  -11.3908    1.4625   23.1142 C   0  0  0  0  0  0  0  0  0  0  0  0
  -12.4116    2.1286   22.4042 C   0  0  0  0  0  0  0  0  0  0  0  0
  -11.4520    3.3769   27.1760 C   0  0  0  0  0  0  0  0  0  0  0  0
  -12.1126    3.8114   26.0881 C   0  0  0  0  0  0  0  0  0  0  0  0
  -13.5038    4.0835   26.1549 C   0  0  0  0  0  0  0  0  0  0  0  0
  -14.1316    4.0523   27.4278 C   0  0  0  0  0  0  0  0  0  0  0  0
  -11.9582    3.3355   28.4432 C   0  0  0  0  0  0  0  0  0  0  0  0
  -13.3312    3.6555   28.5741 C   0  0  0  0  0  0  0  0  0  0  0  0
  -12.7190    3.4586   22.6615 C   0  0  0  0  0  0  0  0  0  0  0  0
  -13.6291    1.2793   22.3732 C   0  0  0  0  0  0  0  0  0  0  0  0
  -14.7406    1.8708   21.7486 C   0  0  0  0  0  0  0  0  0  0  0  0
  -11.5712    4.4584   22.7732 C   0  0  0  0  0  0  0  0  0  0  0  0
  -13.7807    4.0456   21.8380 C   0  0  0  0  0  0  0  0  0  0  0  0
  -14.9326    3.2772   21.7225 C   0  0  0  0  0  0  0  0  0  0  0  0
  -10.2881    4.3320   22.2770 C   0  0  0  0  0  0  0  0  0  0  0  0
   -9.7680   -1.9086   23.5075 C   0  0  0  0  0  0  0  0  0  0  0  0
  -11.3344   -0.4756   21.6507 C   0  0  0  0  0  0  0  0  0  0  0  0
  -11.3275   -1.8334   21.5792 C   0  0  0  0  0  0  0  0  0  0  0  0
  -10.3382   -2.4946   22.3706 C   0  0  0  0  0  0  0  0  0  0  0  0
  1  2  1  0
  2  3  2  0
  1  4  1  0
  4  5  1  0
  2  7  1  0
  7  8  1  0
 10 11  1  0
 12 14  1  0
  7 16  1  1
 22 25  1  0
 25 28  1  0
 14 15  1  0
 11 12  2  0
 12 30  1  0
 30 31  2  0
 31 32  1  0
 32 29  2  0
 29 11  1  0
  5  6  2  0
  6  9  1  0
  9 10  2  0
 10 13  1  0
 13  8  2  0
  8  5  1  0
 15 22  2  0
 22 26  1  0
 26 27  2  0
 27 24  1  0
 24 23  2  0
 23 15  1  0
 16 17  2  0
 17 18  1  0
 18 19  2  0
 19 21  1  0
 21 20  2  0
 20 16  1  0
M  END
$$$$
