No_6237-complexes_sdf/6BKW-FPZ/2024-09-17-14-21-01/
     RDKit          3D

 23 24  0  0  0  0  0  0  0  0999 V2000
   -7.2496    3.8871   27.4508 C   0  0  0  0  0  0  0  0  0  0  0  0
   -7.9379    4.9063   27.8518 C   0  0  0  0  0  0  0  0  0  0  0  0
   -7.5112    6.1898   27.6280 C   0  0  0  0  0  0  0  0  0  0  0  0
   -7.4783    2.5435   27.5904 C   0  0  1  0  0  0  0  0  0  0  0  0
   -8.8194    2.2030   27.8879 C   0  0  0  0  0  0  0  0  0  0  0  0
   -9.7541    3.2253   28.0908 C   0  0  0  0  0  0  0  0  0  0  0  0
   -9.3329    4.6048   28.1115 C   0  0  0  0  0  0  0  0  0  0  0  0
   -6.5776    1.4950   27.1797 C   0  0  1  0  0  0  0  0  0  0  0  0
   -5.0718    1.5995   27.8758 Cl  0  0  0  0  0  0  0  0  0  0  0  0
   -6.9228    0.3552   26.4967 C   0  0  0  0  0  0  0  0  0  0  0  0
   -6.2451   -0.8016   26.7197 C   0  0  0  0  0  0  0  0  0  0  0  0
   -5.6089   -1.0686   27.6913 C   0  0  2  0  0  0  0  0  0  0  0  0
   -5.7918   -1.7551   28.4975 C   0  0  0  0  0  0  0  0  0  0  0  0
   -5.0161   -2.0147   29.7995 C   0  0  0  0  0  0  0  0  0  0  0  0
   -3.8886   -1.2303   29.9556 C   0  0  0  0  0  0  0  0  0  0  0  0
   -3.5499   -0.3893   28.9703 C   0  0  0  0  0  0  0  0  0  0  0  0
   -4.3872   -0.1936   27.9072 C   0  0  1  0  0  0  0  0  0  0  0  0
   -3.4734   -0.3101   26.7012 C   0  0  0  0  0  0  0  0  0  0  0  0
   -3.6443   -0.2135   28.6427 Cl  0  0  0  0  0  0  0  0  0  0  0  0
   -4.3477    0.3785   26.6108 O   0  0  0  0  0  0  0  0  0  0  0  0
   -5.1942    0.4264   28.5804 C   0  0  0  0  0  0  0  0  0  0  0  0
   -5.5656    0.4765   29.7444 O   0  0  0  0  0  0  0  0  0  0  0  0
   -6.5141    0.5566   29.0093 F   0  0  0  0  0  0  0  0  0  0  0  0
  1  2  1  0
  2  3  2  0
  4  1  1  6
  4  5  1  0
  5  6  1  0
  2  7  1  0
  6  7  1  0
  4  8  1  0
  8  9  1  1
  8 10  1  0
 10 11  1  0
 12 11  1  1
 13 14  1  0
 15 16  1  0
 12 17  1  0
 16 17  1  0
 17 18  1  6
 16 19  1  0
 18 20  1  0
 17 21  1  0
 21 22  1  0
 22 23  1  0
 12 13  1  0
 14 15  1  0
M  END
$$$$
