No_6835-complexes_sdf/6BKW-FPZ/2024-09-17-14-21-01/
     RDKit          3D

 40 40  0  0  0  0  0  0  0  0999 V2000
   -7.9040    3.9820   27.1177 C   0  0  0  0  0  0  0  0  0  0  0  0
   -7.8663    4.8694   27.9238 C   0  0  0  0  0  0  0  0  0  0  0  0
   -9.0953    3.1697   27.0532 C   0  0  0  0  0  0  0  0  0  0  0  0
  -10.1313    3.4052   27.8871 C   0  0  0  0  0  0  0  0  0  0  0  0
  -10.1178    4.5885   28.6885 C   0  0  0  0  0  0  0  0  0  0  0  0
   -8.9412    5.2994   28.7548 C   0  0  0  0  0  0  0  0  0  0  0  0
   -9.0691    1.9565   26.1695 C   0  0  1  0  0  0  0  0  0  0  0  0
   -9.4570    2.1430   24.8640 C   0  0  0  0  0  0  0  0  0  0  0  0
   -9.8901    3.4518   24.4613 C   0  0  0  0  0  0  0  0  0  0  0  0
  -10.0296    4.4990   25.3074 C   0  0  0  0  0  0  0  0  0  0  0  0
   -7.8067    1.2637   26.4501 C   0  0  0  0  0  0  0  0  0  0  0  0
   -8.0679   -0.0951   26.9142 C   0  0  0  0  0  0  0  0  0  0  0  0
   -7.7127   -1.0661   26.2312 C   0  0  2  0  0  0  0  0  0  0  0  0
   -6.7386   -1.1351   25.4757 C   0  0  0  0  0  0  0  0  0  0  0  0
  -11.1555    2.4407   28.0780 C   0  0  0  0  0  0  0  0  0  0  0  0
  -10.4139    3.5288   23.0569 C   0  0  0  0  0  0  0  0  0  0  0  0
   -8.6311   -2.2432   26.1640 C   0  0  0  0  0  0  0  0  0  0  0  0
  -10.8594    1.2882   28.3623 F   0  0  0  0  0  0  0  0  0  0  0  0
  -11.9586    2.8820   29.1478 F   0  0  0  0  0  0  0  0  0  0  0  0
  -11.9629    2.4154   26.9917 F   0  0  0  0  0  0  0  0  0  0  0  0
   -9.4682   -2.5286   27.2061 C   0  0  0  0  0  0  0  0  0  0  0  0
   -9.2010   -3.3737   28.0865 C   0  0  0  0  0  0  0  0  0  0  0  0
   -8.4684   -4.1480   28.2604 C   0  0  0  0  0  0  0  0  0  0  0  0
   -7.5323   -4.4412   28.6672 N   0  0  0  0  0  0  0  0  0  0  0  0
   -6.9582   -3.6339   29.6070 C   0  0  0  0  0  0  0  0  0  0  0  0
   -5.6587   -3.1749   29.5441 C   0  0  0  0  0  0  0  0  0  0  0  0
   -5.2770   -2.0085   30.1377 C   0  0  0  0  0  0  0  0  0  0  0  0
   -4.2185   -1.1852   29.7423 C   0  0  0  0  0  0  0  0  0  0  0  0
   -3.9600    0.1325   30.2970 C   0  0  0  0  0  0  0  0  0  0  0  0
   -3.3800   -1.6500   28.6533 C   0  0  0  0  0  0  0  0  0  0  0  0
   -2.3332   -0.8610   28.2124 C   0  0  0  0  0  0  0  0  0  0  0  0
   -1.4664   -1.3569   27.4891 C   0  0  0  0  0  0  0  0  0  0  0  0
   -5.4930   -0.9063   25.8774 C   0  0  0  0  0  0  0  0  0  0  0  0
   -4.2938   -0.9852   25.0440 C   0  0  0  0  0  0  0  0  0  0  0  0
   -6.7813   -1.4100   24.0880 C   0  0  0  0  0  0  0  0  0  0  0  0
   -7.3572   -0.8322   23.2482 C   0  0  0  0  0  0  0  0  0  0  0  0
   -7.6615   -0.9766   21.9873 C   0  0  0  0  0  0  0  0  0  0  0  0
   -7.0595   -2.1264   21.3479 C   0  0  0  0  0  0  0  0  0  0  0  0
   -6.2658   -2.9382   22.1655 C   0  0  0  0  0  0  0  0  0  0  0  0
   -6.0936   -2.6163   23.4994 C   0  0  0  0  0  0  0  0  0  0  0  0
  3  7  1  0
  7  8  1  6
  8  9  1  0
  9 10  1  0
  7 11  1  0
 11 12  1  0
 13 12  1  6
 13 14  1  0
  4 15  1  0
  9 16  1  0
 13 17  1  0
 15 18  1  0
 15 19  1  0
 15 20  1  0
 17 21  1  0
 21 22  2  3
 22 23  1  0
 23 24  2  3
 24 25  1  0
 25 26  2  3
 26 27  1  0
 27 28  2  3
 28 29  1  0
 28 30  1  0
 30 31  1  0
 31 32  2  0
 14 33  1  0
 33 34  1  0
 14 35  1  0
 35 36  2  3
 36 37  1  0
 37 38  2  3
 38 39  1  0
 39 40  2  0
  1  2  2  0
  2  6  1  0
  6  5  2  0
  5  4  1  0
  4  3  2  0
  3  1  1  0
M  END
$$$$
