No_665-complexes_sdf/6BKW-FPZ/2024-09-17-14-21-01/
     RDKit          3D

  5  4  0  0  0  0  0  0  0  0999 V2000
   -7.9040    3.9820   27.1177 C   0  0  0  0  0  0  0  0  0  0  0  0
   -7.8663    4.8694   27.9238 C   0  0  0  0  0  0  0  0  0  0  0  0
   -9.0491    3.8523   26.2542 C   0  0  0  0  0  0  0  0  0  0  0  0
   -9.9827    3.2456   26.6451 C   0  0  0  0  0  0  0  0  0  0  0  0
   -9.0973    5.3111   28.4054 N   0  0  0  0  0  0  0  0  0  0  0  0
  1  2  1  0
  1  3  1  0
  3  4  2  0
  2  5  3  0
M  END
$$$$
