No_6079-complexes_sdf/6BKW-FPZ/2024-09-17-14-21-01/
     RDKit          3D

 12 13  0  0  0  0  0  0  0  0999 V2000
   -7.9040    3.9820   27.1177 C   0  0  0  0  0  0  0  0  0  0  0  0
   -8.2057    2.8231   26.8733 C   0  0  0  0  0  0  0  0  0  0  0  0
   -8.7695    5.0740   26.7916 C   0  0  0  0  0  0  0  0  0  0  0  0
   -8.4337    6.4678   27.0913 C   0  0  0  0  0  0  0  0  0  0  0  0
   -7.3775    1.6806   27.3986 C   0  0  0  0  0  0  0  0  0  0  0  0
   -7.6888    0.3359   27.2208 C   0  0  0  0  0  0  0  0  0  0  0  0
   -8.9698    0.1146   26.6465 C   0  0  0  0  0  0  0  0  0  0  0  0
   -9.7638    1.1002   26.1528 C   0  0  0  0  0  0  0  0  0  0  0  0
   -9.3953    2.4409   26.3165 C   0  0  0  0  0  0  0  0  0  0  0  0
   -7.3221    6.8223   27.2213 C   0  0  0  0  0  0  0  0  0  0  0  0
   -6.7404    4.6185   27.7641 C   0  0  0  0  0  0  0  0  0  0  0  0
   -6.5229    5.9292   27.9338 N   0  0  0  0  0  0  0  0  0  0  0  0
  1  2  1  0
  2  5  2  0
  5  6  1  0
  6  7  2  0
  7  8  1  0
  8  9  2  0
  9  2  1  0
  1  3  2  0
  3  4  1  0
  4 10  2  0
 10 12  1  0
 12 11  2  0
 11  1  1  0
M  END
$$$$
