No_6888-complexes_sdf/6BKW-FPZ/2024-09-17-14-21-01/
     RDKit          3D

 39 43  0  0  0  0  0  0  0  0999 V2000
   -7.9040    3.9820   27.1177 C   0  0  0  0  0  0  0  0  0  0  0  0
   -8.2057    2.8231   26.8733 C   0  0  0  0  0  0  0  0  0  0  0  0
   -9.2962    2.4021   26.1155 C   0  0  0  0  0  0  0  0  0  0  0  0
   -8.7358    5.0662   26.5917 C   0  0  0  0  0  0  0  0  0  0  0  0
   -8.4603    6.4492   26.8781 C   0  0  0  0  0  0  0  0  0  0  0  0
  -10.1146    3.3815   25.6105 C   0  0  0  0  0  0  0  0  0  0  0  0
   -9.8194    4.7235   25.8263 C   0  0  0  0  0  0  0  0  0  0  0  0
   -8.0995    6.9133   28.0601 N   0  0  0  0  0  0  0  0  0  0  0  0
   -8.8402    7.3641   26.0218 O   0  0  0  0  0  0  0  0  0  0  0  0
   -7.3599    1.7508   27.3938 N   0  0  0  0  0  0  0  0  0  0  0  0
   -6.0836    1.9728   27.8104 C   0  0  0  0  0  0  0  0  0  0  0  0
   -5.3305    0.7609   28.2572 C   0  0  2  0  0  0  0  0  0  0  0  0
   -7.7219    0.4111   27.3518 C   0  0  0  0  0  0  0  0  0  0  0  0
   -7.0655   -0.6356   27.8431 C   0  0  0  0  0  0  0  0  0  0  0  0
   -5.7911   -0.4001   28.3390 C   0  0  0  0  0  0  0  0  0  0  0  0
   -3.8964    1.1822   28.8114 C   0  0  0  0  0  0  0  0  0  0  0  0
   -3.0385    0.2789   28.6661 N   0  0  0  0  0  0  0  0  0  0  0  0
   -2.1824    0.1415   27.6794 C   0  0  0  0  0  0  0  0  0  0  0  0
   -2.8242   -0.6885   29.7526 C   0  0  1  0  0  0  0  0  0  0  0  0
   -3.3070   -0.4144   30.9431 C   0  0  0  0  0  0  0  0  0  0  0  0
   -2.5764   -1.9532   29.3498 C   0  0  0  0  0  0  0  0  0  0  0  0
   -1.6693   -2.2117   28.2909 C   0  0  0  0  0  0  0  0  0  0  0  0
   -1.7128   -1.1167   27.2557 C   0  0  0  0  0  0  0  0  0  0  0  0
   -2.9845   -1.0921   32.1069 C   0  0  0  0  0  0  0  0  0  0  0  0
   -3.4247   -0.7568   33.4248 C   0  0  0  0  0  0  0  0  0  0  0  0
   -2.9767   -1.4349   34.5104 C   0  0  0  0  0  0  0  0  0  0  0  0
   -2.0911   -2.4403   34.3900 C   0  0  0  0  0  0  0  0  0  0  0  0
   -1.6239   -2.7869   33.1507 C   0  0  0  0  0  0  0  0  0  0  0  0
   -2.0019   -2.1048   32.0404 C   0  0  0  0  0  0  0  0  0  0  0  0
   -3.5207   -0.9514   35.8668 C   0  0  0  0  0  0  0  0  0  0  0  0
   -2.9266   -0.1526   36.6228 N   0  0  0  0  0  0  0  0  0  0  0  0
   -3.5723    0.6282   37.6295 C   0  0  0  0  0  0  0  0  0  0  0  0
   -2.8107    1.5994   38.3890 C   0  0  0  0  0  0  0  0  0  0  0  0
   -1.4261    1.5056   38.4308 C   0  0  0  0  0  0  0  0  0  0  0  0
   -0.6701    2.4455   39.1553 C   0  0  0  0  0  0  0  0  0  0  0  0
   -1.3831    3.5342   39.7458 C   0  0  0  0  0  0  0  0  0  0  0  0
   -2.7528    3.6354   39.6996 C   0  0  0  0  0  0  0  0  0  0  0  0
   -3.4410    2.6983   38.9780 C   0  0  0  0  0  0  0  0  0  0  0  0
   -4.6528   -1.4038   36.1150 O   0  0  0  0  0  0  0  0  0  0  0  0
  4  5  1  0
  5  8  1  0
  5  9  2  0
  2 10  1  0
 10 11  1  0
 10 13  1  0
 12 15  1  0
 14 15  1  0
 12 16  1  1
 16 17  1  0
 17 18  1  0
 17 19  1  0
 19 20  1  1
 19 21  1  0
 21 22  1  0
 26 30  1  0
 30 31  1  0
 31 32  2  3
 32 33  1  0
 30 39  2  0
 20 24  1  0
 18 23  1  0
 23 22  1  0
 11 12  1  0
 14 13  1  0
 24 25  2  0
 25 26  1  0
 26 27  2  0
 27 28  1  0
 28 29  2  0
 29 24  1  0
  1  2  2  0
  2  3  1  0
  3  6  2  0
  6  7  1  0
  7  4  2  0
  4  1  1  0
 33 34  2  0
 34 35  1  0
 35 36  2  0
 36 37  1  0
 37 38  2  0
 38 33  1  0
M  END
$$$$
