No_652-complexes_sdf/6BKW-FPZ/2024-09-17-14-21-01/
     RDKit          3D

 17 19  0  0  0  0  0  0  0  0999 V2000
   -7.9040    3.9820   27.1177 C   0  0  0  0  0  0  0  0  0  0  0  0
   -7.8663    4.8694   27.9238 C   0  0  0  0  0  0  0  0  0  0  0  0
   -9.0491    3.8523   26.2542 C   0  0  0  0  0  0  0  0  0  0  0  0
   -9.7161    4.8785   25.9890 C   0  0  0  0  0  0  0  0  0  0  0  0
   -8.5086    6.0982   27.7096 C   0  0  0  0  0  0  0  0  0  0  0  0
   -9.5239    6.1123   26.7949 C   0  0  0  0  0  0  0  0  0  0  0  0
   -7.1422    2.6522   27.4171 C   0  0  0  0  0  0  0  0  0  0  0  0
   -5.8939    2.7108   28.0266 C   0  0  0  0  0  0  0  0  0  0  0  0
   -7.6497    1.3975   27.0116 C   0  0  0  0  0  0  0  0  0  0  0  0
   -5.0752    1.5714   28.1313 C   0  0  0  0  0  0  0  0  0  0  0  0
   -6.8556    0.2713   27.2225 C   0  0  0  0  0  0  0  0  0  0  0  0
   -5.5710    0.3737   27.8074 C   0  0  0  0  0  0  0  0  0  0  0  0
   -4.7988   -0.8560   28.0717 C   0  0  0  0  0  0  0  0  0  0  0  0
   -3.8139   -1.4099   28.6823 Cl  0  0  0  0  0  0  0  0  0  0  0  0
   -5.5898   -2.0555   27.1955 C   0  0  0  0  0  0  0  0  0  0  0  0
   -6.7286   -2.0110   26.7031 C   0  0  0  0  0  0  0  0  0  0  0  0
   -7.3918   -0.8676   26.6693 C   0  0  0  0  0  0  0  0  0  0  0  0
  1  7  1  0
 13 14  1  0
 12 13  1  0
 13 15  2  0
 15 16  1  0
 16 17  2  0
 17 11  1  0
  1  2  2  0
  2  5  1  0
  5  6  2  0
  6  4  1  0
  4  3  2  0
  3  1  1  0
  7  8  2  0
  8 10  1  0
 10 12  2  0
 12 11  1  0
 11  9  2  0
  9  7  1  0
M  END
$$$$
