No_6897-complexes_sdf/6BKW-FPZ/2024-09-17-14-21-01/
     RDKit          3D

 18 19  0  0  0  0  0  0  0  0999 V2000
   -7.9040    3.9820   27.1177 C   0  0  0  0  0  0  0  0  0  0  0  0
   -9.0711    4.3164   27.0630 C   0  0  0  0  0  0  0  0  0  0  0  0
   -9.5294    5.4517   27.7215 C   0  0  0  0  0  0  0  0  0  0  0  0
   -6.9328    4.7309   27.8881 C   0  0  0  0  0  0  0  0  0  0  0  0
   -7.3666    5.8455   28.5488 C   0  0  0  0  0  0  0  0  0  0  0  0
   -8.6669    6.2428   28.4199 C   0  0  0  0  0  0  0  0  0  0  0  0
  -10.0479    3.5083   26.2510 C   0  0  0  0  0  0  0  0  0  0  0  0
   -9.7487    3.3856   24.9113 C   0  0  0  0  0  0  0  0  0  0  0  0
  -10.5142    2.6814   23.9902 C   0  0  0  0  0  0  0  0  0  0  0  0
  -10.0863    2.5889   22.6428 C   0  0  0  0  0  0  0  0  0  0  0  0
  -10.0688    2.6506   21.5502 C   0  0  0  0  0  0  0  0  0  0  0  0
  -10.8980    2.7391   26.7475 C   0  0  0  0  0  0  0  0  0  0  0  0
  -11.8096    1.9544   25.9225 C   0  0  0  0  0  0  0  0  0  0  0  0
  -11.5415    1.9185   24.5296 C   0  0  0  0  0  0  0  0  0  0  0  0
   -9.9518    2.8491   20.1268 C   0  0  0  0  0  0  0  0  0  0  0  0
  -10.5816    3.5084   19.5209 C   0  0  0  0  0  0  0  0  0  0  0  0
  -10.9097    4.5817   19.9237 F   0  0  0  0  0  0  0  0  0  0  0  0
  -10.6818    3.4005   18.1816 F   0  0  0  0  0  0  0  0  0  0  0  0
  2  7  1  0
 10 11  1  0
 11 15  2  3
 15 16  1  0
 16 17  1  0
 16 18  1  0
 10  9  1  0
  7  8  2  0
  8  9  1  0
  9 14  2  0
 14 13  1  0
 13 12  2  0
 12  7  1  0
  1  2  2  0
  2  3  1  0
  3  6  2  0
  6  5  1  0
  5  4  2  0
  4  1  1  0
M  END
$$$$
