No_6646-complexes_sdf/6BKW-FPZ/2024-09-17-14-21-01/
     RDKit          3D

 21 23  0  0  0  0  0  0  0  0999 V2000
   -7.2496    3.8871   27.4508 C   0  0  0  0  0  0  0  0  0  0  0  0
   -8.5096    4.0291   27.2770 C   0  0  0  0  0  0  0  0  0  0  0  0
   -9.2677    5.1714   27.5773 C   0  0  0  0  0  0  0  0  0  0  0  0
   -6.5550    4.9883   28.1029 C   0  0  0  0  0  0  0  0  0  0  0  0
   -8.5395    6.2425   28.0724 C   0  0  0  0  0  0  0  0  0  0  0  0
   -7.1794    6.1173   28.2629 C   0  0  0  0  0  0  0  0  0  0  0  0
   -9.3001    2.8163   26.7852 C   0  0  0  0  0  0  0  0  0  0  0  0
  -10.3472    2.4903   26.8320 C   0  0  0  0  0  0  0  0  0  0  0  0
  -11.3039    3.2062   27.4632 C   0  0  0  0  0  0  0  0  0  0  0  0
  -12.6647    2.7097   27.6251 C   0  0  0  0  0  0  0  0  0  0  0  0
  -12.8846    1.4513   27.2499 C   0  0  0  0  0  0  0  0  0  0  0  0
  -12.0120    0.7578   26.8482 C   0  0  0  0  0  0  0  0  0  0  0  0
  -10.7191    1.0889   26.6416 C   0  0  0  0  0  0  0  0  0  0  0  0
   -8.3827    2.1867   25.8721 O   0  0  0  0  0  0  0  0  0  0  0  0
  -12.3897   -0.9918   26.4484 Cl  0  0  0  0  0  0  0  0  0  0  0  0
  -13.7457    3.6450   28.2004 C   0  0  0  0  0  0  0  0  0  0  0  0
  -13.5082    4.4686   28.7492 C   0  0  0  0  0  0  0  0  0  0  0  0
  -14.5718    5.4155   29.2735 C   0  0  0  0  0  0  0  0  0  0  0  0
  -15.8489    5.2849   28.7769 C   0  0  0  0  0  0  0  0  0  0  0  0
  -15.0379    3.4249   27.6936 C   0  0  0  0  0  0  0  0  0  0  0  0
  -16.0461    4.2297   27.9739 C   0  0  0  0  0  0  0  0  0  0  0  0
  2  7  1  0
  7  8  1  0
  7 14  2  0
 12 15  1  0
 10 16  1  0
  1  2  2  0
  2  3  1  0
  3  5  2  0
  5  6  1  0
  6  4  2  0
  4  1  1  0
  8  9  2  0
  9 10  1  0
 10 11  2  0
 11 12  1  0
 12 13  2  0
 13  8  1  0
 16 17  2  0
 17 18  1  0
 18 19  2  0
 19 21  1  0
 21 20  2  0
 20 16  1  0
M  END
$$$$
