No_6473-complexes_sdf/6BKW-FPZ/2024-09-17-14-21-01/
     RDKit          3D

 19 20  0  0  0  0  0  0  0  0999 V2000
   -7.2496    3.8871   27.4508 C   0  0  0  0  0  0  0  0  0  0  0  0
   -7.6161    2.7143   27.1523 C   0  0  0  0  0  0  0  0  0  0  0  0
   -6.9719    1.5838   27.5324 C   0  0  0  0  0  0  0  0  0  0  0  0
   -5.6316    1.7305   27.9933 C   0  0  0  0  0  0  0  0  0  0  0  0
   -8.0192    5.1128   27.1337 C   0  0  0  0  0  0  0  0  0  0  0  0
   -9.1382    4.9916   26.3588 C   0  0  0  0  0  0  0  0  0  0  0  0
   -9.5792    3.7408   25.9480 C   0  0  0  0  0  0  0  0  0  0  0  0
   -8.8585    2.5502   26.3623 C   0  0  0  0  0  0  0  0  0  0  0  0
   -7.4283    0.2746   27.2628 C   0  0  0  0  0  0  0  0  0  0  0  0
   -4.8255    0.5997   28.3310 C   0  0  0  0  0  0  0  0  0  0  0  0
   -6.6316   -0.8526   27.7284 C   0  0  0  0  0  0  0  0  0  0  0  0
   -5.3364   -0.6376   28.2348 C   0  0  0  0  0  0  0  0  0  0  0  0
   -7.5777    6.4362   27.6196 C   0  0  0  0  0  0  0  0  0  0  0  0
   -3.2455    0.9084   28.9805 Cl  0  0  0  0  0  0  0  0  0  0  0  0
   -8.3111    7.8466   26.9816 Cl  0  0  0  0  0  0  0  0  0  0  0  0
  -10.7243    3.6205   25.0736 C   0  0  0  0  0  0  0  0  0  0  0  0
  -10.6381    3.9585   23.9417 F   0  0  0  0  0  0  0  0  0  0  0  0
  -11.1304    2.2780   25.0871 F   0  0  0  0  0  0  0  0  0  0  0  0
  -11.7580    4.3267   25.6512 F   0  0  0  0  0  0  0  0  0  0  0  0
  2  3  1  0
  5 13  1  0
 10 14  1  0
 13 15  1  0
  7 16  1  0
 16 17  1  0
 16 18  1  0
 16 19  1  0
  1  2  2  0
  2  8  1  0
  8  7  2  0
  7  6  1  0
  6  5  2  0
  5  1  1  0
  3  4  2  0
  4 10  1  0
 10 12  2  0
 12 11  1  0
 11  9  2  0
  9  3  1  0
M  END
$$$$
