No_6023-complexes_sdf/6BKW-FPZ/2024-09-17-14-21-01/
     RDKit          3D

 40 44  0  0  0  0  0  0  0  0999 V2000
   -7.9040    3.9820   27.1177 C   0  0  0  0  0  0  0  0  0  0  0  0
   -8.2057    2.8231   26.8733 C   0  0  0  0  0  0  0  0  0  0  0  0
   -7.4766    1.7477   27.4593 C   0  0  0  0  0  0  0  0  0  0  0  0
   -8.7468    5.1251   26.6967 C   0  0  0  0  0  0  0  0  0  0  0  0
   -9.7234    4.8589   25.8202 C   0  0  0  0  0  0  0  0  0  0  0  0
   -9.9711    3.5858   25.4266 C   0  0  0  0  0  0  0  0  0  0  0  0
   -9.2266    2.4957   25.9600 C   0  0  0  0  0  0  0  0  0  0  0  0
   -6.1241    1.9216   27.8574 C   0  0  0  0  0  0  0  0  0  0  0  0
   -5.4248    0.7985   28.3602 C   0  0  0  0  0  0  0  0  0  0  0  0
   -5.9324   -0.4517   28.3727 C   0  0  0  0  0  0  0  0  0  0  0  0
   -7.8680    0.3890   27.4333 C   0  0  0  0  0  0  0  0  0  0  0  0
   -7.2076   -0.6217   27.9501 C   0  0  0  0  0  0  0  0  0  0  0  0
   -8.4174    6.5135   27.1003 C   0  0  0  0  0  0  0  0  0  0  0  0
   -8.6038    7.5314   26.4042 N   0  0  0  0  0  0  0  0  0  0  0  0
   -7.3998    6.6055   28.0097 O   0  0  0  0  0  0  0  0  0  0  0  0
   -3.7453    1.1538   28.8804 Cl  0  0  0  0  0  0  0  0  0  0  0  0
  -11.0245    3.3304   24.4424 C   0  0  0  0  0  0  0  0  0  0  0  0
  -12.2987    3.0634   24.8835 C   0  0  0  0  0  0  0  0  0  0  0  0
  -12.5621    2.9684   26.2855 C   0  0  0  0  0  0  0  0  0  0  0  0
  -13.9312    2.7080   26.7236 C   0  0  0  0  0  0  0  0  0  0  0  0
  -14.8869    2.5594   25.7331 C   0  0  0  0  0  0  0  0  0  0  0  0
  -14.6583    2.6726   24.4322 C   0  0  0  0  0  0  0  0  0  0  0  0
  -13.3789    2.9708   23.9821 C   0  0  0  0  0  0  0  0  0  0  0  0
  -10.6782    3.3762   23.0689 C   0  0  0  0  0  0  0  0  0  0  0  0
  -10.3939    2.7138   22.2417 C   0  0  0  0  0  0  0  0  0  0  0  0
  -10.0369    2.9988   20.9266 C   0  0  0  0  0  0  0  0  0  0  0  0
  -10.8476    4.8031   22.5429 C   0  0  0  0  0  0  0  0  0  0  0  0
  -10.5538    5.2547   21.3377 C   0  0  0  0  0  0  0  0  0  0  0  0
  -10.0934    4.3012   20.4824 C   0  0  0  0  0  0  0  0  0  0  0  0
  -10.2828    1.3132   22.5576 O   0  0  0  0  0  0  0  0  0  0  0  0
  -10.7826    0.5721   23.1594 C   0  0  0  0  0  0  0  0  0  0  0  0
  -11.9788    0.1253   22.7710 C   0  0  0  0  0  0  0  0  0  0  0  0
  -10.1815   -0.1725   24.2730 C   0  0  0  0  0  0  0  0  0  0  0  0
   -8.8467   -0.4882   24.3244 C   0  0  0  0  0  0  0  0  0  0  0  0
  -11.0399   -0.7138   25.3255 C   0  0  0  0  0  0  0  0  0  0  0  0
  -12.3604   -0.9425   25.1700 C   0  0  0  0  0  0  0  0  0  0  0  0
  -12.8941   -0.3971   23.8654 C   0  0  0  0  0  0  0  0  0  0  0  0
   -8.1652   -1.3318   23.4156 C   0  0  0  0  0  0  0  0  0  0  0  0
   -8.7642   -2.1432   22.5619 C   0  0  0  0  0  0  0  0  0  0  0  0
   -8.0145   -2.8236   21.5653 C   0  0  0  0  0  0  0  0  0  0  0  0
  2  3  1  0
  4 13  1  0
 13 14  2  0
 13 15  1  0
  9 16  1  0
  6 17  1  0
 17 24  1  0
 25 30  1  0
 30 31  1  0
 33 34  1  0
 34 38  2  3
 38 39  1  0
 39 40  2  0
 17 18  1  0
 18 19  2  0
 19 20  1  0
 20 21  2  0
 21 22  1  0
 22 23  2  0
 23 18  1  0
 31 32  2  0
 32 37  1  0
 37 36  2  0
 36 35  1  0
 35 33  2  0
 33 31  1  0
  1  2  2  0
  2  7  1  0
  7  6  2  0
  6  5  1  0
  5  4  2  0
  4  1  1  0
 24 25  1  0
 25 26  2  0
 26 29  1  0
 29 28  2  0
 28 27  1  0
 27 24  2  0
  3  8  2  0
  8  9  1  0
  9 10  2  0
 10 12  1  0
 12 11  2  0
 11  3  1  0
M  END
$$$$
