No_680-complexes_sdf/6BKW-FPZ/2024-09-17-14-21-01/
     RDKit          3D

 14 14  0  0  0  0  0  0  0  0999 V2000
   -7.9040    3.9820   27.1177 C   0  0  0  0  0  0  0  0  0  0  0  0
   -8.2057    2.8231   26.8733 C   0  0  0  0  0  0  0  0  0  0  0  0
   -7.0130    4.3706   28.1140 C   0  0  0  0  0  0  0  0  0  0  0  0
   -7.4093    1.7370   27.3857 C   0  0  0  0  0  0  0  0  0  0  0  0
   -6.1943    2.1490   28.0403 C   0  0  0  0  0  0  0  0  0  0  0  0
   -5.9708    3.4680   28.3199 C   0  0  0  0  0  0  0  0  0  0  0  0
   -8.9091    5.0939   26.7085 C   0  0  0  0  0  0  0  0  0  0  0  0
   -9.5084    4.9820   25.4339 C   0  0  0  0  0  0  0  0  0  0  0  0
   -5.2515    1.0751   28.4406 C   0  0  0  0  0  0  0  0  0  0  0  0
   -5.6746    0.0064   28.7243 F   0  0  0  0  0  0  0  0  0  0  0  0
   -4.1984    1.0237   27.5096 F   0  0  0  0  0  0  0  0  0  0  0  0
   -8.9370    6.3671   27.3354 C   0  0  0  0  0  0  0  0  0  0  0  0
   -4.4813    1.5503   29.5517 F   0  0  0  0  0  0  0  0  0  0  0  0
   -9.4478    5.7822   24.5374 O   0  0  0  0  0  0  0  0  0  0  0  0
  1  7  1  0
  7  8  2  0
  5  9  1  0
  9 10  1  0
  9 11  1  0
  7 12  1  0
  9 13  1  0
  8 14  2  0
  1  2  2  0
  2  4  1  0
  4  5  2  0
  5  6  1  0
  6  3  2  0
  3  1  1  0
M  END
$$$$
