No_6584-complexes_sdf/6BKW-FPZ/2024-09-17-14-21-01/
     RDKit          3D

  9  9  0  0  0  0  0  0  0  0999 V2000
   -7.7129    4.2099   27.0854 C   0  0  0  0  0  0  0  0  0  0  0  0
   -7.7814    5.1722   27.8972 C   0  0  0  0  0  0  0  0  0  0  0  0
   -8.8255    3.2789   27.1191 C   0  0  0  0  0  0  0  0  0  0  0  0
   -9.9209    3.4734   27.9101 C   0  0  0  0  0  0  0  0  0  0  0  0
  -10.9752    2.5069   28.0201 C   0  0  0  0  0  0  0  0  0  0  0  0
   -8.9991    5.6269   28.5996 C   0  0  0  0  0  0  0  0  0  0  0  0
   -9.9928    4.6433   28.6536 C   0  0  0  0  0  0  0  0  0  0  0  0
  -10.7052    1.1775   27.8776 C   0  0  0  0  0  0  0  0  0  0  0  0
  -11.7126    0.2827   28.0028 C   0  0  0  0  0  0  0  0  0  0  0  0
  4  5  1  0
  5  8  2  3
  8  9  1  0
  1  2  2  0
  2  6  1  0
  6  7  2  0
  7  4  1  0
  4  3  2  0
  3  1  1  0
M  END
$$$$
