No_6623-complexes_sdf/6BKW-FPZ/2024-09-17-14-21-01/
     RDKit          3D

 24 26  0  0  0  0  0  0  0  0999 V2000
   -7.9040    3.9820   27.1177 C   0  0  0  0  0  0  0  0  0  0  0  0
   -8.2057    2.8231   26.8733 C   0  0  0  0  0  0  0  0  0  0  0  0
   -8.7695    5.0740   26.7916 C   0  0  0  0  0  0  0  0  0  0  0  0
   -9.9618    4.7598   26.1630 C   0  0  0  0  0  0  0  0  0  0  0  0
   -9.4200    2.4524   26.2849 C   0  0  0  0  0  0  0  0  0  0  0  0
  -10.2590    3.4815   25.9250 C   0  0  0  0  0  0  0  0  0  0  0  0
   -8.4259    6.3307   27.0704 F   0  0  0  0  0  0  0  0  0  0  0  0
   -7.2639    1.6678   27.2836 C   0  0  0  0  0  0  0  0  0  0  0  0
   -7.6033    0.3948   27.2044 N   0  0  0  0  0  0  0  0  0  0  0  0
   -6.1314    1.9436   27.7105 O   0  0  0  0  0  0  0  0  0  0  0  0
   -8.8165   -0.1206   26.7464 C   0  0  1  0  0  0  0  0  0  0  0  0
   -9.7486    0.9349   26.2281 C   0  0  0  0  0  0  0  0  0  0  0  0
   -9.0910   -1.4389   26.7049 C   0  0  0  0  0  0  0  0  0  0  0  0
  -10.2458   -1.8440   27.0940 N   0  0  0  0  0  0  0  0  0  0  0  0
  -11.0778   -1.1268   27.5765 C   0  0  0  0  0  0  0  0  0  0  0  0
  -12.3773   -1.6491   27.8625 C   0  0  0  0  0  0  0  0  0  0  0  0
  -13.3703   -0.9637   28.5850 C   0  0  0  0  0  0  0  0  0  0  0  0
  -13.0973    0.3886   28.9330 C   0  0  0  0  0  0  0  0  0  0  0  0
  -11.8628    0.9633   28.6829 C   0  0  0  0  0  0  0  0  0  0  0  0
  -10.9363    0.2573   28.1209 C   0  0  0  0  0  0  0  0  0  0  0  0
   -8.2326   -2.1212   26.0827 O   0  0  0  0  0  0  0  0  0  0  0  0
  -11.6887    2.3848   29.1671 C   0  0  0  0  0  0  0  0  0  0  0  0
  -10.7421    3.0942   28.6022 O   0  0  0  0  0  0  0  0  0  0  0  0
  -12.4589    2.9724   30.0940 N   0  0  0  0  0  0  0  0  0  0  0  0
  3  7  1  0
  2  8  1  0
  8  9  1  0
  8 10  2  0
  9 11  1  0
  5 12  1  0
 11 13  1  6
 13 14  1  0
 14 15  1  0
 13 21  2  0
 19 22  1  0
 22 23  2  0
 22 24  1  0
 12 11  1  0
 15 16  2  0
 16 17  1  0
 17 18  2  0
 18 19  1  0
 19 20  2  0
 20 15  1  0
  1  2  2  0
  2  5  1  0
  5  6  2  0
  6  4  1  0
  4  3  2  0
  3  1  1  0
M  END
$$$$
