No_658-complexes_sdf/6BKW-FPZ/2024-09-17-14-21-01/
     RDKit          3D

 12 11  0  0  0  0  0  0  0  0999 V2000
   -7.7129    4.2099   27.0854 C   0  0  0  0  0  0  0  0  0  0  0  0
   -8.2112    3.0637   26.9225 C   0  0  0  0  0  0  0  0  0  0  0  0
   -8.5108    5.3904   26.9436 C   0  0  0  0  0  0  0  0  0  0  0  0
   -7.9752    6.6981   27.2112 C   0  0  0  0  0  0  0  0  0  0  0  0
   -9.5213    2.8208   26.4688 C   0  0  0  0  0  0  0  0  0  0  0  0
  -10.2979    3.9327   26.2378 C   0  0  0  0  0  0  0  0  0  0  0  0
   -9.7894    5.2123   26.4395 C   0  0  0  0  0  0  0  0  0  0  0  0
   -9.1397    5.8195   27.6179 P   0  0  0  0  0  0  0  0  0  0  0  0
   -9.8040    5.7743   25.0127 C   0  0  0  0  0  0  0  0  0  0  0  0
  -11.0025    5.9275   26.0937 O   0  0  0  0  0  0  0  0  0  0  0  0
   -9.2895    4.9005   28.7464 O   0  0  0  0  0  0  0  0  0  0  0  0
  -10.2771    6.8233   28.1097 O   0  0  0  0  0  0  0  0  0  0  0  0
  1  2  1  0
  1  3  2  3
  3  4  1  0
  2  5  2  3
  5  6  1  0
  6  7  2  3
  3  8  1  0
  7  9  1  0
  7 10  1  0
  8 11  1  0
  8 12  1  0
M  END
$$$$
