No_6467-complexes_sdf/6BKW-FPZ/2024-09-17-14-21-01/
     RDKit          3D

 13 14  0  0  0  0  0  0  0  0999 V2000
   -7.7129    4.2099   27.0854 C   0  0  0  0  0  0  0  0  0  0  0  0
   -8.2112    3.0637   26.9225 C   0  0  0  0  0  0  0  0  0  0  0  0
   -8.4224    5.2106   27.8516 C   0  0  0  0  0  0  0  0  0  0  0  0
   -9.5628    2.7160   27.4089 C   0  0  0  0  0  0  0  0  0  0  0  0
  -10.2428    3.7496   28.1155 C   0  0  0  0  0  0  0  0  0  0  0  0
   -9.6677    4.9738   28.3232 C   0  0  0  0  0  0  0  0  0  0  0  0
   -7.8012    6.3713   28.0255 F   0  0  0  0  0  0  0  0  0  0  0  0
  -10.1131    1.3955   27.2092 C   0  0  0  0  0  0  0  0  0  0  0  0
  -11.1162    1.0609   28.0022 C   0  0  0  0  0  0  0  0  0  0  0  0
  -11.7004   -0.2393   27.8842 C   0  0  0  0  0  0  0  0  0  0  0  0
  -11.0593   -1.1385   27.0481 C   0  0  0  0  0  0  0  0  0  0  0  0
   -9.6335    0.2792   26.5344 C   0  0  0  0  0  0  0  0  0  0  0  0
  -10.0444   -0.8773   26.3789 C   0  0  0  0  0  0  0  0  0  0  0  0
  3  7  1  0
  4  8  1  0
  1  2  2  0
  2  4  1  0
  4  5  2  0
  5  6  1  0
  6  3  2  0
  3  1  1  0
  8  9  2  0
  9 10  1  0
 10 11  2  0
 11 13  1  0
 13 12  2  0
 12  8  1  0
M  END
$$$$
