No_6484-complexes_sdf/6BKW-FPZ/2024-09-17-14-21-01/
     RDKit          3D

 27 30  0  0  0  0  0  0  0  0999 V2000
   -7.7129    4.2099   27.0854 C   0  0  0  0  0  0  0  0  0  0  0  0
   -8.9133    4.4736   27.0998 C   0  0  0  0  0  0  0  0  0  0  0  0
   -9.4643    5.5426   27.7628 C   0  0  0  0  0  0  0  0  0  0  0  0
   -7.2009    2.9448   26.6134 C   0  0  0  0  0  0  0  0  0  0  0  0
   -8.1365    1.9533   26.2981 C   0  0  0  0  0  0  0  0  0  0  0  0
   -9.2362    2.2473   26.4082 C   0  0  0  0  0  0  0  0  0  0  0  0
   -9.8183    3.4359   26.7650 C   0  0  0  0  0  0  0  0  0  0  0  0
   -7.5132    0.6538   25.9640 C   0  0  0  0  0  0  0  0  0  0  0  0
   -6.7453   -0.0206   26.9579 C   0  0  0  0  0  0  0  0  0  0  0  0
   -5.9356   -0.9442   26.6738 C   0  0  0  0  0  0  0  0  0  0  0  0
   -4.9462   -1.4228   27.6102 C   0  0  0  0  0  0  0  0  0  0  0  0
   -4.9313   -0.8505   28.9352 C   0  0  0  0  0  0  0  0  0  0  0  0
   -5.7610    0.2816   29.1595 C   0  0  0  0  0  0  0  0  0  0  0  0
   -6.5899    0.6805   28.2375 C   0  0  0  0  0  0  0  0  0  0  0  0
   -3.9153   -1.2833   29.9182 C   0  0  0  0  0  0  0  0  0  0  0  0
   -2.6871   -1.1737   29.6109 C   0  0  0  0  0  0  0  0  0  0  0  0
   -4.3704   -1.7895   31.1696 C   0  0  0  0  0  0  0  0  0  0  0  0
   -5.4789   -1.8480   31.5673 C   0  0  0  0  0  0  0  0  0  0  0  0
   -5.9027   -2.2114   32.9173 C   0  0  0  0  0  0  0  0  0  0  0  0
   -4.9323   -2.5450   33.7919 C   0  0  0  0  0  0  0  0  0  0  0  0
   -3.5927   -2.4637   33.4352 C   0  0  0  0  0  0  0  0  0  0  0  0
   -3.2537   -2.0175   32.1967 C   0  0  0  0  0  0  0  0  0  0  0  0
   -2.1560   -1.7494   28.5130 C   0  0  0  0  0  0  0  0  0  0  0  0
   -2.0218   -0.8104   27.4721 C   0  0  2  0  0  0  0  0  0  0  0  0
   -1.5255    0.4102   27.7433 C   0  0  0  0  0  0  0  0  0  0  0  0
   -3.3218   -0.6076   26.6241 C   0  0  0  0  0  0  0  0  0  0  0  0
   -3.9978   -1.6127   26.6622 C   0  0  0  0  0  0  0  0  0  0  0  0
  1  2  1  0
  2  3  2  0
  1  4  1  0
  4  5  1  0
  5  6  1  0
  2  7  1  0
  6  7  1  0
  5  8  1  0
  8  9  1  0
 12 15  1  0
 15 16  1  0
 15 17  1  0
 16 23  1  0
 23 24  1  0
 24 25  1  1
 24 26  1  0
 11 27  1  0
 26 27  1  0
 17 18  2  0
 18 19  1  0
 19 20  2  0
 20 21  1  0
 21 22  2  0
 22 17  1  0
  9 10  2  0
 10 11  1  0
 11 12  2  0
 12 13  1  0
 13 14  2  0
 14  9  1  0
M  END
$$$$
