No_6226-complexes_sdf/6BKW-FPZ/2024-09-17-14-21-01/
     RDKit          3D

 23 25  0  0  0  0  0  0  0  0999 V2000
   -7.7129    4.2099   27.0854 C   0  0  0  0  0  0  0  0  0  0  0  0
   -7.7814    5.1722   27.8972 C   0  0  0  0  0  0  0  0  0  0  0  0
   -8.8776    3.8408   26.3416 C   0  0  0  0  0  0  0  0  0  0  0  0
   -9.9844    4.6492   26.4743 C   0  0  0  0  0  0  0  0  0  0  0  0
   -8.7830    6.1594   27.8870 C   0  0  0  0  0  0  0  0  0  0  0  0
   -9.9269    5.8191   27.1183 C   0  0  0  0  0  0  0  0  0  0  0  0
   -8.8618    2.6242   25.5633 C   0  0  0  0  0  0  0  0  0  0  0  0
   -8.2819    1.4836   26.1793 C   0  0  0  0  0  0  0  0  0  0  0  0
   -8.2762    0.2624   25.5398 C   0  0  0  0  0  0  0  0  0  0  0  0
   -8.8607    0.2483   24.2552 C   0  0  0  0  0  0  0  0  0  0  0  0
   -9.4172    1.3567   23.6489 C   0  0  0  0  0  0  0  0  0  0  0  0
   -9.4133    2.5530   24.3291 C   0  0  0  0  0  0  0  0  0  0  0  0
   -9.9925    1.2931   22.3157 C   0  0  0  0  0  0  0  0  0  0  0  0
  -10.2477    2.3521   21.6825 N   0  0  0  0  0  0  0  0  0  0  0  0
  -11.4077    3.0420   21.7823 C   0  0  0  0  0  0  0  0  0  0  0  0
  -12.3372    2.7429   22.5068 C   0  0  0  0  0  0  0  0  0  0  0  0
  -12.5547    1.7430   23.1116 C   0  0  0  0  0  0  0  0  0  0  0  0
  -13.6392    1.4839   23.9867 C   0  0  0  0  0  0  0  0  0  0  0  0
  -14.5303    2.5445   24.1462 C   0  0  0  0  0  0  0  0  0  0  0  0
  -14.3958    3.7369   23.5380 C   0  0  0  0  0  0  0  0  0  0  0  0
  -13.3125    3.9454   22.7432 C   0  0  0  0  0  0  0  0  0  0  0  0
  -11.2899    4.2224   21.0639 O   0  0  0  0  0  0  0  0  0  0  0  0
  -10.3467    0.1690   21.9013 O   0  0  0  0  0  0  0  0  0  0  0  0
  3  7  1  0
 11 13  1  0
 13 14  1  0
 14 15  1  0
 15 16  1  0
 15 22  2  0
 13 23  2  0
  1  2  2  0
  2  5  1  0
  5  6  2  0
  6  4  1  0
  4  3  2  0
  3  1  1  0
  7  8  2  0
  8  9  1  0
  9 10  2  0
 10 11  1  0
 11 12  2  0
 12  7  1  0
 16 17  2  0
 17 18  1  0
 18 19  2  0
 19 20  1  0
 20 21  2  0
 21 16  1  0
M  END
$$$$
