No_622-complexes_sdf/6BKW-FPZ/2024-09-17-14-21-01/
     RDKit          3D

 28 31  0  0  0  0  0  0  0  0999 V2000
   -7.9040    3.9820   27.1177 C   0  0  0  0  0  0  0  0  0  0  0  0
   -8.2057    2.8231   26.8733 C   0  0  0  0  0  0  0  0  0  0  0  0
   -8.7695    5.0740   26.7916 C   0  0  0  0  0  0  0  0  0  0  0  0
   -9.9618    4.7598   26.1630 C   0  0  0  0  0  0  0  0  0  0  0  0
   -9.4200    2.4524   26.2849 C   0  0  0  0  0  0  0  0  0  0  0  0
  -10.2590    3.4815   25.9250 C   0  0  0  0  0  0  0  0  0  0  0  0
   -8.6094    6.4941   27.0911 C   0  0  0  0  0  0  0  0  0  0  0  0
   -8.0678    6.9159   28.1425 N   0  0  0  0  0  0  0  0  0  0  0  0
   -8.9109    7.3396   26.1860 O   0  0  0  0  0  0  0  0  0  0  0  0
   -7.2678    1.6851   27.2866 C   0  0  0  0  0  0  0  0  0  0  0  0
   -6.0214    2.0125   27.8533 C   0  0  0  0  0  0  0  0  0  0  0  0
   -5.1262    0.9434   28.1988 C   0  0  0  0  0  0  0  0  0  0  0  0
   -5.5030   -0.3406   28.0597 C   0  0  0  0  0  0  0  0  0  0  0  0
   -7.5530    0.4083   27.1955 N   0  0  0  0  0  0  0  0  0  0  0  0
   -6.7980   -0.5801   27.6098 C   0  0  0  0  0  0  0  0  0  0  0  0
   -4.6524   -1.4201   28.5622 C   0  0  0  0  0  0  0  0  0  0  0  0
   -4.8709   -2.2104   29.3164 C   0  0  0  0  0  0  0  0  0  0  0  0
   -6.1532   -2.1827   30.1503 C   0  0  0  0  0  0  0  0  0  0  0  0
   -6.3454   -3.0888   31.2700 C   0  0  0  0  0  0  0  0  0  0  0  0
   -5.3463   -3.9926   31.4771 C   0  0  0  0  0  0  0  0  0  0  0  0
   -4.2144   -4.0791   30.8384 C   0  0  0  0  0  0  0  0  0  0  0  0
   -3.9092   -3.1976   29.8727 C   0  0  0  0  0  0  0  0  0  0  0  0
   -3.3457   -1.3611   27.8185 C   0  0  0  0  0  0  0  0  0  0  0  0
   -3.0969   -0.6573   26.6429 C   0  0  0  0  0  0  0  0  0  0  0  0
   -1.9258   -0.9001   26.0147 C   0  0  0  0  0  0  0  0  0  0  0  0
   -1.0711   -1.8915   26.4853 C   0  0  0  0  0  0  0  0  0  0  0  0
   -2.3510   -2.3271   28.1539 C   0  0  0  0  0  0  0  0  0  0  0  0
   -1.1602   -2.4507   27.4768 C   0  0  0  0  0  0  0  0  0  0  0  0
  3  7  1  0
  7  8  2  0
  7  9  1  0
  2 10  1  0
 13 16  1  0
 16 23  1  0
 16 17  1  0
 17 18  2  0
 18 19  1  0
 19 20  2  0
 20 21  1  0
 21 22  2  0
 22 17  1  0
 10 11  2  0
 11 12  1  0
 12 13  2  0
 13 15  1  0
 15 14  2  0
 14 10  1  0
 23 24  2  0
 24 25  1  0
 25 26  2  0
 26 28  1  0
 28 27  2  0
 27 23  1  0
  1  2  2  0
  2  5  1  0
  5  6  2  0
  6  4  1  0
  4  3  2  0
  3  1  1  0
M  END
$$$$
