No_6185-complexes_sdf/6BKW-FPZ/2024-09-17-14-21-01/
     RDKit          3D

 13 14  0  0  0  0  0  0  0  0999 V2000
   -7.7129    4.2099   27.0854 C   0  0  0  0  0  0  0  0  0  0  0  0
   -7.7814    5.1722   27.8972 C   0  0  0  0  0  0  0  0  0  0  0  0
   -8.8776    3.8408   26.3416 C   0  0  0  0  0  0  0  0  0  0  0  0
   -8.9136    2.6330   25.5655 C   0  0  0  0  0  0  0  0  0  0  0  0
   -8.8361    6.1389   27.9032 C   0  0  0  0  0  0  0  0  0  0  0  0
   -9.8295    4.8219   26.2726 C   0  0  0  0  0  0  0  0  0  0  0  0
   -9.8494    5.9177   27.0428 C   0  0  0  0  0  0  0  0  0  0  0  0
   -9.7332    1.7398   26.1329 C   0  0  0  0  0  0  0  0  0  0  0  0
  -10.6857    1.7808   26.8318 C   0  0  0  0  0  0  0  0  0  0  0  0
  -11.3149    0.9013   27.5085 C   0  0  0  0  0  0  0  0  0  0  0  0
  -10.8959   -0.4799   27.2668 C   0  0  0  0  0  0  0  0  0  0  0  0
   -9.2547    0.2713   25.9676 C   0  0  0  0  0  0  0  0  0  0  0  0
   -9.8832   -0.7256   26.5312 C   0  0  0  0  0  0  0  0  0  0  0  0
  3  4  1  0
  4  8  1  0
  1  2  2  0
  2  5  1  0
  5  7  2  0
  7  6  1  0
  6  3  2  0
  3  1  1  0
  8  9  2  0
  9 10  1  0
 10 11  2  0
 11 13  1  0
 13 12  2  0
 12  8  1  0
M  END
$$$$
