No_6451-complexes_sdf/6BKW-FPZ/2024-09-17-14-21-01/
     RDKit          3D

 18 19  0  0  0  0  0  0  0  0999 V2000
   -7.2496    3.8871   27.4508 C   0  0  0  0  0  0  0  0  0  0  0  0
   -7.6161    2.7143   27.1523 C   0  0  0  0  0  0  0  0  0  0  0  0
   -7.1619    1.8631   27.5232 C   0  0  0  0  0  0  0  0  0  0  0  0
   -8.0384    5.0866   27.3232 C   0  0  0  0  0  0  0  0  0  0  0  0
   -7.6402    6.3228   27.8917 C   0  0  0  0  0  0  0  0  0  0  0  0
   -5.7230    2.0528   27.9011 C   0  0  0  0  0  0  0  0  0  0  0  0
   -5.2386    3.1945   28.0476 N   0  0  0  0  0  0  0  0  0  0  0  0
   -5.9313    4.1470   27.9235 C   0  0  0  0  0  0  0  0  0  0  0  0
   -9.2767    5.0462   26.6108 C   0  0  0  0  0  0  0  0  0  0  0  0
   -5.0018    0.6767   28.0968 C   0  0  0  0  0  0  0  0  0  0  0  0
   -3.6354    0.8358   28.4694 C   0  0  0  0  0  0  0  0  0  0  0  0
   -3.0309   -0.3701   28.6179 C   0  0  0  0  0  0  0  0  0  0  0  0
   -5.5461   -0.4711   28.0210 C   0  0  0  0  0  0  0  0  0  0  0  0
   -4.9230   -1.6520   28.2763 C   0  0  0  0  0  0  0  0  0  0  0  0
   -3.5367   -1.5935   28.5870 C   0  0  0  0  0  0  0  0  0  0  0  0
  -10.2985    5.0589   27.3212 F   0  0  0  0  0  0  0  0  0  0  0  0
   -9.3560    6.1035   25.7000 F   0  0  0  0  0  0  0  0  0  0  0  0
   -9.5215    4.0636   25.7062 F   0  0  0  0  0  0  0  0  0  0  0  0
  4  5  1  0
  4  9  1  0
  6 10  1  0
  9 16  1  0
  9 17  1  0
  9 18  1  0
  4  1  1  0
 10 11  2  0
 11 12  1  0
 12 15  2  0
 15 14  1  0
 14 13  2  0
 13 10  1  0
  1  2  2  0
  2  3  1  0
  3  6  2  0
  6  7  1  0
  7  8  2  0
  8  1  1  0
M  END
$$$$
