No_6720-complexes_sdf/6BKW-FPZ/2024-09-17-14-21-01/
     RDKit          3D

 40 44  0  0  0  0  0  0  0  0999 V2000
   -7.2496    3.8871   27.4508 C   0  0  0  0  0  0  0  0  0  0  0  0
   -7.6161    2.7143   27.1523 C   0  0  0  0  0  0  0  0  0  0  0  0
   -8.8302    2.4659   26.5056 C   0  0  0  0  0  0  0  0  0  0  0  0
   -8.1584    5.0090   27.3234 C   0  0  0  0  0  0  0  0  0  0  0  0
   -9.3788    4.7965   26.7695 C   0  0  0  0  0  0  0  0  0  0  0  0
   -9.7028    3.5649   26.3276 C   0  0  0  0  0  0  0  0  0  0  0  0
   -6.9181    1.4461   27.3185 C   0  0  0  0  0  0  0  0  0  0  0  0
   -7.3229    0.1920   27.1907 C   0  0  0  0  0  0  0  0  0  0  0  0
   -8.6622    0.1161   26.6357 C   0  0  0  0  0  0  0  0  0  0  0  0
   -9.4033    1.2061   26.2798 C   0  0  0  0  0  0  0  0  0  0  0  0
   -7.6718    6.3468   27.7994 C   0  0  0  0  0  0  0  0  0  0  0  0
  -10.8729    3.4870   25.4503 C   0  0  0  0  0  0  0  0  0  0  0  0
  -12.1009    3.4759   25.9019 C   0  0  0  0  0  0  0  0  0  0  0  0
  -10.7021    3.3612   24.0224 C   0  0  0  0  0  0  0  0  0  0  0  0
  -11.6446    3.3954   23.1047 C   0  0  0  0  0  0  0  0  0  0  0  0
  -13.2026    3.5293   25.0434 C   0  0  0  0  0  0  0  0  0  0  0  0
  -12.9891    3.5103   23.6339 C   0  0  0  0  0  0  0  0  0  0  0  0
   -9.1592   -1.2489   26.3213 C   0  0  0  0  0  0  0  0  0  0  0  0
   -9.8532   -1.7739   27.0144 N   0  0  0  0  0  0  0  0  0  0  0  0
   -9.9628   -1.4918   28.2569 C   0  0  0  0  0  0  0  0  0  0  0  0
  -11.0287   -1.6760   29.0903 C   0  0  0  0  0  0  0  0  0  0  0  0
  -10.7499   -2.8563   26.6390 C   0  0  0  0  0  0  0  0  0  0  0  0
  -11.9360   -3.1064   27.3905 C   0  0  0  0  0  0  0  0  0  0  0  0
  -11.9084   -2.6981   28.7844 C   0  0  0  0  0  0  0  0  0  0  0  0
   -8.8175   -1.6535   25.1675 O   0  0  0  0  0  0  0  0  0  0  0  0
   -8.4845    7.3486   27.5372 F   0  0  0  0  0  0  0  0  0  0  0  0
   -7.6024    6.3426   29.1466 F   0  0  0  0  0  0  0  0  0  0  0  0
   -6.5297    6.6482   27.2828 F   0  0  0  0  0  0  0  0  0  0  0  0
   -5.4607    1.6483   27.9799 C   0  0  0  0  0  0  0  0  0  0  0  0
   -4.5146    0.7281   27.6019 C   0  0  0  0  0  0  0  0  0  0  0  0
   -4.1139    0.6690   26.6704 C   0  0  0  0  0  0  0  0  0  0  0  0
   -2.8957   -0.2555   26.3275 C   0  0  0  0  0  0  0  0  0  0  0  0
   -2.3890   -0.9883   27.3625 C   0  0  0  0  0  0  0  0  0  0  0  0
   -3.8843    0.0590   28.8312 C   0  0  0  0  0  0  0  0  0  0  0  0
   -2.8102   -0.7222   28.7103 C   0  0  0  0  0  0  0  0  0  0  0  0
   -4.4319    0.3920   30.4831 Cl  0  0  0  0  0  0  0  0  0  0  0  0
  -12.9611   -2.9535   29.4894 F   0  0  0  0  0  0  0  0  0  0  0  0
  -11.4356    3.4377   21.7001 C   0  0  0  0  0  0  0  0  0  0  0  0
  -12.1591    3.5293   20.7730 C   0  0  0  0  0  0  0  0  0  0  0  0
  -11.8110    3.4973   19.3327 C   0  0  0  0  0  0  0  0  0  0  0  0
  4 11  1  0
  6 12  1  0
  9 18  1  0
 18 19  1  0
 19 20  1  0
 19 22  1  0
 21 24  1  0
 23 24  1  0
 18 25  2  0
 11 26  1  0
 11 27  1  0
 11 28  1  0
  7 29  1  0
 29 30  1  0
 34 36  1  0
 24 37  1  0
 15 38  1  0
 38 39  2  3
 39 40  1  0
 20 21  1  0
 23 22  1  0
  1  2  2  0
  3  6  2  0
  6  5  1  0
  5  4  2  0
  4  1  1  0
 30 31  2  0
 31 32  1  0
 32 33  2  0
 33 35  1  0
 35 34  2  0
 34 30  1  0
  2  3  1  0
  3 10  1  0
 10  9  2  0
  9  8  1  0
  8  7  2  0
  7  2  1  0
 12 13  2  0
 13 16  1  0
 16 17  2  0
 17 15  1  0
 15 14  2  0
 14 12  1  0
M  END
$$$$
