No_6864-complexes_sdf/6BKW-FPZ/2024-09-17-14-21-01/
     RDKit          3D

 25 27  0  0  0  0  0  0  0  0999 V2000
   -7.2496    3.8871   27.4508 C   0  0  0  0  0  0  0  0  0  0  0  0
   -7.9379    4.9063   27.8518 C   0  0  0  0  0  0  0  0  0  0  0  0
   -7.5112    6.1898   27.6280 C   0  0  0  0  0  0  0  0  0  0  0  0
   -9.3085    4.6933   28.2930 C   0  0  0  0  0  0  0  0  0  0  0  0
   -7.7804    2.5137   27.6845 C   0  0  0  0  0  0  0  0  0  0  0  0
   -7.0499    1.4112   27.1570 C   0  0  0  0  0  0  0  0  0  0  0  0
   -7.2197    0.1763   27.6296 C   0  0  0  0  0  0  0  0  0  0  0  0
   -6.1690   -0.5748   28.1018 C   0  0  0  0  0  0  0  0  0  0  0  0
   -6.3707   -1.8147   28.7042 C   0  0  0  0  0  0  0  0  0  0  0  0
   -9.9029    3.4491   28.4214 C   0  0  0  0  0  0  0  0  0  0  0  0
   -9.1093    2.3947   28.0187 C   0  0  0  0  0  0  0  0  0  0  0  0
   -7.7077   -2.2783   28.7986 C   0  0  0  0  0  0  0  0  0  0  0  0
   -8.7513   -1.5538   28.2723 C   0  0  0  0  0  0  0  0  0  0  0  0
   -8.5323   -0.3147   27.7585 C   0  0  0  0  0  0  0  0  0  0  0  0
  -11.2920    3.2669   28.8328 C   0  0  0  0  0  0  0  0  0  0  0  0
  -12.2012    4.2978   28.9790 C   0  0  0  0  0  0  0  0  0  0  0  0
  -11.7569    1.9414   29.1060 C   0  0  0  0  0  0  0  0  0  0  0  0
  -13.5531    4.0807   29.3066 C   0  0  0  0  0  0  0  0  0  0  0  0
  -13.0632    1.6580   29.4330 C   0  0  0  0  0  0  0  0  0  0  0  0
  -13.9346    2.7437   29.5818 C   0  0  0  0  0  0  0  0  0  0  0  0
   -4.9444    0.1269   28.2815 C   0  0  0  0  0  0  0  0  0  0  0  0
   -4.5112    0.6979   29.4493 C   0  0  0  0  0  0  0  0  0  0  0  0
   -4.0185    0.0122   27.1551 C   0  0  0  0  0  0  0  0  0  0  0  0
   -2.7631    0.6646   27.1847 C   0  0  0  0  0  0  0  0  0  0  0  0
   -4.4046   -0.7071   26.0128 C   0  0  0  0  0  0  0  0  0  0  0  0
  2  3  1  0
  5  6  1  0
  6  7  1  0
 10 15  1  0
  8 21  1  0
 21 22  2  0
 21 23  1  0
 23 24  1  0
 23 25  1  0
  1  2  2  0
  2  4  1  0
  4 10  2  0
 10 11  1  0
 11  5  2  0
  5  1  1  0
  7  8  2  0
  8  9  1  0
  9 12  2  0
 12 13  1  0
 13 14  2  0
 14  7  1  0
 15 16  2  0
 16 18  1  0
 18 20  2  0
 20 19  1  0
 19 17  2  0
 17 15  1  0
M  END
$$$$
