No_6344-complexes_sdf/6BKW-FPZ/2024-09-17-14-21-01/
     RDKit          3D

 17 18  0  0  0  0  0  0  0  0999 V2000
   -7.7129    4.2099   27.0854 C   0  0  0  0  0  0  0  0  0  0  0  0
   -7.7814    5.1722   27.8972 C   0  0  0  0  0  0  0  0  0  0  0  0
   -8.7889    3.2468   27.2220 C   0  0  0  0  0  0  0  0  0  0  0  0
   -8.7402    2.0341   26.3990 C   0  0  0  0  0  0  0  0  0  0  0  0
   -8.9680    5.6562   28.5183 C   0  0  0  0  0  0  0  0  0  0  0  0
   -9.9491    3.5176   27.8853 C   0  0  0  0  0  0  0  0  0  0  0  0
  -10.0212    4.7882   28.5980 C   0  0  0  0  0  0  0  0  0  0  0  0
   -9.5483    1.7012   25.4749 C   0  0  0  0  0  0  0  0  0  0  0  0
   -9.3876    0.5294   24.7039 C   0  0  0  0  0  0  0  0  0  0  0  0
  -10.2163    0.3221   23.5364 C   0  0  0  0  0  0  0  0  0  0  0  0
  -11.1612    1.3075   23.1806 C   0  0  0  0  0  0  0  0  0  0  0  0
  -11.2707    2.4578   23.8826 C   0  0  0  0  0  0  0  0  0  0  0  0
  -10.4148    2.7071   25.0089 C   0  0  0  0  0  0  0  0  0  0  0  0
   -7.6305    1.0897   26.8266 C   0  0  0  0  0  0  0  0  0  0  0  0
   -6.4758    1.4820   26.6895 F   0  0  0  0  0  0  0  0  0  0  0  0
   -7.8884    0.6523   28.1725 F   0  0  0  0  0  0  0  0  0  0  0  0
   -7.7090   -0.1340   26.2096 F   0  0  0  0  0  0  0  0  0  0  0  0
  3  4  1  0
  4 14  1  0
 14 15  1  0
 14 16  1  0
 14 17  1  0
  4  8  1  0
  8  9  2  0
  9 10  1  0
 10 11  2  0
 11 12  1  0
 12 13  2  0
 13  8  1  0
  1  2  2  0
  2  5  1  0
  5  7  2  0
  7  6  1  0
  6  3  2  0
  3  1  1  0
M  END
$$$$
