No_6313-complexes_sdf/6BKW-FPZ/2024-09-17-14-21-01/
     RDKit          3D

 13 14  0  0  0  0  0  0  0  0999 V2000
   -7.7129    4.2099   27.0854 C   0  0  0  0  0  0  0  0  0  0  0  0
   -8.2112    3.0637   26.9225 C   0  0  0  0  0  0  0  0  0  0  0  0
   -8.4224    5.2106   27.8516 C   0  0  0  0  0  0  0  0  0  0  0  0
   -9.5628    2.7160   27.4089 C   0  0  0  0  0  0  0  0  0  0  0  0
  -10.2639    3.7034   28.1156 C   0  0  0  0  0  0  0  0  0  0  0  0
   -9.6647    5.0082   28.0158 C   0  0  0  0  0  0  0  0  0  0  0  0
  -10.1294    1.3847   27.2971 C   0  0  0  0  0  0  0  0  0  0  0  0
  -10.8104    0.9764   26.2928 C   0  0  0  0  0  0  0  0  0  0  0  0
  -11.2569   -0.2286   26.1997 C   0  0  0  0  0  0  0  0  0  0  0  0
  -11.9508   -0.7173   25.0349 C   0  0  0  0  0  0  0  0  0  0  0  0
  -12.0663    0.1547   23.9906 C   0  0  0  0  0  0  0  0  0  0  0  0
  -11.4912    1.4139   24.0284 C   0  0  0  0  0  0  0  0  0  0  0  0
  -10.8241    1.8763   25.1690 C   0  0  0  0  0  0  0  0  0  0  0  0
  4  7  1  0
  7  8  1  0
  1  2  2  0
  2  4  1  0
  4  5  2  0
  5  6  1  0
  6  3  2  0
  3  1  1  0
  8  9  2  0
  9 10  1  0
 10 11  2  0
 11 12  1  0
 12 13  2  0
 13  8  1  0
M  END
$$$$
