No_6209-complexes_sdf/6BKW-FPZ/2024-09-17-14-21-01/
     RDKit          3D

 34 38  0  0  0  0  0  0  0  0999 V2000
   -7.2496    3.8871   27.4508 C   0  0  0  0  0  0  0  0  0  0  0  0
   -7.6161    2.7143   27.1523 C   0  0  0  0  0  0  0  0  0  0  0  0
   -7.1619    1.8631   27.5232 C   0  0  0  0  0  0  0  0  0  0  0  0
   -5.9773    4.1571   28.0182 C   0  0  0  0  0  0  0  0  0  0  0  0
   -5.7613    1.7985   28.0431 C   0  0  0  0  0  0  0  0  0  0  0  0
   -5.0420    0.7273   28.3219 N   0  0  0  0  0  0  0  0  0  0  0  0
   -5.2343    3.1418   28.2838 C   0  0  0  0  0  0  0  0  0  0  0  0
   -3.8798    0.7062   28.9468 C   0  0  0  0  0  0  0  0  0  0  0  0
   -5.6382   -0.5885   28.1274 C   0  0  0  0  0  0  0  0  0  0  0  0
   -8.0860    5.1777   27.1098 C   0  0  0  0  0  0  0  0  0  0  0  0
   -9.1610    5.1874   26.1928 C   0  0  0  0  0  0  0  0  0  0  0  0
   -7.7795    6.4529   27.7295 C   0  0  0  0  0  0  0  0  0  0  0  0
   -8.4857    7.5835   27.2782 C   0  0  0  0  0  0  0  0  0  0  0  0
   -9.5124    3.9169   25.6582 C   0  0  0  0  0  0  0  0  0  0  0  0
   -8.8919    2.6957   26.2250 C   0  0  0  0  0  0  0  0  0  0  0  0
   -5.2050   -1.5621   28.8761 C   0  0  0  0  0  0  0  0  0  0  0  0
   -3.2761   -0.2955   29.7121 C   0  0  0  0  0  0  0  0  0  0  0  0
   -3.9503   -1.5109   29.5917 C   0  0  0  0  0  0  0  0  0  0  0  0
  -10.6005    3.8001   24.7588 C   0  0  1  0  0  0  0  0  0  0  0  0
  -10.4039    3.6212   23.4087 C   0  0  0  0  0  0  0  0  0  0  0  0
   -9.1612    3.2973   22.9060 C   0  0  0  0  0  0  0  0  0  0  0  0
   -9.0986    2.8001   21.5422 C   0  0  0  0  0  0  0  0  0  0  0  0
  -11.4427    3.7772   22.5182 C   0  0  0  0  0  0  0  0  0  0  0  0
  -11.4040    3.4956   21.1750 C   0  0  0  0  0  0  0  0  0  0  0  0
  -10.1935    3.0147   20.6731 C   0  0  0  0  0  0  0  0  0  0  0  0
  -11.9229    3.7467   25.3536 C   0  0  0  0  0  0  0  0  0  0  0  0
  -12.1311    4.0724   26.5498 N   0  0  0  0  0  0  0  0  0  0  0  0
  -13.3625    4.2098   27.2067 C   0  0  0  0  0  0  0  0  0  0  0  0
  -12.9099    3.5336   24.6306 O   0  0  0  0  0  0  0  0  0  0  0  0
  -13.2493    4.2785   28.5993 C   0  0  0  0  0  0  0  0  0  0  0  0
  -14.4105    4.3841   29.3865 C   0  0  0  0  0  0  0  0  0  0  0  0
  -15.6328    4.6423   28.7503 C   0  0  0  0  0  0  0  0  0  0  0  0
  -15.6597    4.6266   27.3459 C   0  0  0  0  0  0  0  0  0  0  0  0
  -14.5387    4.4649   26.6427 C   0  0  0  0  0  0  0  0  0  0  0  0
  5  6  1  0
  6  8  1  0
  6  9  1  0
 10 12  1  0
 12 13  2  0
 16 18  1  0
 17 18  1  0
 14 19  1  0
 19 26  1  1
 26 27  1  0
 27 28  1  0
 26 29  2  0
 19 20  1  0
  8 17  1  0
 16  9  1  0
 20 21  2  0
 21 22  1  0
 22 25  2  0
 25 24  1  0
 24 23  2  0
 23 20  1  0
  2 15  1  0
 15 14  2  0
 14 11  1  0
 11 10  2  0
 10  1  1  0
 28 30  2  0
 30 31  1  0
 31 32  2  0
 32 33  1  0
 33 34  2  0
 34 28  1  0
  1  2  1  0
  2  3  2  0
  3  5  1  0
  5  7  2  0
  7  4  1  0
  4  1  2  0
M  END
$$$$
