No_668-complexes_sdf/6BKW-FPZ/2024-09-17-14-21-01/
     RDKit          3D

 21 24  0  0  0  0  0  0  0  0999 V2000
   -7.2496    3.8871   27.4508 C   0  0  0  0  0  0  0  0  0  0  0  0
   -7.9379    4.9063   27.8518 C   0  0  0  0  0  0  0  0  0  0  0  0
   -7.5112    6.1898   27.6280 C   0  0  0  0  0  0  0  0  0  0  0  0
   -7.8078    2.6331   27.2522 C   0  0  0  0  0  0  0  0  0  0  0  0
   -7.1538    1.5087   26.7509 C   0  0  0  0  0  0  0  0  0  0  0  0
   -9.2627    2.5305   27.2363 C   0  0  0  0  0  0  0  0  0  0  0  0
   -9.8316    1.3863   26.9098 C   0  0  0  0  0  0  0  0  0  0  0  0
   -7.7292    0.3404   26.4662 C   0  0  0  0  0  0  0  0  0  0  0  0
   -9.1383    0.2548   26.6233 C   0  0  0  0  0  0  0  0  0  0  0  0
   -9.3055    4.7704   28.3353 C   0  0  0  0  0  0  0  0  0  0  0  0
  -10.0068    3.5944   27.8736 C   0  0  2  0  0  0  0  0  0  0  0  0
  -11.4034    3.4551   28.2201 C   0  0  0  0  0  0  0  0  0  0  0  0
  -12.3036    4.3377   27.7668 C   0  0  0  0  0  0  0  0  0  0  0  0
  -13.6037    4.5531   28.2347 C   0  0  0  0  0  0  0  0  0  0  0  0
  -14.0167    3.6727   29.2353 C   0  0  0  0  0  0  0  0  0  0  0  0
  -13.1529    2.6587   29.7347 C   0  0  0  0  0  0  0  0  0  0  0  0
  -11.8343    2.6079   29.3049 C   0  0  0  0  0  0  0  0  0  0  0  0
   -9.8040   -0.9957   26.2425 C   0  0  0  0  0  0  0  0  0  0  0  0
  -10.9722   -1.1125   26.5784 C   0  0  0  0  0  0  0  0  0  0  0  0
  -11.8088    0.0535   26.9676 C   0  0  0  0  0  0  0  0  0  0  0  0
  -11.2036    1.2049   27.1136 C   0  0  0  0  0  0  0  0  0  0  0  0
  1  2  1  0
  2  3  2  0
  1  4  1  0
  2 10  1  0
  6 11  1  0
 10 11  1  0
 11 12  1  1
  9 18  1  0
 18 19  2  0
 19 20  1  0
 20 21  2  0
 21  7  1  0
 12 13  2  0
 13 14  1  0
 14 15  2  0
 15 16  1  0
 16 17  2  0
 17 12  1  0
  4  5  2  0
  5  8  1  0
  8  9  2  0
  9  7  1  0
  7  6  2  0
  6  4  1  0
M  END
$$$$
