No_6388-complexes_sdf/6BKW-FPZ/2024-09-17-14-21-01/
     RDKit          3D

 13 13  0  0  0  0  0  0  0  0999 V2000
   -7.7129    4.2099   27.0854 C   0  0  0  0  0  0  0  0  0  0  0  0
   -8.9133    4.4736   27.0998 C   0  0  1  0  0  0  0  0  0  0  0  0
   -9.4643    5.5426   27.7628 C   0  0  0  0  0  0  0  0  0  0  0  0
   -9.8091    3.6358   26.2841 C   0  0  0  0  0  0  0  0  0  0  0  0
  -10.3717    2.5594   26.9241 C   0  0  0  0  0  0  0  0  0  0  0  0
  -10.3040    2.3353   28.2164 C   0  0  0  0  0  0  0  0  0  0  0  0
   -6.8256    4.9273   28.0591 C   0  0  0  0  0  0  0  0  0  0  0  0
  -10.9485    1.4724   26.0802 C   0  0  0  0  0  0  0  0  0  0  0  0
  -10.5995    0.4058   26.0238 C   0  0  0  0  0  0  0  0  0  0  0  0
  -11.3948   -0.6204   25.6126 C   0  0  0  0  0  0  0  0  0  0  0  0
  -12.4774   -0.2786   24.7962 C   0  0  0  0  0  0  0  0  0  0  0  0
  -12.8455    1.0319   24.7353 C   0  0  0  0  0  0  0  0  0  0  0  0
  -12.1593    2.0016   25.4822 C   0  0  0  0  0  0  0  0  0  0  0  0
  1  2  1  0
  2  3  1  6
  2  4  1  0
  4  5  1  0
  5  6  2  0
  1  7  1  0
  5  8  1  0
  8  9  2  0
  9 10  1  0
 10 11  2  0
 11 12  1  0
 12 13  2  0
 13  8  1  0
M  END
$$$$
