No_6128-complexes_sdf/6BKW-FPZ/2024-09-17-14-21-01/
     RDKit          3D

 16 18  0  0  0  0  0  0  0  0999 V2000
   -7.7129    4.2099   27.0854 C   0  0  0  0  0  0  0  0  0  0  0  0
   -7.7814    5.1722   27.8972 C   0  0  0  0  0  0  0  0  0  0  0  0
   -7.3155    2.9700   27.6145 C   0  0  0  0  0  0  0  0  0  0  0  0
   -7.6814    1.8188   26.9581 C   0  0  0  0  0  0  0  0  0  0  0  0
   -8.6377    1.9131   25.9324 C   0  0  0  0  0  0  0  0  0  0  0  0
   -9.0136    0.6482   25.3285 C   0  0  0  0  0  0  0  0  0  0  0  0
   -8.7885    4.0863   26.1558 C   0  0  0  0  0  0  0  0  0  0  0  0
   -9.1513    3.0071   25.5414 C   0  0  0  0  0  0  0  0  0  0  0  0
   -8.1409    6.5087   27.5229 N   0  0  0  0  0  0  0  0  0  0  0  0
   -9.2120    0.4995   24.1147 C   0  0  0  0  0  0  0  0  0  0  0  0
   -9.6446   -0.7082   23.4224 C   0  0  0  0  0  0  0  0  0  0  0  0
   -9.7990   -1.8092   24.2349 C   0  0  0  0  0  0  0  0  0  0  0  0
   -9.2672   -0.5518   25.9863 C   0  0  0  0  0  0  0  0  0  0  0  0
   -9.6248   -1.7038   25.5375 C   0  0  0  0  0  0  0  0  0  0  0  0
   -9.1331    6.6929   26.7249 C   0  0  0  0  0  0  0  0  0  0  0  0
   -9.4659    5.4619   25.8413 C   0  0  0  0  0  0  0  0  0  0  0  0
  5  6  1  0
  1  2  2  0
  2  9  1  0
  9 15  2  0
 15 16  1  0
 16  7  2  0
  1  3  1  0
  3  4  2  0
  4  5  1  0
  5  8  2  0
  8  7  1  0
  7  1  1  0
  6 10  2  0
 10 11  1  0
 11 12  2  0
 12 14  1  0
 14 13  2  0
 13  6  1  0
M  END
$$$$
