No_6363-complexes_sdf/6BKW-FPZ/2024-09-17-14-21-01/
     RDKit          3D

 23 26  0  0  0  0  0  0  0  0999 V2000
   -7.7129    4.2099   27.0854 C   0  0  0  0  0  0  0  0  0  0  0  0
   -8.2112    3.0637   26.9225 C   0  0  0  0  0  0  0  0  0  0  0  0
   -8.5108    5.3904   26.9436 C   0  0  0  0  0  0  0  0  0  0  0  0
   -7.9752    6.6981   27.2112 C   0  0  1  0  0  0  0  0  0  0  0  0
   -9.5213    2.8209   26.4688 C   0  0  0  0  0  0  0  0  0  0  0  0
  -10.2979    3.9327   26.2378 C   0  0  0  0  0  0  0  0  0  0  0  0
   -9.7894    5.2123   26.4395 C   0  0  0  0  0  0  0  0  0  0  0  0
   -7.3451    1.8185   27.1796 C   0  0  0  0  0  0  0  0  0  0  0  0
   -6.1581    1.9961   27.7424 N   0  0  0  0  0  0  0  0  0  0  0  0
   -5.4007    0.8419   28.0047 C   0  0  0  0  0  0  0  0  0  0  0  0
   -4.0760    0.9806   28.6411 C   0  0  0  0  0  0  0  0  0  0  0  0
   -3.4407   -0.1806   29.0718 C   0  0  0  0  0  0  0  0  0  0  0  0
   -3.9329   -1.3743   28.7688 C   0  0  0  0  0  0  0  0  0  0  0  0
   -5.7516   -0.4972   27.8796 C   0  0  0  0  0  0  0  0  0  0  0  0
   -7.0802   -0.5510   27.2393 C   0  0  0  0  0  0  0  0  0  0  0  0
   -7.8618    0.5637   26.9934 C   0  0  0  0  0  0  0  0  0  0  0  0
   -5.1297   -1.5560   28.2459 C   0  0  0  0  0  0  0  0  0  0  0  0
   -6.9257    6.8609   27.8727 N   0  0  0  0  0  0  0  0  0  0  0  0
   -8.3293    7.8565   26.3791 C   0  0  0  0  0  0  0  0  0  0  0  0
   -7.6609   -1.8319   26.9779 C   0  0  0  0  0  0  0  0  0  0  0  0
   -8.8104   -1.8381   26.5264 C   0  0  0  0  0  0  0  0  0  0  0  0
   -9.5989   -0.7168   26.1929 C   0  0  0  0  0  0  0  0  0  0  0  0
   -9.0909    0.4462   26.4390 C   0  0  0  0  0  0  0  0  0  0  0  0
  3  4  1  0
  2  8  1  0
  4 18  1  0
  4 19  1  6
  8  9  2  0
  9 10  1  0
 14 15  1  0
 16  8  1  0
 15 16  2  0
 16 23  1  0
 23 22  2  0
 22 21  1  0
 21 20  2  0
 20 15  1  0
 10 11  2  0
 11 12  1  0
 12 13  2  0
 13 17  1  0
 17 14  2  0
 14 10  1  0
  1  2  2  0
  2  5  1  0
  5  6  2  0
  6  7  1  0
  7  3  2  0
  3  1  1  0
M  END
$$$$
