No_6166-complexes_sdf/6BKW-FPZ/2024-09-17-14-21-01/
     RDKit          3D

 40 46  0  0  0  0  0  0  0  0999 V2000
   -7.7129    4.2099   27.0854 C   0  0  0  0  0  0  0  0  0  0  0  0
   -8.2112    3.0637   26.9225 C   0  0  0  0  0  0  0  0  0  0  0  0
   -8.5108    5.3904   26.9436 C   0  0  0  0  0  0  0  0  0  0  0  0
   -7.9752    6.6981   27.2112 C   0  0  0  0  0  0  0  0  0  0  0  0
   -9.5213    2.8208   26.4688 C   0  0  0  0  0  0  0  0  0  0  0  0
  -10.2979    3.9327   26.2378 C   0  0  0  0  0  0  0  0  0  0  0  0
   -9.7894    5.2123   26.4395 C   0  0  0  0  0  0  0  0  0  0  0  0
   -7.3451    1.8185   27.1796 C   0  0  0  0  0  0  0  0  0  0  0  0
   -6.0720    1.9951   27.7873 C   0  0  0  0  0  0  0  0  0  0  0  0
   -5.2849    0.8281   28.0481 C   0  0  0  0  0  0  0  0  0  0  0  0
   -5.8252   -0.4014   27.8067 C   0  0  0  0  0  0  0  0  0  0  0  0
   -7.7436    0.5060   27.0251 C   0  0  0  0  0  0  0  0  0  0  0  0
   -9.0935    0.3885   26.5093 C   0  0  0  0  0  0  0  0  0  0  0  0
   -7.0305   -0.5488   27.3368 C   0  0  0  0  0  0  0  0  0  0  0  0
   -9.7304   -0.8372   26.2553 C   0  0  0  0  0  0  0  0  0  0  0  0
   -9.8629    1.6198   26.2589 C   0  0  1  0  0  0  0  0  0  0  0  0
   -8.6109    7.8217   26.8303 N   0  0  0  0  0  0  0  0  0  0  0  0
   -6.8433    6.7878   27.8110 O   0  0  0  0  0  0  0  0  0  0  0  0
   -3.9087    1.1161   28.6318 C   0  0  0  0  0  0  0  0  0  0  0  0
   -3.4681    0.3718   29.5616 O   0  0  0  0  0  0  0  0  0  0  0  0
  -10.9150   -0.7954   26.0627 C   0  0  0  0  0  0  0  0  0  0  0  0
  -11.1691    1.0940   25.8541 C   0  0  0  0  0  0  0  0  0  0  0  0
   -4.0023    0.1186   30.6712 C   0  0  0  0  0  0  0  0  0  0  0  0
   -3.0573   -0.4543   31.6716 C   0  0  0  0  0  0  0  0  0  0  0  0
   -3.6027   -0.7128   33.0094 C   0  0  0  0  0  0  0  0  0  0  0  0
   -2.8155   -1.1989   34.0245 C   0  0  0  0  0  0  0  0  0  0  0  0
   -1.4186   -1.4904   33.6942 C   0  0  0  0  0  0  0  0  0  0  0  0
   -1.0037   -1.3701   32.4042 C   0  0  0  0  0  0  0  0  0  0  0  0
   -1.7947   -0.8565   31.4293 C   0  0  0  0  0  0  0  0  0  0  0  0
   -3.3360   -1.2968   35.3837 C   0  0  0  0  0  0  0  0  0  0  0  0
   -4.6054   -1.5556   35.5736 C   0  0  0  0  0  0  0  0  0  0  0  0
   -5.2025   -1.6154   36.8892 C   0  0  0  0  0  0  0  0  0  0  0  0
   -4.3645   -1.2861   37.9929 C   0  0  0  0  0  0  0  0  0  0  0  0
   -4.9272   -1.2629   39.3256 C   0  0  0  0  0  0  0  0  0  0  0  0
   -2.5137   -0.9029   36.5094 C   0  0  0  0  0  0  0  0  0  0  0  0
   -3.0651   -0.9055   37.8027 C   0  0  0  0  0  0  0  0  0  0  0  0
   -4.4474   -0.7132   40.2230 C   0  0  0  0  0  0  0  0  0  0  0  0
   -3.0188   -0.2335   40.0569 C   0  0  0  0  0  0  0  0  0  0  0  0
   -2.3293   -0.3219   38.8799 C   0  0  0  0  0  0  0  0  0  0  0  0
   -0.9926    0.2068   38.7240 C   0  0  0  0  0  0  0  0  0  0  0  0
  3  4  1  0
  2  8  1  0
 12 13  1  0
  5 16  1  0
 13 16  1  0
  4 17  1  0
  4 18  2  0
 10 19  1  0
 19 20  1  0
 15 21  1  0
 16 22  1  1
 21 22  2  0
 20 23  1  0
 26 30  1  0
 39 40  1  0
 15 13  1  0
 23 24  1  0
  8  9  2  0
  9 10  1  0
 10 11  2  0
 11 14  1  0
 14 12  2  0
 12  8  1  0
 24 25  2  0
 25 26  1  0
 26 27  2  0
 27 28  1  0
 28 29  2  0
 29 24  1  0
  1  2  2  0
  2  5  1  0
  5  6  2  0
  6  7  1  0
  7  3  2  0
  3  1  1  0
 33 34  1  0
 34 37  2  0
 37 38  1  0
 38 39  2  0
 39 36  1  0
 30 31  2  0
 31 32  1  0
 32 33  2  0
 33 36  1  0
 36 35  2  0
 35 30  1  0
M  END
$$$$
