No_6996-complexes_sdf/6BKW-FPZ/2024-09-17-14-21-01/
     RDKit          3D

 15 16  0  0  0  0  0  0  0  0999 V2000
   -7.9040    3.9820   27.1177 C   0  0  0  0  0  0  0  0  0  0  0  0
   -7.8663    4.8694   27.9238 C   0  0  0  0  0  0  0  0  0  0  0  0
   -7.4547    2.7080   27.4594 C   0  0  0  0  0  0  0  0  0  0  0  0
   -8.7044    6.0412   27.8492 C   0  0  0  0  0  0  0  0  0  0  0  0
   -6.0327    2.6839   27.7677 C   0  0  0  0  0  0  0  0  0  0  0  0
   -5.4461    1.4338   28.1200 C   0  0  0  0  0  0  0  0  0  0  0  0
   -6.1237    0.2685   27.9529 C   0  0  0  0  0  0  0  0  0  0  0  0
   -8.0296    1.4823   27.2081 C   0  0  0  0  0  0  0  0  0  0  0  0
   -7.4425    0.2979   27.4502 C   0  0  0  0  0  0  0  0  0  0  0  0
   -9.0449    4.1098   26.2040 C   0  0  0  0  0  0  0  0  0  0  0  0
   -9.6416    5.2539   25.8139 C   0  0  0  0  0  0  0  0  0  0  0  0
   -9.3991    6.3440   26.7072 C   0  0  0  0  0  0  0  0  0  0  0  0
   -5.4478   -1.0028   28.2146 C   0  0  0  0  0  0  0  0  0  0  0  0
   -4.1757   -1.0977   28.4174 C   0  0  0  0  0  0  0  0  0  0  0  0
   -3.5391   -2.3118   28.7536 C   0  0  0  0  0  0  0  0  0  0  0  0
  1  3  1  0
  7 13  1  0
 13 14  2  3
 14 15  1  0
  1  2  2  0
  2  4  1  0
  4 12  2  0
 12 11  1  0
 11 10  2  0
 10  1  1  0
  3  5  2  0
  5  6  1  0
  6  7  2  0
  7  9  1  0
  9  8  2  0
  8  3  1  0
M  END
$$$$
