No_6505-complexes_sdf/6BKW-FPZ/2024-09-17-14-21-01/
     RDKit          3D

 24 27  0  0  0  0  0  0  0  0999 V2000
   -7.9040    3.9820   27.1177 C   0  0  0  0  0  0  0  0  0  0  0  0
   -8.2057    2.8231   26.8733 C   0  0  0  0  0  0  0  0  0  0  0  0
   -8.7695    5.0740   26.7916 C   0  0  0  0  0  0  0  0  0  0  0  0
   -8.4337    6.4678   27.0913 C   0  0  0  0  0  0  0  0  0  0  0  0
   -9.3742    2.4311   26.2346 C   0  0  0  0  0  0  0  0  0  0  0  0
  -10.2395    3.4267   25.8887 C   0  0  0  0  0  0  0  0  0  0  0  0
   -9.9567    4.7548   26.1374 C   0  0  0  0  0  0  0  0  0  0  0  0
   -7.3352    6.7089   26.8662 F   0  0  0  0  0  0  0  0  0  0  0  0
   -8.8744    6.7143   28.4556 F   0  0  0  0  0  0  0  0  0  0  0  0
   -9.2025    7.3079   26.3054 F   0  0  0  0  0  0  0  0  0  0  0  0
   -7.2355    1.7003   27.3126 C   0  0  0  0  0  0  0  0  0  0  0  0
   -5.9611    1.9911   27.8119 C   0  0  0  0  0  0  0  0  0  0  0  0
   -5.0751    0.9440   28.2032 C   0  0  0  0  0  0  0  0  0  0  0  0
   -5.5060   -0.3513   28.1454 C   0  0  0  0  0  0  0  0  0  0  0  0
   -7.3966    0.2990   27.3147 C   0  0  0  0  0  0  0  0  0  0  0  0
   -4.5876   -1.3614   28.6428 C   0  0  0  0  0  0  0  0  0  0  0  0
   -6.6915   -0.6300   27.7656 C   0  0  0  0  0  0  0  0  0  0  0  0
   -4.6469   -2.3938   28.5952 C   0  0  0  0  0  0  0  0  0  0  0  0
   -3.6935   -3.4287   29.1283 C   0  0  0  0  0  0  0  0  0  0  0  0
   -2.5363   -2.9393   29.7268 C   0  0  0  0  0  0  0  0  0  0  0  0
   -3.3142   -0.7042   29.3677 C   0  0  0  0  0  0  0  0  0  0  0  0
   -3.1600    0.6659   29.4968 N   0  0  0  0  0  0  0  0  0  0  0  0
   -2.3176   -1.5717   29.8910 C   0  0  0  0  0  0  0  0  0  0  0  0
   -3.9772    1.5319   28.9111 C   0  0  0  0  0  0  0  0  0  0  0  0
  3  4  1  0
  4  8  1  0
  4  9  1  0
  4 10  1  0
  2 11  1  0
 14 16  2  0
 21 22  2  0
 22 24  1  0
 24 13  2  0
  1  2  2  0
  2  5  1  0
  5  6  2  0
  6  7  1  0
  7  3  2  0
  3  1  1  0
 11 12  2  0
 12 13  1  0
 13 14  1  0
 14 17  1  0
 17 15  2  0
 15 11  1  0
 16 18  1  0
 18 19  2  0
 19 20  1  0
 20 23  2  0
 23 21  1  0
 21 16  1  0
M  END
$$$$
