No_6993-complexes_sdf/6BKW-FPZ/2024-09-17-14-21-01/
     RDKit          3D

 25 27  0  0  0  0  0  0  0  0999 V2000
   -7.9040    3.9820   27.1177 C   0  0  0  0  0  0  0  0  0  0  0  0
   -7.8663    4.8694   27.9238 C   0  0  1  0  0  0  0  0  0  0  0  0
   -7.4547    2.7080   27.4594 C   0  0  0  0  0  0  0  0  0  0  0  0
   -7.9337    1.5946   26.8372 C   0  0  0  0  0  0  0  0  0  0  0  0
   -8.9032    1.7881   25.8510 C   0  0  0  0  0  0  0  0  0  0  0  0
   -9.3787    2.9871   25.5530 C   0  0  0  0  0  0  0  0  0  0  0  0
   -8.9781    4.0300   26.2200 C   0  0  0  0  0  0  0  0  0  0  0  0
   -7.0491    4.9785   28.9506 N   0  0  0  0  0  0  0  0  0  0  0  0
   -8.5617    6.2553   27.6617 C   0  0  0  0  0  0  0  0  0  0  0  0
  -10.3455    3.1187   24.4096 C   0  0  0  0  0  0  0  0  0  0  0  0
  -10.8810    4.3107   24.0700 C   0  0  0  0  0  0  0  0  0  0  0  0
  -11.7888    4.5253   23.0187 C   0  0  0  0  0  0  0  0  0  0  0  0
  -12.1497    3.4700   22.2254 C   0  0  0  0  0  0  0  0  0  0  0  0
  -11.5612    2.2014   22.5376 C   0  0  0  0  0  0  0  0  0  0  0  0
  -10.6949    2.0367   23.5726 C   0  0  0  0  0  0  0  0  0  0  0  0
   -7.2044    0.3585   27.2155 C   0  0  0  0  0  0  0  0  0  0  0  0
   -6.8206   -0.3029   26.1555 F   0  0  0  0  0  0  0  0  0  0  0  0
   -6.1446    0.6140   27.9546 F   0  0  0  0  0  0  0  0  0  0  0  0
   -8.1053   -0.4240   27.9211 F   0  0  0  0  0  0  0  0  0  0  0  0
  -11.9542    1.0340   21.7046 C   0  0  0  0  0  0  0  0  0  0  0  0
  -11.4209   -0.0728   21.9036 C   0  0  0  0  0  0  0  0  0  0  0  0
  -11.7702   -1.2089   21.3099 C   0  0  0  0  0  0  0  0  0  0  0  0
  -12.6918   -1.1010   20.2151 C   0  0  0  0  0  0  0  0  0  0  0  0
  -12.9121    1.1449   20.6547 C   0  0  0  0  0  0  0  0  0  0  0  0
  -13.2578    0.0820   19.9497 C   0  0  0  0  0  0  0  0  0  0  0  0
  1  2  1  0
  2  8  1  0
  2  9  1  6
  6 10  1  0
  4 16  1  0
 16 17  1  0
 16 18  1  0
 16 19  1  0
 14 20  1  0
 20 21  2  0
 21 22  1  0
 22 23  2  0
 23 25  1  0
 25 24  2  0
 24 20  1  0
 10 11  2  0
 11 12  1  0
 12 13  2  0
 13 14  1  0
 14 15  2  0
 15 10  1  0
  1  3  2  0
  3  4  1  0
  4  5  2  0
  5  6  1  0
  6  7  2  0
  7  1  1  0
M  END
$$$$
