No_6613-complexes_sdf/6BKW-FPZ/2024-09-17-14-21-01/
     RDKit          3D

 19 21  0  0  0  0  0  0  0  0999 V2000
   -7.9040    3.9820   27.1177 C   0  0  0  0  0  0  0  0  0  0  0  0
   -9.0711    4.3164   27.0630 C   0  0  0  0  0  0  0  0  0  0  0  0
   -9.5182    5.5541   27.5777 C   0  0  0  0  0  0  0  0  0  0  0  0
   -6.9424    4.7983   27.8424 C   0  0  0  0  0  0  0  0  0  0  0  0
   -7.3526    5.9739   28.3909 C   0  0  0  0  0  0  0  0  0  0  0  0
   -8.6479    6.3742   28.2170 C   0  0  0  0  0  0  0  0  0  0  0  0
  -10.0793    3.4689   26.3368 C   0  0  0  0  0  0  0  0  0  0  0  0
   -9.6567    2.5965   25.4484 C   0  0  0  0  0  0  0  0  0  0  0  0
  -10.5086    1.8159   24.6228 C   0  0  0  0  0  0  0  0  0  0  0  0
  -11.8698    2.1070   24.6818 C   0  0  0  0  0  0  0  0  0  0  0  0
  -11.5100    3.6494   26.3434 C   0  0  0  0  0  0  0  0  0  0  0  0
  -12.3579    3.0256   25.6196 C   0  0  0  0  0  0  0  0  0  0  0  0
  -10.0486    0.9320   23.7711 F   0  0  0  0  0  0  0  0  0  0  0  0
  -13.8002    3.2863   25.6956 C   0  0  0  0  0  0  0  0  0  0  0  0
  -14.4260    3.9175   24.8181 C   0  0  0  0  0  0  0  0  0  0  0  0
  -15.7807    4.3256   24.9359 C   0  0  0  0  0  0  0  0  0  0  0  0
  -14.4490    2.8661   26.8596 C   0  0  0  0  0  0  0  0  0  0  0  0
  -15.8020    3.1960   27.0684 C   0  0  0  0  0  0  0  0  0  0  0  0
  -16.4487    3.9599   26.0873 C   0  0  0  0  0  0  0  0  0  0  0  0
  2  7  1  0
  9 13  1  0
 12 14  1  0
  7  8  2  0
  8  9  1  0
  9 10  2  0
 10 12  1  0
 12 11  2  0
 11  7  1  0
  1  2  2  0
  2  3  1  0
  3  6  2  0
  6  5  1  0
  5  4  2  0
  4  1  1  0
 14 15  2  0
 15 16  1  0
 16 19  2  0
 19 18  1  0
 18 17  2  0
 17 14  1  0
M  END
$$$$
