No_6038-complexes_sdf/6BKW-FPZ/2024-09-17-14-21-01/
     RDKit          3D

 17 18  0  0  0  0  0  0  0  0999 V2000
   -7.9040    3.9820   27.1177 C   0  0  0  0  0  0  0  0  0  0  0  0
   -8.2057    2.8231   26.8733 C   0  0  0  0  0  0  0  0  0  0  0  0
   -7.4766    1.7477   27.4593 C   0  0  0  0  0  0  0  0  0  0  0  0
   -6.7221    4.3631   27.8544 C   0  0  0  0  0  0  0  0  0  0  0  0
   -6.1698    2.0708   27.9540 C   0  0  0  0  0  0  0  0  0  0  0  0
   -5.8496    3.3886   28.1848 C   0  0  0  0  0  0  0  0  0  0  0  0
   -8.7560    5.1534   26.7276 C   0  0  0  0  0  0  0  0  0  0  0  0
   -8.5644    6.2636   27.3346 F   0  0  0  0  0  0  0  0  0  0  0  0
  -10.1376    4.7806   26.8367 F   0  0  0  0  0  0  0  0  0  0  0  0
   -8.7093    5.3675   25.3608 F   0  0  0  0  0  0  0  0  0  0  0  0
   -5.2873    0.9580   28.3686 C   0  0  0  0  0  0  0  0  0  0  0  0
   -5.6339   -0.3775   28.4002 C   0  0  0  0  0  0  0  0  0  0  0  0
   -4.7264   -1.3423   28.8826 C   0  0  0  0  0  0  0  0  0  0  0  0
   -3.4427   -0.9216   29.2779 C   0  0  0  0  0  0  0  0  0  0  0  0
   -3.0665    0.3951   29.1848 C   0  0  0  0  0  0  0  0  0  0  0  0
   -3.9135    1.3104   28.7953 C   0  0  0  0  0  0  0  0  0  0  0  0
   -2.6166   -1.9098   29.7311 F   0  0  0  0  0  0  0  0  0  0  0  0
  1  7  1  0
  7  8  1  0
  7  9  1  0
  7 10  1  0
  5 11  1  0
 14 17  1  0
 11 12  2  0
 12 13  1  0
 13 14  2  0
 14 15  1  0
 15 16  2  0
 16 11  1  0
  1  2  2  0
  2  3  1  0
  3  5  2  0
  5  6  1  0
  6  4  2  0
  4  1  1  0
M  END
$$$$
