No_6291-complexes_sdf/6BKW-FPZ/2024-09-17-14-21-01/
     RDKit          3D

 23 26  0  0  0  0  0  0  0  0999 V2000
   -7.9040    3.9820   27.1177 C   0  0  0  0  0  0  0  0  0  0  0  0
   -7.8663    4.8694   27.9238 C   0  0  0  0  0  0  0  0  0  0  0  0
   -9.0501    3.8017   26.2617 C   0  0  0  0  0  0  0  0  0  0  0  0
  -10.0189    4.7608   26.3707 C   0  0  0  0  0  0  0  0  0  0  0  0
   -8.6973    5.9722   27.8968 C   0  0  0  0  0  0  0  0  0  0  0  0
   -9.8216    5.8946   27.1241 C   0  0  0  0  0  0  0  0  0  0  0  0
   -9.1437    2.6293   25.4175 C   0  0  0  0  0  0  0  0  0  0  0  0
   -8.6170    1.4258   25.8177 C   0  0  0  0  0  0  0  0  0  0  0  0
   -8.6844    0.3194   24.9788 C   0  0  0  0  0  0  0  0  0  0  0  0
   -9.3359    0.4939   23.7289 C   0  0  0  0  0  0  0  0  0  0  0  0
   -9.8521    1.7195   23.3158 C   0  0  0  0  0  0  0  0  0  0  0  0
   -9.7240    2.7821   24.1593 C   0  0  0  0  0  0  0  0  0  0  0  0
   -9.4326   -0.6951   22.7905 C   0  0  0  0  0  0  0  0  0  0  0  0
  -10.1482   -0.6143   21.6888 C   0  0  0  0  0  0  0  0  0  0  0  0
  -10.6627    0.7159   21.2901 C   0  0  0  0  0  0  0  0  0  0  0  0
  -10.5330    1.8284   22.0859 C   0  0  0  0  0  0  0  0  0  0  0  0
  -11.0795    3.0767   21.5990 C   0  0  0  0  0  0  0  0  0  0  0  0
  -11.3875    3.3873   20.4622 C   0  0  0  0  0  0  0  0  0  0  0  0
  -10.9947    2.4905   19.4122 C   0  0  0  0  0  0  0  0  0  0  0  0
  -10.7671    1.2017   19.8376 C   0  0  0  0  0  0  0  0  0  0  0  0
  -10.3064   -1.6963   20.7567 C   0  0  0  0  0  0  0  0  0  0  0  0
  -11.2654   -2.3361   20.8203 O   0  0  0  0  0  0  0  0  0  0  0  0
   -9.4792   -1.7165   19.6485 O   0  0  0  0  0  0  0  0  0  0  0  0
  3  7  1  0
 14 21  1  0
 21 22  2  0
 21 23  1  0
 16 17  2  0
 17 18  1  0
 18 19  2  0
 19 20  1  0
 20 15  2  0
  1  2  2  0
  2  5  1  0
  5  6  2  0
  6  4  1  0
  4  3  2  0
  3  1  1  0
  7  8  2  0
  8  9  1  0
  9 10  2  0
 11 12  2  0
 12  7  1  0
 10 11  1  0
 11 16  1  0
 16 15  1  0
 15 14  1  0
 14 13  2  0
 13 10  1  0
M  END
$$$$
