No_6787-complexes_sdf/6BKW-FPZ/2024-09-17-14-21-01/
     RDKit          3D

 16 17  0  0  0  0  0  0  0  0999 V2000
   -7.9040    3.9820   27.1177 C   0  0  0  0  0  0  0  0  0  0  0  0
   -9.0711    4.3164   27.0630 C   0  0  0  0  0  0  0  0  0  0  0  0
   -9.8698    3.9665   25.9494 C   0  0  0  0  0  0  0  0  0  0  0  0
   -7.4046    2.7946   26.4568 C   0  0  0  0  0  0  0  0  0  0  0  0
   -8.3645    2.1023   25.7152 C   0  0  0  0  0  0  0  0  0  0  0  0
   -9.4696    3.0840   25.2547 C   0  0  0  0  0  0  0  0  0  0  0  0
   -6.6863    4.6680   28.5046 Br  0  0  0  0  0  0  0  0  0  0  0  0
  -10.3129    2.4560   24.1265 C   0  0  0  0  0  0  0  0  0  0  0  0
   -9.8134    1.6074   23.3518 N   0  0  0  0  0  0  0  0  0  0  0  0
  -11.4758    3.1209   23.7446 C   0  0  0  0  0  0  0  0  0  0  0  0
  -10.4371    1.2651   22.1634 C   0  0  0  0  0  0  0  0  0  0  0  0
  -12.0663    4.1002   24.5928 C   0  0  0  0  0  0  0  0  0  0  0  0
  -11.1860    4.6092   25.7338 C   0  0  0  0  0  0  0  0  0  0  0  0
  -10.4007    0.0061   21.8092 C   0  0  0  0  0  0  0  0  0  0  0  0
   -9.6621   -0.9216   22.3950 C   0  0  0  0  0  0  0  0  0  0  0  0
   -8.9344   -0.6010   23.5494 C   0  0  0  0  0  0  0  0  0  0  0  0
  1  7  1  0
  9 11  1  0
 11 14  2  3
 14 15  1  0
 15 16  2  0
  9  8  1  0
  6  8  2  0
  8 10  1  0
 10 12  2  0
 12 13  1  0
 13  3  2  0
  1  2  2  0
  2  3  1  0
  3  6  1  0
  6  5  1  0
  5  4  2  0
  4  1  1  0
M  END
$$$$
