No_6197-complexes_sdf/6BKW-FPZ/2024-09-17-14-21-01/
     RDKit          3D

 17 18  0  0  0  0  0  0  0  0999 V2000
   -7.9040    3.9820   27.1177 C   0  0  0  0  0  0  0  0  0  0  0  0
   -9.0711    4.3164   27.0630 C   0  0  0  0  0  0  0  0  0  0  0  0
   -9.5182    5.5541   27.5777 C   0  0  0  0  0  0  0  0  0  0  0  0
   -7.4468    2.6843   26.6499 C   0  0  0  0  0  0  0  0  0  0  0  0
   -8.3856    1.7878   26.2216 C   0  0  0  0  0  0  0  0  0  0  0  0
   -9.6812    2.2328   26.0889 C   0  0  0  0  0  0  0  0  0  0  0  0
  -10.0147    3.4312   26.5259 C   0  0  0  0  0  0  0  0  0  0  0  0
   -7.9132    0.4733   25.8127 C   0  0  0  0  0  0  0  0  0  0  0  0
   -8.2414    0.0028   24.6609 C   0  0  0  0  0  0  0  0  0  0  0  0
   -7.5739   -1.1085   24.0983 C   0  0  0  0  0  0  0  0  0  0  0  0
   -6.7056   -1.8545   24.9649 C   0  0  0  0  0  0  0  0  0  0  0  0
   -6.9037   -0.2233   26.6291 C   0  0  0  0  0  0  0  0  0  0  0  0
   -6.3503   -1.3515   26.2280 C   0  0  0  0  0  0  0  0  0  0  0  0
   -9.0132    6.6085   27.0469 F   0  0  0  0  0  0  0  0  0  0  0  0
  -10.8806    5.7603   27.7733 F   0  0  0  0  0  0  0  0  0  0  0  0
   -8.9665    5.7148   28.8795 F   0  0  0  0  0  0  0  0  0  0  0  0
   -6.9045    4.6442   27.7471 F   0  0  0  0  0  0  0  0  0  0  0  0
  2  3  1  0
  5  8  1  0
  3 14  1  0
  3 15  1  0
  3 16  1  0
  1 17  1  0
  1  2  2  0
  2  7  1  0
  7  6  2  0
  6  5  1  0
  5  4  2  0
  4  1  1  0
  8  9  2  0
  9 10  1  0
 10 11  2  0
 11 13  1  0
 13 12  2  0
 12  8  1  0
M  END
$$$$
