No_6928-complexes_sdf/6BKW-FPZ/2024-09-17-14-21-01/
     RDKit          3D

 40 43  0  0  0  0  0  0  0  0999 V2000
   -7.2496    3.8871   27.4508 C   0  0  0  0  0  0  0  0  0  0  0  0
   -7.9379    4.9063   27.8518 C   0  0  0  0  0  0  0  0  0  0  0  0
   -9.3376    4.8647   27.7795 C   0  0  0  0  0  0  0  0  0  0  0  0
   -7.8544    2.6294   27.0414 C   0  0  0  0  0  0  0  0  0  0  0  0
   -9.2852    2.6570   27.0666 C   0  0  0  0  0  0  0  0  0  0  0  0
  -10.0126    3.7528   27.4890 C   0  0  0  0  0  0  0  0  0  0  0  0
  -11.4946    3.6924   27.5201 C   0  0  0  0  0  0  0  0  0  0  0  0
  -12.0181    2.6419   28.0792 C   0  0  0  0  0  0  0  0  0  0  0  0
  -13.3310    2.5853   28.5250 C   0  0  0  0  0  0  0  0  0  0  0  0
  -14.1286    3.7151   28.1959 C   0  0  0  0  0  0  0  0  0  0  0  0
  -13.5913    4.8072   27.6114 C   0  0  0  0  0  0  0  0  0  0  0  0
  -12.1875    4.8538   27.3506 C   0  0  0  0  0  0  0  0  0  0  0  0
   -7.1366    1.4691   26.7401 C   0  0  0  0  0  0  0  0  0  0  0  0
   -6.0775    1.0931   27.4978 N   0  0  0  0  0  0  0  0  0  0  0  0
   -5.3816   -0.0308   27.3733 C   0  0  0  0  0  0  0  0  0  0  0  0
   -5.7407   -1.0914   27.9636 C   0  0  0  0  0  0  0  0  0  0  0  0
   -6.7246   -1.1733   28.7784 C   0  0  0  0  0  0  0  0  0  0  0  0
   -7.2182   -2.3784   29.5102 C   0  0  0  0  0  0  0  0  0  0  0  0
   -6.4468   -3.5009   29.3395 C   0  0  0  0  0  0  0  0  0  0  0  0
   -5.3522   -3.4619   28.5336 C   0  0  0  0  0  0  0  0  0  0  0  0
   -4.9376   -2.3146   27.8918 C   0  0  0  0  0  0  0  0  0  0  0  0
   -4.3036    0.1423   26.7183 O   0  0  0  0  0  0  0  0  0  0  0  0
   -7.1158    6.3652   28.3209 Cl  0  0  0  0  0  0  0  0  0  0  0  0
   -7.5037    0.7915   25.7753 O   0  0  0  0  0  0  0  0  0  0  0  0
  -13.9642    1.3433   29.0869 C   0  0  0  0  0  0  0  0  0  0  0  0
  -14.0026    0.2595   28.5864 C   0  0  0  0  0  0  0  0  0  0  0  0
  -14.3977   -0.8872   29.2505 C   0  0  0  0  0  0  0  0  0  0  0  0
  -14.8304    1.3916   30.2352 C   0  0  0  0  0  0  0  0  0  0  0  0
  -15.2694    0.4166   30.9811 C   0  0  0  0  0  0  0  0  0  0  0  0
  -15.1124   -0.8114   30.4060 C   0  0  0  0  0  0  0  0  0  0  0  0
  -15.5951   -1.9295   30.9610 F   0  0  0  0  0  0  0  0  0  0  0  0
   -6.9054   -4.7102   30.0838 C   0  0  0  0  0  0  0  0  0  0  0  0
   -7.8532   -5.1874   30.0654 O   0  0  0  0  0  0  0  0  0  0  0  0
   -5.7725   -5.4379   30.5551 O   0  0  0  0  0  0  0  0  0  0  0  0
   -5.8883   -6.0081   31.6881 C   0  0  0  0  0  0  0  0  0  0  0  0
   -5.8679   -5.3262   32.8801 C   0  0  0  0  0  0  0  0  0  0  0  0
   -6.4405   -5.6611   33.8266 C   0  0  0  0  0  0  0  0  0  0  0  0
   -6.5465   -4.8135   35.0583 C   0  0  0  0  0  0  0  0  0  0  0  0
   -5.9273   -3.5271   35.0836 C   0  0  0  0  0  0  0  0  0  0  0  0
   -5.2830   -3.1205   33.8945 C   0  0  0  0  0  0  0  0  0  0  0  0
  6  7  1  0
  4 13  1  0
 13 14  1  0
 14 15  1  0
 15 16  1  0
 15 22  2  0
  2 23  1  0
 13 24  2  0
  9 25  1  0
 30 31  1  0
 19 32  1  0
 32 33  2  0
 32 34  1  0
 34 35  1  0
 35 36  1  0
 36 37  2  3
 37 38  1  0
 38 39  2  3
 39 40  1  0
 25 26  2  0
 26 27  1  0
 27 30  2  0
 30 29  1  0
 29 28  2  0
 28 25  1  0
  1  2  2  0
  2  3  1  0
  3  6  2  0
  6  5  1  0
  5  4  2  0
  4  1  1  0
  7  8  2  0
  8  9  1  0
  9 10  2  0
 10 11  1  0
 11 12  2  0
 12  7  1  0
 16 17  2  0
 17 18  1  0
 18 19  2  0
 19 20  1  0
 20 21  2  0
 21 16  1  0
M  END
$$$$
