No_6806-complexes_sdf/6BKW-FPZ/2024-09-17-14-21-01/
     RDKit          3D

 34 37  0  0  0  0  0  0  0  0999 V2000
   -7.9040    3.9820   27.1177 C   0  0  0  0  0  0  0  0  0  0  0  0
   -7.8663    4.8694   27.9238 C   0  0  0  0  0  0  0  0  0  0  0  0
   -9.0806    3.1428   27.1220 C   0  0  0  0  0  0  0  0  0  0  0  0
  -10.0970    3.3939   27.9555 C   0  0  0  0  0  0  0  0  0  0  0  0
   -8.9263    5.4490   28.6197 C   0  0  0  0  0  0  0  0  0  0  0  0
  -10.0741    4.6151   28.7290 C   0  0  0  0  0  0  0  0  0  0  0  0
   -9.0498    1.8603   26.3527 C   0  0  0  0  0  0  0  0  0  0  0  0
   -9.7668    1.8868   25.2009 C   0  0  0  0  0  0  0  0  0  0  0  0
   -9.7153    0.7298   24.3446 C   0  0  0  0  0  0  0  0  0  0  0  0
   -8.8692   -0.3441   24.6646 C   0  0  0  0  0  0  0  0  0  0  0  0
   -8.1746    0.7800   26.6042 C   0  0  0  0  0  0  0  0  0  0  0  0
   -8.0691   -0.2739   25.8481 C   0  0  0  0  0  0  0  0  0  0  0  0
  -11.5705    2.4921   28.0344 Cl  0  0  0  0  0  0  0  0  0  0  0  0
  -10.5022    0.7353   23.1112 C   0  0  0  0  0  0  0  0  0  0  0  0
  -10.4508   -0.1032   22.2614 C   0  0  0  0  0  0  0  0  0  0  0  0
  -11.1694    0.0790   21.0091 C   0  0  0  0  0  0  0  0  0  0  0  0
  -11.8973    1.2015   20.7994 C   0  0  0  0  0  0  0  0  0  0  0  0
  -11.2469    1.9830   22.7064 C   0  0  0  0  0  0  0  0  0  0  0  0
  -11.9023    2.1566   21.6720 C   0  0  0  0  0  0  0  0  0  0  0  0
   -7.2147   -1.4186   26.1574 C   0  0  0  0  0  0  0  0  0  0  0  0
   -6.5964   -1.9178   25.4561 O   0  0  0  0  0  0  0  0  0  0  0  0
   -7.2302   -1.7202   27.4929 O   0  0  0  0  0  0  0  0  0  0  0  0
   -6.6809   -2.8513   27.9995 C   0  0  0  0  0  0  0  0  0  0  0  0
   -7.1222   -3.1243   29.1790 C   0  0  1  0  0  0  0  0  0  0  0  0
   -7.3758   -2.1265   30.0789 C   0  0  0  0  0  0  0  0  0  0  0  0
   -8.4159   -3.9721   29.1202 N   0  0  0  0  0  0  0  0  0  0  0  0
   -9.4588   -3.7453   29.5211 C   0  0  0  0  0  0  0  0  0  0  0  0
   -7.0822   -2.4106   31.5156 C   0  0  0  0  0  0  0  0  0  0  0  0
   -9.7947   -2.7469   30.2426 C   0  0  0  0  0  0  0  0  0  0  0  0
   -8.1490   -2.4567   32.4898 C   0  0  0  0  0  0  0  0  0  0  0  0
   -9.4753   -3.0274   31.9993 C   0  0  0  0  0  0  0  0  0  0  0  0
   -8.1033   -5.2626   28.4153 C   0  0  0  0  0  0  0  0  0  0  0  0
   -7.2338   -6.0491   28.9228 C   0  0  0  0  0  0  0  0  0  0  0  0
   -6.9144   -7.2491   28.2640 C   0  0  0  0  0  0  0  0  0  0  0  0
  3  7  1  0
  4 13  1  0
  9 14  1  0
 12 20  1  0
 20 21  2  0
 20 22  1  0
 22 23  1  0
 24 23  1  6
 24 25  1  0
 24 26  1  0
 26 27  1  0
 25 28  1  0
 27 29  2  3
 28 30  2  3
 29 31  1  0
 30 31  1  0
 26 32  1  0
 32 33  2  3
 33 34  1  0
  7  8  2  0
  8  9  1  0
  9 10  2  0
 10 12  1  0
 12 11  2  0
 11  7  1  0
 14 15  2  0
 15 16  1  0
 16 17  2  0
 17 19  1  0
 19 18  2  0
 18 14  1  0
  1  2  2  0
  2  5  1  0
  5  6  2  0
  6  4  1  0
  4  3  2  0
  3  1  1  0
M  END
$$$$
