No_6490-complexes_sdf/6BKW-FPZ/2024-09-17-14-21-01/
     RDKit          3D

 10 10  0  0  0  0  0  0  0  0999 V2000
   -7.7129    4.2099   27.0854 C   0  0  0  0  0  0  0  0  0  0  0  0
   -8.2112    3.0637   26.9225 C   0  0  0  0  0  0  0  0  0  0  0  0
   -7.0021    4.5281   28.2396 C   0  0  0  0  0  0  0  0  0  0  0  0
   -9.4237    2.7810   26.2714 C   0  0  0  0  0  0  0  0  0  0  0  0
   -9.8781    3.7859   25.4663 C   0  0  0  0  0  0  0  0  0  0  0  0
   -9.3689    5.0975   25.5965 C   0  0  0  0  0  0  0  0  0  0  0  0
   -8.4784    5.3402   26.5448 C   0  0  0  0  0  0  0  0  0  0  0  0
  -10.9798    3.5389   24.5162 C   0  0  0  0  0  0  0  0  0  0  0  0
  -10.8020    3.9004   23.2347 C   0  0  0  0  0  0  0  0  0  0  0  0
  -11.7684    3.6325   22.2329 C   0  0  0  0  0  0  0  0  0  0  0  0
  1  2  1  0
  1  3  2  0
  2  4  1  0
  4  5  1  0
  5  6  1  0
  1  7  1  0
  6  7  1  0
  5  8  1  0
  8  9  2  3
  9 10  1  0
M  END
$$$$
