No_6758-complexes_sdf/6BKW-FPZ/2024-09-17-14-21-01/
     RDKit          3D

 28 29  0  0  0  0  0  0  0  0999 V2000
   -7.2496    3.8871   27.4508 C   0  0  0  0  0  0  0  0  0  0  0  0
   -8.5096    4.0291   27.2770 C   0  0  0  0  0  0  0  0  0  0  0  0
   -9.2677    5.1714   27.5773 C   0  0  0  0  0  0  0  0  0  0  0  0
   -6.5711    2.6400   27.2842 C   0  0  0  0  0  0  0  0  0  0  0  0
   -7.2939    1.5094   27.0532 C   0  0  1  0  0  0  0  0  0  0  0  0
   -8.6122    1.6580   26.7575 C   0  0  2  0  0  0  0  0  0  0  0  0
   -9.2984    2.8495   26.9904 C   0  0  1  0  0  0  0  0  0  0  0  0
  -10.3839    5.1819   27.9827 F   0  0  0  0  0  0  0  0  0  0  0  0
   -8.6487    6.3443   27.3812 F   0  0  0  0  0  0  0  0  0  0  0  0
   -6.4383    0.3418   26.8293 C   0  0  0  0  0  0  0  0  0  0  0  0
   -6.5390   -0.6332   27.9001 C   0  0  0  0  0  0  0  0  0  0  0  0
   -7.3515   -0.9775   28.6022 C   0  0  0  0  0  0  0  0  0  0  0  0
   -7.3352   -2.0258   29.6316 C   0  0  0  0  0  0  0  0  0  0  0  0
   -6.0722   -2.4859   29.9740 C   0  0  0  0  0  0  0  0  0  0  0  0
   -4.9774   -2.0375   29.3155 C   0  0  0  0  0  0  0  0  0  0  0  0
   -5.0787   -1.1055   28.2804 C   0  0  0  0  0  0  0  0  0  0  0  0
   -3.9104   -0.6134   27.5904 C   0  0  2  0  0  0  0  0  0  0  0  0
   -2.7623   -1.2593   27.7618 C   0  0  0  0  0  0  0  0  0  0  0  0
   -3.8846    0.6622   26.9332 C   0  0  0  0  0  0  0  0  0  0  0  0
   -3.3328    1.5131   27.4515 O   0  0  0  0  0  0  0  0  0  0  0  0
   -9.3606    0.5413   26.4093 N   0  0  0  0  0  0  0  0  0  0  0  0
  -10.5431    0.2551   26.8154 C   0  0  0  0  0  0  0  0  0  0  0  0
  -11.2717    1.0485   27.4479 C   0  0  0  0  0  0  0  0  0  0  0  0
  -10.6944    2.5542   27.5933 C   0  0  0  0  0  0  0  0  0  0  0  0
  -11.8377    3.2732   26.8653 C   0  0  0  0  0  0  0  0  0  0  0  0
  -12.7199    1.1244   27.1718 C   0  0  0  0  0  0  0  0  0  0  0  0
  -10.9052    2.9998   29.1474 C   0  0  0  0  0  0  0  0  0  0  0  0
  -11.0944    0.3644   28.8824 C   0  0  0  0  0  0  0  0  0  0  0  0
  1  2  1  0
  2  3  2  3
  1  4  1  0
  4  5  1  0
  5  6  1  0
  2  7  1  0
  6  7  1  0
  3  8  1  0
  3  9  1  0
  5 10  1  6
 10 11  1  0
 16 17  1  0
 17 18  1  1
 17 19  1  0
 19 20  2  0
  6 21  1  1
 21 22  1  0
 22 23  2  3
  7 24  1  1
 24 25  1  0
 23 26  1  0
 24 27  1  0
 23 28  1  0
 11 12  2  0
 12 13  1  0
 13 14  2  0
 14 15  1  0
 15 16  2  0
 16 11  1  0
M  END
$$$$
