No_6255-complexes_sdf/6BKW-FPZ/2024-09-17-14-21-01/
     RDKit          3D

 24 27  0  0  0  0  0  0  0  0999 V2000
   -7.2496    3.8871   27.4508 C   0  0  0  0  0  0  0  0  0  0  0  0
   -8.5096    4.0291   27.2770 C   0  0  0  0  0  0  0  0  0  0  0  0
   -9.3502    2.8685   26.8763 C   0  0  0  0  0  0  0  0  0  0  0  0
   -6.6288    2.5513   27.4938 C   0  0  0  0  0  0  0  0  0  0  0  0
   -7.4365    1.4714   27.2032 C   0  0  0  0  0  0  0  0  0  0  0  0
   -8.7772    1.6579   26.9338 C   0  0  0  0  0  0  0  0  0  0  0  0
   -9.1119    5.3743   27.2229 C   0  0  0  0  0  0  0  0  0  0  0  0
  -10.3508    5.4296   27.6019 F   0  0  0  0  0  0  0  0  0  0  0  0
   -8.4337    6.2679   28.0732 F   0  0  0  0  0  0  0  0  0  0  0  0
   -8.9905    5.8874   25.9738 F   0  0  0  0  0  0  0  0  0  0  0  0
   -6.7900    0.1891   27.1667 C   0  0  0  0  0  0  0  0  0  0  0  0
   -5.5700   -0.0446   27.8125 C   0  0  0  0  0  0  0  0  0  0  0  0
   -4.9446   -1.3075   27.8249 C   0  0  0  0  0  0  0  0  0  0  0  0
   -5.5582   -2.2818   27.0482 C   0  0  0  0  0  0  0  0  0  0  0  0
   -7.4193   -0.8984   26.5763 C   0  0  0  0  0  0  0  0  0  0  0  0
   -6.7771   -2.1186   26.4906 C   0  0  0  0  0  0  0  0  0  0  0  0
   -3.6367   -1.4424   28.5020 C   0  0  0  0  0  0  0  0  0  0  0  0
   -3.3457   -0.6204   29.5506 C   0  0  0  0  0  0  0  0  0  0  0  0
   -3.8803    0.7425   29.5528 C   0  0  0  0  0  0  0  0  0  0  0  0
   -5.0645    0.9236   28.8463 C   0  0  0  0  0  0  0  0  0  0  0  0
   -7.4301   -3.1867   25.7359 C   0  0  0  0  0  0  0  0  0  0  0  0
   -8.4856   -2.9882   25.2100 C   0  0  0  0  0  0  0  0  0  0  0  0
   -9.1985   -1.6952   25.3311 C   0  0  0  0  0  0  0  0  0  0  0  0
   -8.6261   -0.7223   25.9276 C   0  0  0  0  0  0  0  0  0  0  0  0
  2  7  1  0
  7  8  1  0
  7  9  1  0
  7 10  1  0
  5 11  1  0
  1  2  2  0
  2  3  1  0
  3  6  2  0
  6  5  1  0
  5  4  2  0
  4  1  1  0
 13 17  1  0
 17 18  2  0
 18 19  1  0
 19 20  2  0
 20 12  1  0
 16 21  2  0
 21 22  1  0
 22 23  2  0
 23 24  1  0
 24 15  2  0
 11 12  2  0
 12 13  1  0
 13 14  2  0
 14 16  1  0
 16 15  1  0
 15 11  1  0
M  END
$$$$
