No_6919-complexes_sdf/6BKW-FPZ/2024-09-17-14-21-01/
     RDKit          3D

 14 15  0  0  0  0  0  0  0  0999 V2000
   -7.9040    3.9820   27.1177 C   0  0  0  0  0  0  0  0  0  0  0  0
   -7.8663    4.8694   27.9238 C   0  0  0  0  0  0  0  0  0  0  0  0
   -7.4698    2.6989   27.4277 C   0  0  0  0  0  0  0  0  0  0  0  0
   -7.9683    1.5964   26.8266 C   0  0  0  0  0  0  0  0  0  0  0  0
   -7.5289    0.3101   27.1202 C   0  0  0  0  0  0  0  0  0  0  0  0
   -8.3245   -0.7895   26.7699 C   0  0  0  0  0  0  0  0  0  0  0  0
   -8.6045    6.0684   27.7548 C   0  0  0  0  0  0  0  0  0  0  0  0
   -8.0758   -2.0181   27.2788 C   0  0  0  0  0  0  0  0  0  0  0  0
   -9.0035    1.7376   25.8809 C   0  0  0  0  0  0  0  0  0  0  0  0
   -9.6440    0.6269   25.3545 C   0  0  0  0  0  0  0  0  0  0  0  0
   -9.3860   -0.5815   25.8782 C   0  0  0  0  0  0  0  0  0  0  0  0
   -9.0655    6.4594   26.4024 C   0  0  0  0  0  0  0  0  0  0  0  0
   -8.7496    4.2546   25.9529 C   0  0  0  0  0  0  0  0  0  0  0  0
   -9.2602    5.4694   25.6897 C   0  0  0  0  0  0  0  0  0  0  0  0
  1  3  1  0
  3  4  1  0
  6  8  1  0
  1  2  2  0
  2  7  1  0
  7 12  2  0
 12 14  1  0
 14 13  2  0
 13  1  1  0
  4  5  2  0
  5  6  1  0
  6 11  2  0
 11 10  1  0
 10  9  2  0
  9  4  1  0
M  END
$$$$
