No_6154-complexes_sdf/6BKW-FPZ/2024-09-17-14-21-01/
     RDKit          3D

 17 18  0  0  0  0  0  0  0  0999 V2000
   -7.9040    3.9820   27.1177 C   0  0  0  0  0  0  0  0  0  0  0  0
   -7.8663    4.8694   27.9238 C   0  0  0  0  0  0  0  0  0  0  0  0
   -7.4698    2.6989   27.4277 C   0  0  0  0  0  0  0  0  0  0  0  0
   -7.9683    1.5964   26.8266 C   0  0  1  0  0  0  0  0  0  0  0  0
   -8.9447    1.7923   25.8533 C   0  0  0  0  0  0  0  0  0  0  0  0
   -9.4405    2.9988   25.5757 C   0  0  0  0  0  0  0  0  0  0  0  0
   -8.9424    4.1117   26.2388 C   0  0  0  0  0  0  0  0  0  0  0  0
   -8.2732    6.2141   27.6484 N   0  0  0  0  0  0  0  0  0  0  0  0
   -9.1540    6.5068   26.6734 C   0  0  0  0  0  0  0  0  0  0  0  0
   -9.5312    5.3927   25.9147 C   0  0  0  0  0  0  0  0  0  0  0  0
   -7.5309    0.2311   27.0379 C   0  0  2  0  0  0  0  0  0  0  0  0
   -8.2859   -0.7349   27.3624 C   0  0  0  0  0  0  0  0  0  0  0  0
   -6.0883    0.0152   27.0135 C   0  0  0  0  0  0  0  0  0  0  0  0
   -5.1924    0.6358   27.7752 C   0  0  0  0  0  0  0  0  0  0  0  0
   -3.7936    0.3517   27.7683 C   0  0  0  0  0  0  0  0  0  0  0  0
   -3.2763   -0.4698   26.8674 C   0  0  0  0  0  0  0  0  0  0  0  0
   -4.2115   -1.0623   25.9501 C   0  0  0  0  0  0  0  0  0  0  0  0
  1  3  1  0
  4  3  1  6
  4  5  1  0
  5  6  1  0
  6  7  1  0
  4 11  1  0
 11 12  1  1
 11 13  1  0
 13 14  2  3
 14 15  1  0
 15 16  2  3
 16 17  1  0
  1  2  2  0
  2  8  1  0
  8  9  2  0
  9 10  1  0
 10  7  2  0
  7  1  1  0
M  END
$$$$
