No_6223-complexes_sdf/6BKW-FPZ/2024-09-17-14-21-01/
     RDKit          3D

 29 32  0  0  0  0  0  0  0  0999 V2000
   -7.9040    3.9820   27.1177 C   0  0  0  0  0  0  0  0  0  0  0  0
   -7.8663    4.8694   27.9238 C   0  0  0  0  0  0  0  0  0  0  0  0
   -9.0953    3.1697   27.0532 C   0  0  0  0  0  0  0  0  0  0  0  0
  -10.1313    3.4052   27.8871 C   0  0  0  0  0  0  0  0  0  0  0  0
  -10.1178    4.5885   28.6885 C   0  0  0  0  0  0  0  0  0  0  0  0
   -8.9412    5.2994   28.7548 C   0  0  0  0  0  0  0  0  0  0  0  0
   -9.0691    1.9565   26.1695 C   0  0  0  0  0  0  0  0  0  0  0  0
   -8.4258    0.8037   26.4340 C   0  0  0  0  0  0  0  0  0  0  0  0
   -9.6932    2.1225   24.9256 C   0  0  0  0  0  0  0  0  0  0  0  0
   -9.6437    1.1705   23.9409 C   0  0  0  0  0  0  0  0  0  0  0  0
   -8.3687   -0.2392   25.5341 C   0  0  0  0  0  0  0  0  0  0  0  0
   -8.9903   -0.0407   24.2532 C   0  0  0  0  0  0  0  0  0  0  0  0
  -11.3297    2.5731   27.8789 C   0  0  2  0  0  0  0  0  0  0  0  0
  -12.4896    2.9101   27.2485 C   0  0  0  0  0  0  0  0  0  0  0  0
  -12.5149    4.2847   26.7158 C   0  0  0  0  0  0  0  0  0  0  0  0
  -13.6372    4.7555   25.9917 C   0  0  0  0  0  0  0  0  0  0  0  0
  -14.6853    3.9122   25.7031 C   0  0  0  0  0  0  0  0  0  0  0  0
  -14.5961    2.5839   26.1804 C   0  0  0  0  0  0  0  0  0  0  0  0
  -13.4900    2.1170   26.9596 C   0  0  0  0  0  0  0  0  0  0  0  0
  -11.2753    1.3804   28.7013 C   0  0  0  0  0  0  0  0  0  0  0  0
  -10.4171    1.3336   22.4876 Cl  0  0  0  0  0  0  0  0  0  0  0  0
  -11.3183    0.1445   27.9780 C   0  0  0  0  0  0  0  0  0  0  0  0
  -11.1409   -1.0575   28.7096 C   0  0  0  0  0  0  0  0  0  0  0  0
  -11.6802   -2.0469   28.4939 C   0  0  0  0  0  0  0  0  0  0  0  0
  -11.4756   -3.2821   29.2437 C   0  0  0  0  0  0  0  0  0  0  0  0
  -10.5083   -3.2568   30.2738 C   0  0  0  0  0  0  0  0  0  0  0  0
   -9.7503   -2.1423   30.4413 C   0  0  0  0  0  0  0  0  0  0  0  0
  -10.0138   -1.0545   29.6940 C   0  0  0  0  0  0  0  0  0  0  0  0
  -11.5815    0.0647   26.7331 O   0  0  0  0  0  0  0  0  0  0  0  0
  3  7  1  0
  4 13  1  0
 13 20  1  1
 10 21  1  0
 20 22  1  0
 22 23  1  0
 22 29  2  0
 13 14  1  0
 14 15  2  0
 15 16  1  0
 16 17  2  0
 17 18  1  0
 18 19  2  0
 19 14  1  0
  1  2  2  0
  2  6  1  0
  6  5  2  0
  5  4  1  0
  4  3  2  0
  3  1  1  0
  7  8  2  0
  8 11  1  0
 11 12  2  0
 12 10  1  0
 10  9  2  0
  9  7  1  0
 23 24  2  0
 24 25  1  0
 25 26  2  0
 26 27  1  0
 27 28  2  0
 28 23  1  0
M  END
$$$$
