No_6893-complexes_sdf/6BKW-FPZ/2024-09-17-14-21-01/
     RDKit          3D

 29 31  0  0  0  0  0  0  0  0999 V2000
   -7.2496    3.8871   27.4508 C   0  0  0  0  0  0  0  0  0  0  0  0
   -7.6161    2.7143   27.1523 C   0  0  0  0  0  0  0  0  0  0  0  0
   -8.6212    2.2239   26.4074 C   0  0  0  0  0  0  0  0  0  0  0  0
   -8.2539    4.9237   27.1711 C   0  0  0  0  0  0  0  0  0  0  0  0
   -9.3709    4.6019   26.4511 C   0  0  0  0  0  0  0  0  0  0  0  0
   -9.5922    3.3274   26.0949 C   0  0  0  0  0  0  0  0  0  0  0  0
   -7.9189    6.3259   27.5672 C   0  0  0  0  0  0  0  0  0  0  0  0
   -7.6604    6.9691   26.8264 F   0  0  0  0  0  0  0  0  0  0  0  0
   -8.9010    0.9000   26.0526 C   0  0  1  0  0  0  0  0  0  0  0  0
   -9.3429   -0.2112   27.2049 Cl  0  0  0  0  0  0  0  0  0  0  0  0
   -9.6945    0.7021   24.7945 C   0  0  0  0  0  0  0  0  0  0  0  0
   -8.9377    0.9005   23.7017 C   0  0  0  0  0  0  0  0  0  0  0  0
   -9.4778    0.8479   22.3482 C   0  0  0  0  0  0  0  0  0  0  0  0
  -10.8174    0.5438   22.2375 C   0  0  0  0  0  0  0  0  0  0  0  0
  -11.5530    0.3250   23.4222 C   0  0  0  0  0  0  0  0  0  0  0  0
  -10.9932    0.4381   24.6528 C   0  0  0  0  0  0  0  0  0  0  0  0
   -6.7598    6.2286   28.5030 F   0  0  0  0  0  0  0  0  0  0  0  0
   -8.9799    6.7036   28.3331 F   0  0  0  0  0  0  0  0  0  0  0  0
   -6.5370    1.5858   27.5230 C   0  0  0  0  0  0  0  0  0  0  0  0
   -5.4910    1.9610   28.1000 O   0  0  0  0  0  0  0  0  0  0  0  0
   -6.8585    0.3605   27.5483 O   0  0  0  0  0  0  0  0  0  0  0  0
   -5.7233   -0.4339   27.9347 C   0  0  0  0  0  0  0  0  0  0  0  0
   -5.9832   -1.7308   28.0276 C   0  0  0  0  0  0  0  0  0  0  0  0
   -6.9510   -2.2967   27.9318 C   0  0  0  0  0  0  0  0  0  0  0  0
   -7.2423   -3.7684   27.9756 C   0  0  0  0  0  0  0  0  0  0  0  0
   -6.1268   -4.5141   28.2640 C   0  0  0  0  0  0  0  0  0  0  0  0
   -4.9134   -3.9642   28.4460 C   0  0  0  0  0  0  0  0  0  0  0  0
   -4.7364   -2.5743   28.3488 C   0  0  0  0  0  0  0  0  0  0  0  0
   -4.4502    0.2453   28.2026 C   0  0  0  0  0  0  0  0  0  0  0  0
  4  7  1  0
  7  8  1  0
  3  9  1  0
  9 10  1  1
  9 11  1  0
  7 17  1  0
  7 18  1  0
  2 19  1  0
 19 20  2  0
 19 21  1  0
 21 22  1  0
 22 23  1  0
 22 29  1  0
 11 12  2  0
 12 13  1  0
 13 14  2  0
 14 15  1  0
 15 16  2  0
 16 11  1  0
 23 24  2  0
 24 25  1  0
 25 26  2  0
 26 27  1  0
 27 28  2  0
 28 23  1  0
  1  2  2  0
  2  3  1  0
  3  6  2  0
  6  5  1  0
  5  4  2  0
  4  1  1  0
M  END
$$$$
