No_6983-complexes_sdf/6BKW-FPZ/2024-09-17-14-21-01/
     RDKit          3D

 40 44  0  0  0  0  0  0  0  0999 V2000
   -7.9040    3.9820   27.1177 C   0  0  0  0  0  0  0  0  0  0  0  0
   -9.0711    4.3164   27.0630 C   0  0  0  0  0  0  0  0  0  0  0  0
   -9.5294    5.4517   27.7215 C   0  0  0  0  0  0  0  0  0  0  0  0
   -7.4336    2.7132   26.5681 C   0  0  0  0  0  0  0  0  0  0  0  0
   -8.3353    1.8569   26.0442 C   0  0  0  0  0  0  0  0  0  0  0  0
   -9.6477    2.2853   25.9146 C   0  0  0  0  0  0  0  0  0  0  0  0
  -10.0346    3.4497   26.4483 C   0  0  0  0  0  0  0  0  0  0  0  0
   -8.0665    0.4920   25.6297 C   0  0  0  0  0  0  0  0  0  0  0  0
   -8.5916   -0.2962   26.0553 O   0  0  0  0  0  0  0  0  0  0  0  0
   -7.0122    0.3294   24.8678 O   0  0  0  0  0  0  0  0  0  0  0  0
   -6.6180    4.7944   28.0509 Cl  0  0  0  0  0  0  0  0  0  0  0  0
  -11.4019    3.9302   26.2276 C   0  0  0  0  0  0  0  0  0  0  0  0
  -12.1937    3.8867   27.4059 C   0  0  0  0  0  0  0  0  0  0  0  0
  -13.4890    4.4631   27.5204 C   0  0  0  0  0  0  0  0  0  0  0  0
  -14.1318    4.6613   28.7292 C   0  0  0  0  0  0  0  0  0  0  0  0
  -13.7000    3.9135   29.8627 C   0  0  0  0  0  0  0  0  0  0  0  0
  -12.4428    3.2095   29.7440 C   0  0  0  0  0  0  0  0  0  0  0  0
  -11.7394    3.2376   28.6363 C   0  0  0  0  0  0  0  0  0  0  0  0
  -14.4622    3.9980   31.1144 C   0  0  2  0  0  0  0  0  0  0  0  0
  -13.8107    3.7842   32.2537 C   0  0  0  0  0  0  0  0  0  0  0  0
  -14.2063    4.0448   33.5596 C   0  0  0  0  0  0  0  0  0  0  0  0
  -13.4022    3.8957   34.6828 C   0  0  0  0  0  0  0  0  0  0  0  0
  -13.6861    4.1032   35.9314 C   0  0  0  0  0  0  0  0  0  0  0  0
  -14.9725    4.5940   36.2323 C   0  0  0  0  0  0  0  0  0  0  0  0
  -15.3210    4.8530   37.5722 C   0  0  0  0  0  0  0  0  0  0  0  0
  -15.5144    4.5989   33.8935 C   0  0  0  0  0  0  0  0  0  0  0  0
  -15.8517    4.9211   35.2151 C   0  0  0  0  0  0  0  0  0  0  0  0
  -14.7828    4.2080   38.4478 C   0  0  0  0  0  0  0  0  0  0  0  0
  -13.3994    3.6478   38.2438 C   0  0  0  0  0  0  0  0  0  0  0  0
  -12.9356    3.4738   36.9620 C   0  0  0  0  0  0  0  0  0  0  0  0
  -15.8145    4.1962   31.0290 C   0  0  0  0  0  0  0  0  0  0  0  0
  -16.7586    3.3605   30.7248 C   0  0  0  0  0  0  0  0  0  0  0  0
  -16.4426    1.9825   30.6347 C   0  0  0  0  0  0  0  0  0  0  0  0
  -17.3971    1.0092   30.2683 C   0  0  0  0  0  0  0  0  0  0  0  0
  -17.0347   -0.3164   30.1298 C   0  0  0  0  0  0  0  0  0  0  0  0
  -15.6991   -0.6929   30.3785 C   0  0  0  0  0  0  0  0  0  0  0  0
  -14.7474    0.2166   30.7401 C   0  0  0  0  0  0  0  0  0  0  0  0
  -15.0861    1.4902   30.8792 C   0  0  0  0  0  0  0  0  0  0  0  0
  -18.1378    3.5839   30.8978 C   0  0  0  0  0  0  0  0  0  0  0  0
  -18.7316    3.8485   32.0424 C   0  0  0  0  0  0  0  0  0  0  0  0
  5  8  1  0
  8  9  2  0
  8 10  1  0
  1 11  1  0
  7 12  1  0
 16 19  1  0
 19 20  1  6
 19 31  1  0
 31 32  2  3
 32 33  1  0
 32 39  1  0
 39 40  2  0
 12 13  1  0
 20 21  1  0
  3  2  1  0
 33 34  2  0
 34 35  1  0
 35 36  2  0
 36 37  1  0
 37 38  2  0
 38 33  1  0
  1  2  2  0
  2  7  1  0
  7  6  2  0
  6  5  1  0
  5  4  2  0
  4  1  1  0
 21 22  2  0
 22 23  1  0
 24 27  1  0
 27 26  2  0
 26 21  1  0
 13 14  2  0
 14 15  1  0
 15 16  2  0
 16 17  1  0
 17 18  2  0
 18 13  1  0
 23 24  2  0
 24 25  1  0
 25 28  2  0
 28 29  1  0
 29 30  2  0
 30 23  1  0
M  END
$$$$
