No_6273-complexes_sdf/6BKW-FPZ/2024-09-17-14-21-01/
     RDKit          3D

 27 30  0  0  0  0  0  0  0  0999 V2000
   -7.9040    3.9820   27.1177 C   0  0  0  0  0  0  0  0  0  0  0  0
   -7.8663    4.8694   27.9238 C   0  0  0  0  0  0  0  0  0  0  0  0
   -7.4547    2.7080   27.4594 C   0  0  0  0  0  0  0  0  0  0  0  0
   -8.0927    6.2909   27.5184 C   0  0  0  0  0  0  0  0  0  0  0  0
   -8.9150    6.5640   26.4331 C   0  0  0  0  0  0  0  0  0  0  0  0
   -7.6563    1.4669   26.7412 C   0  0  0  0  0  0  0  0  0  0  0  0
   -8.5911    4.1595   25.8847 C   0  0  0  0  0  0  0  0  0  0  0  0
   -9.1495    5.4407   25.5619 C   0  0  0  0  0  0  0  0  0  0  0  0
   -7.0785    0.3212   27.0984 C   0  0  0  0  0  0  0  0  0  0  0  0
   -5.9430    0.3390   27.9252 C   0  0  0  0  0  0  0  0  0  0  0  0
   -5.4456    1.6127   28.3895 C   0  0  0  0  0  0  0  0  0  0  0  0
   -6.0562    2.7285   28.0723 C   0  0  0  0  0  0  0  0  0  0  0  0
   -5.2238   -0.9042   28.2384 C   0  0  0  0  0  0  0  0  0  0  0  0
   -4.0984   -1.1300   28.4372 N   0  0  0  0  0  0  0  0  0  0  0  0
   -6.0318   -1.8594   28.7358 O   0  0  0  0  0  0  0  0  0  0  0  0
   -3.3968   -2.2965   28.8919 C   0  0  0  0  0  0  0  0  0  0  0  0
   -2.3750   -2.5485   28.3952 C   0  0  0  0  0  0  0  0  0  0  0  0
   -1.4588   -1.5795   27.6600 C   0  0  0  0  0  0  0  0  0  0  0  0
   -2.1467   -0.3436   27.3276 C   0  0  0  0  0  0  0  0  0  0  0  0
   -3.2860   -0.1424   27.6113 C   0  0  0  0  0  0  0  0  0  0  0  0
   -9.8448    5.5706   24.4704 O   0  0  0  0  0  0  0  0  0  0  0  0
  -10.3813    4.5704   23.7351 C   0  0  0  0  0  0  0  0  0  0  0  0
  -11.5799    4.3417   23.8079 C   0  0  0  0  0  0  0  0  0  0  0  0
  -12.1498    3.2448   23.0189 C   0  0  0  0  0  0  0  0  0  0  0  0
  -11.3228    2.5306   22.2200 C   0  0  0  0  0  0  0  0  0  0  0  0
   -9.9417    2.8016   22.1342 C   0  0  0  0  0  0  0  0  0  0  0  0
   -9.4983    3.8342   22.9336 C   0  0  0  0  0  0  0  0  0  0  0  0
  1  3  1  0
 10 13  1  0
 13 14  1  0
 13 15  2  0
 14 16  1  0
 17 18  1  0
 14 20  1  0
 19 20  1  0
  8 21  1  0
 21 22  1  0
 16 17  1  0
 18 19  1  0
 22 23  2  0
 23 24  1  0
 24 25  2  0
 25 26  1  0
 26 27  2  0
 27 22  1  0
  1  2  2  0
  2  4  1  0
  4  5  2  0
  5  8  1  0
  8  7  2  0
  7  1  1  0
  3  6  2  0
  6  9  1  0
  9 10  2  0
 10 11  1  0
 11 12  2  0
 12  3  1  0
M  END
$$$$
