No_6871-complexes_sdf/6BKW-FPZ/2024-09-17-14-21-01/
     RDKit          3D

 14 14  0  0  0  0  0  0  0  0999 V2000
   -7.9040    3.9820   27.1177 C   0  0  0  0  0  0  0  0  0  0  0  0
   -8.2057    2.8231   26.8733 C   0  0  0  0  0  0  0  0  0  0  0  0
   -8.7695    5.0740   26.7916 C   0  0  0  0  0  0  0  0  0  0  0  0
   -8.4337    6.4678   27.0913 C   0  0  0  0  0  0  0  0  0  0  0  0
   -9.3742    2.4311   26.2346 C   0  0  0  0  0  0  0  0  0  0  0  0
  -10.2395    3.4267   25.8887 C   0  0  0  0  0  0  0  0  0  0  0  0
  -10.0317    4.6684   26.0971 C   0  0  0  0  0  0  0  0  0  0  0  0
   -8.0726    7.4145   26.9904 N   0  0  0  0  0  0  0  0  0  0  0  0
   -7.2473    1.6809   27.2981 C   0  0  0  0  0  0  0  0  0  0  0  0
   -5.9141    2.1206   28.1650 Cl  0  0  0  0  0  0  0  0  0  0  0  0
   -7.4665    0.3249   26.9967 C   0  0  0  0  0  0  0  0  0  0  0  0
   -8.3082   -0.3444   26.8084 C   0  0  0  0  0  0  0  0  0  0  0  0
   -8.4945   -1.5607   26.7361 C   0  0  0  0  0  0  0  0  0  0  0  0
   -7.3013   -2.3159   26.7952 C   0  0  0  0  0  0  0  0  0  0  0  0
  3  4  1  0
  4  8  3  0
  2  9  1  0
  9 10  1  0
  9 11  1  0
 11 12  2  3
 12 13  1  0
 13 14  2  0
  1  2  2  0
  2  5  1  0
  5  6  2  0
  6  7  1  0
  7  3  2  0
  3  1  1  0
M  END
$$$$
