No_6829-complexes_sdf/6BKW-FPZ/2024-09-17-14-21-01/
     RDKit          3D

 18 19  0  0  0  0  0  0  0  0999 V2000
   -7.9040    3.9820   27.1177 C   0  0  0  0  0  0  0  0  0  0  0  0
   -9.0711    4.3164   27.0630 C   0  0  0  0  0  0  0  0  0  0  0  0
  -10.0395    3.8218   27.1938 C   0  0  0  0  0  0  0  0  0  0  0  0
   -7.6424    2.5858   27.3610 C   0  0  0  0  0  0  0  0  0  0  0  0
   -8.7646    1.7754   27.4263 C   0  0  0  0  0  0  0  0  0  0  0  0
   -9.9966    2.3406   27.3957 C   0  0  0  0  0  0  0  0  0  0  0  0
   -6.2872    2.0438   27.3877 C   0  0  0  0  0  0  0  0  0  0  0  0
   -5.3208    2.6622   28.2377 C   0  0  0  0  0  0  0  0  0  0  0  0
   -6.3555    0.4941   27.5793 C   0  0  0  0  0  0  0  0  0  0  0  0
   -9.1460    6.2167   26.8416 Cl  0  0  0  0  0  0  0  0  0  0  0  0
   -6.9120   -0.2433   26.8900 C   0  0  0  0  0  0  0  0  0  0  0  0
   -5.2003    0.0719   28.4331 C   0  0  0  0  0  0  0  0  0  0  0  0
   -4.1410    0.7265   28.9595 C   0  0  0  0  0  0  0  0  0  0  0  0
   -4.2776    2.1021   28.8336 N   0  0  0  0  0  0  0  0  0  0  0  0
   -6.6192   -0.7143   25.8166 C   0  0  0  0  0  0  0  0  0  0  0  0
   -7.3510   -1.4420   24.7896 C   0  0  0  0  0  0  0  0  0  0  0  0
   -8.6558   -1.6490   25.1451 C   0  0  0  0  0  0  0  0  0  0  0  0
   -9.1576   -1.2001   26.3387 C   0  0  0  0  0  0  0  0  0  0  0  0
  4  7  1  0
  2 10  1  0
 11 15  1  0
 15 16  2  3
 16 17  1  0
 17 18  2  0
 11  9  1  0
  1  2  2  0
  2  3  1  0
  3  6  2  0
  6  5  1  0
  5  4  2  0
  4  1  1  0
  7  8  2  0
  8 14  1  0
 14 13  2  0
 13 12  1  0
 12  9  2  0
  9  7  1  0
M  END
$$$$
