No_6293-complexes_sdf/6BKW-FPZ/2024-09-17-14-21-01/
     RDKit          3D

 31 34  0  0  0  0  0  0  0  0999 V2000
   -7.9040    3.9820   27.1177 C   0  0  0  0  0  0  0  0  0  0  0  0
   -9.0711    4.3164   27.0630 C   0  0  0  0  0  0  0  0  0  0  0  0
   -9.5182    5.5541   27.5777 C   0  0  0  0  0  0  0  0  0  0  0  0
   -6.9424    4.7983   27.8424 C   0  0  0  0  0  0  0  0  0  0  0  0
   -7.3526    5.9739   28.3909 C   0  0  0  0  0  0  0  0  0  0  0  0
   -8.6479    6.3742   28.2170 C   0  0  0  0  0  0  0  0  0  0  0  0
   -9.9331    3.3424   26.2519 C   0  0  0  0  0  0  0  0  0  0  0  0
  -10.4174    3.7577   25.1039 C   0  0  0  0  0  0  0  0  0  0  0  0
  -11.1702    2.9862   24.1814 C   0  0  0  0  0  0  0  0  0  0  0  0
  -11.3914    1.6796   24.5459 C   0  0  0  0  0  0  0  0  0  0  0  0
  -10.1483    2.0219   26.4999 C   0  0  0  0  0  0  0  0  0  0  0  0
  -10.8389    1.1814   25.7521 C   0  0  0  0  0  0  0  0  0  0  0  0
  -11.7206    3.5713   22.9648 C   0  0  1  0  0  0  0  0  0  0  0  0
  -12.7129    4.2156   22.9721 C   0  0  0  0  0  0  0  0  0  0  0  0
  -13.4419    4.4476   24.2695 C   0  0  0  0  0  0  0  0  0  0  0  0
  -14.7411    5.1540   24.2245 C   0  0  0  0  0  0  0  0  0  0  0  0
  -15.1415    5.6616   23.0033 C   0  0  0  0  0  0  0  0  0  0  0  0
  -14.4911    5.4867   21.8511 C   0  0  0  0  0  0  0  0  0  0  0  0
  -13.2928    4.8180   21.8360 C   0  0  0  0  0  0  0  0  0  0  0  0
  -10.8057    3.4288   21.8148 C   0  0  1  0  0  0  0  0  0  0  0  0
  -10.8651    2.3838   20.9284 C   0  0  0  0  0  0  0  0  0  0  0  0
  -11.5707    1.3572   21.0257 C   0  0  0  0  0  0  0  0  0  0  0  0
  -11.4675    0.2887   20.1482 C   0  0  0  0  0  0  0  0  0  0  0  0
  -11.9589   -0.8766   20.2188 C   0  0  0  0  0  0  0  0  0  0  0  0
  -12.9073   -1.0460   21.2566 C   0  0  0  0  0  0  0  0  0  0  0  0
  -13.2498   -0.0256   22.0865 C   0  0  0  0  0  0  0  0  0  0  0  0
  -12.5958    1.1420   22.0458 C   0  0  0  0  0  0  0  0  0  0  0  0
   -9.9939    4.6508   21.6104 C   0  0  0  0  0  0  0  0  0  0  0  0
  -14.2866   -0.3190   23.1585 C   0  0  0  0  0  0  0  0  0  0  0  0
  -15.1224    0.3147   23.1859 O   0  0  0  0  0  0  0  0  0  0  0  0
  -13.9812   -1.2777   23.9555 O   0  0  0  0  0  0  0  0  0  0  0  0
  2  7  1  0
 13  9  1  1
 13 20  1  0
 20 21  1  0
 21 22  1  0
 20 28  1  6
 26 29  1  0
 29 30  2  0
 29 31  1  0
 13 14  1  0
  7  8  2  0
  8  9  1  0
  9 10  2  0
 10 12  1  0
 12 11  2  0
 11  7  1  0
 14 15  2  0
 15 16  1  0
 16 17  2  0
 17 18  1  0
 18 19  2  0
 19 14  1  0
 22 23  2  0
 23 24  1  0
 24 25  2  0
 25 26  1  0
 26 27  2  0
 27 22  1  0
  1  2  2  0
  2  3  1  0
  3  6  2  0
  6  5  1  0
  5  4  2  0
  4  1  1  0
M  END
$$$$
