No_6242-complexes_sdf/6BKW-FPZ/2024-09-17-14-21-01/
     RDKit          3D

 10 10  0  0  0  0  0  0  0  0999 V2000
   -7.7129    4.2099   27.0854 C   0  0  0  0  0  0  0  0  0  0  0  0
   -7.7814    5.1722   27.8972 C   0  0  0  0  0  0  0  0  0  0  0  0
   -8.8776    3.8408   26.3416 C   0  0  0  0  0  0  0  0  0  0  0  0
   -9.9844    4.6492   26.4743 C   0  0  0  0  0  0  0  0  0  0  0  0
   -8.8033    6.1375   27.8728 C   0  0  0  0  0  0  0  0  0  0  0  0
   -9.9554    5.8280   27.1736 C   0  0  0  0  0  0  0  0  0  0  0  0
   -8.8727    2.4212   25.4324 Cl  0  0  0  0  0  0  0  0  0  0  0  0
  -11.0428    4.3915   25.7156 F   0  0  0  0  0  0  0  0  0  0  0  0
   -6.6880    5.5698   28.5897 F   0  0  0  0  0  0  0  0  0  0  0  0
   -6.6866    3.3455   27.1185 F   0  0  0  0  0  0  0  0  0  0  0  0
  3  7  1  0
  4  8  1  0
  2  9  1  0
  1 10  1  0
  1  2  2  0
  2  5  1  0
  5  6  2  0
  6  4  1  0
  4  3  2  0
  3  1  1  0
M  END
$$$$
