No_6975-complexes_sdf/6BKW-FPZ/2024-09-17-14-21-01/
     RDKit          3D

 21 23  0  0  0  0  0  0  0  0999 V2000
   -7.7129    4.2099   27.0854 C   0  0  0  0  0  0  0  0  0  0  0  0
   -8.2112    3.0637   26.9225 C   0  0  0  0  0  0  0  0  0  0  0  0
   -8.5108    5.3904   26.9436 C   0  0  0  0  0  0  0  0  0  0  0  0
   -7.9752    6.6981   27.2112 C   0  0  0  0  0  0  0  0  0  0  0  0
   -9.5213    2.8208   26.4688 C   0  0  0  0  0  0  0  0  0  0  0  0
  -10.2979    3.9327   26.2378 C   0  0  0  0  0  0  0  0  0  0  0  0
   -9.7894    5.2123   26.4395 C   0  0  0  0  0  0  0  0  0  0  0  0
   -7.3974    1.9061   27.1622 N   0  0  0  0  0  0  0  0  0  0  0  0
   -6.1805    1.9941   27.8323 C   0  0  0  0  0  0  0  0  0  0  0  0
   -5.4440    0.7144   28.0221 C   0  0  0  0  0  0  0  0  0  0  0  0
   -6.1553   -0.3686   27.6713 C   0  0  0  0  0  0  0  0  0  0  0  0
   -7.6094    0.5091   27.0466 C   0  0  0  0  0  0  0  0  0  0  0  0
   -7.9924    7.5601   26.5751 O   0  0  0  0  0  0  0  0  0  0  0  0
   -6.8446    6.5484   28.1042 O   0  0  0  0  0  0  0  0  0  0  0  0
   -4.1258    0.6384   28.6310 C   0  0  0  0  0  0  0  0  0  0  0  0
   -3.7580   -0.4462   29.2373 C   0  0  0  0  0  0  0  0  0  0  0  0
   -2.4371   -0.6444   29.5718 C   0  0  0  0  0  0  0  0  0  0  0  0
   -4.6908   -1.4049   29.7629 C   0  0  0  0  0  0  0  0  0  0  0  0
   -4.7040   -1.7847   30.8013 C   0  0  0  0  0  0  0  0  0  0  0  0
   -2.1287   -1.4772   30.7118 C   0  0  0  0  0  0  0  0  0  0  0  0
   -3.2592   -2.0767   31.4202 C   0  0  0  0  0  0  0  0  0  0  0  0
  3  4  1  0
  2  8  1  0
  8  9  1  0
  9 10  2  0
 10 11  1  0
  8 12  1  0
 11 12  2  0
  4 13  2  0
  4 14  1  0
 10 15  1  0
 15 16  1  0
 16 17  2  0
 17 20  1  0
 20 21  2  0
 21 19  1  0
 19 18  2  0
 18 16  1  0
  1  2  2  0
  2  5  1  0
  5  6  2  0
  6  7  1  0
  7  3  2  0
  3  1  1  0
M  END
$$$$
