No_6418-complexes_sdf/6BKW-FPZ/2024-09-17-14-21-01/
     RDKit          3D

 13 14  0  0  0  0  0  0  0  0999 V2000
   -7.9040    3.9820   27.1177 C   0  0  0  0  0  0  0  0  0  0  0  0
   -7.8663    4.8694   27.9238 C   0  0  0  0  0  0  0  0  0  0  0  0
   -9.0501    3.8017   26.2617 C   0  0  0  0  0  0  0  0  0  0  0  0
  -10.0189    4.7608   26.3707 C   0  0  0  0  0  0  0  0  0  0  0  0
   -8.6973    5.9722   27.8968 C   0  0  0  0  0  0  0  0  0  0  0  0
   -9.8216    5.8946   27.1241 C   0  0  0  0  0  0  0  0  0  0  0  0
   -9.1437    2.6293   25.4175 C   0  0  0  0  0  0  0  0  0  0  0  0
   -8.6170    1.4258   25.8177 C   0  0  0  0  0  0  0  0  0  0  0  0
   -8.6844    0.3194   24.9788 C   0  0  0  0  0  0  0  0  0  0  0  0
   -8.0501   -0.8605   25.3126 C   0  0  0  0  0  0  0  0  0  0  0  0
   -7.3577   -0.9558   26.5551 C   0  0  0  0  0  0  0  0  0  0  0  0
   -7.3081    0.1111   27.4254 C   0  0  0  0  0  0  0  0  0  0  0  0
   -7.8458    1.2932   27.0875 C   0  0  0  0  0  0  0  0  0  0  0  0
  3  7  1  0
  7  8  1  0
  8  9  2  0
  9 10  1  0
 10 11  2  0
 11 12  1  0
 12 13  2  0
 13  8  1  0
  1  2  2  0
  2  5  1  0
  5  6  2  0
  6  4  1  0
  4  3  2  0
  3  1  1  0
M  END
$$$$
