No_6037-complexes_sdf/6BKW-FPZ/2024-09-17-14-21-01/
     RDKit          3D

 17 19  0  0  0  0  0  0  0  0999 V2000
   -7.9040    3.9820   27.1177 C   0  0  0  0  0  0  0  0  0  0  0  0
   -9.0711    4.3164   27.0630 C   0  0  0  0  0  0  0  0  0  0  0  0
   -9.9692    3.7224   26.1073 C   0  0  0  0  0  0  0  0  0  0  0  0
   -6.9787    4.6761   28.1003 C   0  0  0  0  0  0  0  0  0  0  0  0
   -9.4538    2.6801   25.3673 C   0  0  0  0  0  0  0  0  0  0  0  0
   -8.1927    2.1957   25.6621 C   0  0  0  0  0  0  0  0  0  0  0  0
   -7.4333    2.8255   26.6299 C   0  0  0  0  0  0  0  0  0  0  0  0
  -10.3181    2.0008   24.3846 C   0  0  0  0  0  0  0  0  0  0  0  0
  -10.7358    2.6411   23.3159 C   0  0  0  0  0  0  0  0  0  0  0  0
  -11.1298    2.5760   22.3845 C   0  0  0  0  0  0  0  0  0  0  0  0
  -11.5444    3.5394   21.2859 C   0  0  0  0  0  0  0  0  0  0  0  0
  -11.4266    4.8734   21.6968 C   0  0  0  0  0  0  0  0  0  0  0  0
  -10.9165    5.1680   22.9200 C   0  0  0  0  0  0  0  0  0  0  0  0
  -10.4870    4.2420   23.7841 C   0  0  0  0  0  0  0  0  0  0  0  0
  -10.0911    4.5707   25.1319 C   0  0  0  0  0  0  0  0  0  0  0  0
   -5.8043    4.2929   28.1782 N   0  0  0  0  0  0  0  0  0  0  0  0
   -7.4426    5.8581   28.5547 N   0  0  0  0  0  0  0  0  0  0  0  0
  1  4  1  0
  4 16  1  0
  4 17  2  0
  5  8  2  0
  8  9  1  0
 14 15  1  0
 15  3  2  0
  9 10  2  0
 10 11  1  0
 11 12  2  0
 12 13  1  0
 13 14  2  0
 14  9  1  0
  1  2  2  0
  2  3  1  0
  3  5  1  0
  5  6  1  0
  6  7  2  0
  7  1  1  0
M  END
$$$$
