No_6803-complexes_sdf/6BKW-FPZ/2024-09-17-14-21-01/
     RDKit          3D

 13 13  0  0  0  0  0  0  0  0999 V2000
   -7.7129    4.2099   27.0854 C   0  0  0  0  0  0  0  0  0  0  0  0
   -8.2112    3.0637   26.9225 C   0  0  0  0  0  0  0  0  0  0  0  0
   -9.4446    2.8304   26.1868 C   0  0  0  0  0  0  0  0  0  0  0  0
   -8.4697    5.3956   26.7238 C   0  0  0  0  0  0  0  0  0  0  0  0
   -9.6172    5.2111   25.9513 C   0  0  0  0  0  0  0  0  0  0  0  0
  -10.0424    3.9782   25.6873 C   0  0  0  0  0  0  0  0  0  0  0  0
   -7.9172    6.7181   27.0124 C   0  0  0  0  0  0  0  0  0  0  0  0
   -8.4852    7.8665   26.4359 C   0  0  0  0  0  0  0  0  0  0  0  0
   -7.4914    1.8052   27.3828 C   0  0  0  0  0  0  0  0  0  0  0  0
   -6.4466    2.0841   28.0684 F   0  0  0  0  0  0  0  0  0  0  0  0
   -8.2043    1.0675   28.2245 F   0  0  0  0  0  0  0  0  0  0  0  0
   -7.1385    1.0162   26.2949 F   0  0  0  0  0  0  0  0  0  0  0  0
   -6.9177    6.7810   28.0102 C   0  0  0  0  0  0  0  0  0  0  0  0
  4  7  1  0
  7  8  1  0
  2  9  1  0
  9 10  1  0
  9 11  1  0
  9 12  1  0
  7 13  1  0
  1  2  2  0
  2  3  1  0
  3  6  2  0
  6  5  1  0
  5  4  2  0
  4  1  1  0
M  END
$$$$
