No_6224-complexes_sdf/6BKW-FPZ/2024-09-17-14-21-01/
     RDKit          3D

 29 32  0  0  0  0  0  0  0  0999 V2000
   -7.2496    3.8871   27.4508 C   0  0  0  0  0  0  0  0  0  0  0  0
   -8.5096    4.0291   27.2770 C   0  0  2  0  0  0  0  0  0  0  0  0
   -9.3451    2.8786   26.9046 C   0  0  0  0  0  0  0  0  0  0  0  0
  -10.6709    3.0505   26.6789 C   0  0  0  0  0  0  0  0  0  0  0  0
   -6.5987    2.6095   27.5132 C   0  0  1  0  0  0  0  0  0  0  0  0
   -7.3529    1.5121   27.2159 C   0  0  2  0  0  0  0  0  0  0  0  0
   -8.6970    1.6824   26.9913 C   0  0  0  0  0  0  0  0  0  0  0  0
  -11.5980    2.1938   27.2733 C   0  0  0  0  0  0  0  0  0  0  0  0
  -11.2521    1.3285   28.1157 C   0  0  0  0  0  0  0  0  0  0  0  0
  -12.1888    0.3344   28.6821 C   0  0  0  0  0  0  0  0  0  0  0  0
   -5.2893    2.5649   27.7359 F   0  0  0  0  0  0  0  0  0  0  0  0
  -13.4791    0.6000   28.5384 C   0  0  0  0  0  0  0  0  0  0  0  0
  -13.9377    1.6257   27.7598 C   0  0  0  0  0  0  0  0  0  0  0  0
  -13.0106    2.4714   27.1952 C   0  0  0  0  0  0  0  0  0  0  0  0
   -9.1216    5.3710   27.2841 C   0  0  0  0  0  0  0  0  0  0  0  0
   -8.2887    6.5265   27.1940 C   0  0  0  0  0  0  0  0  0  0  0  0
   -8.7983    7.7984   26.7064 C   0  0  0  0  0  0  0  0  0  0  0  0
   -6.7380    0.1577   27.2601 C   0  0  1  0  0  0  0  0  0  0  0  0
   -5.7571   -0.1149   27.7388 C   0  0  0  0  0  0  0  0  0  0  0  0
   -5.2472   -1.4880   27.8071 C   0  0  0  0  0  0  0  0  0  0  0  0
   -6.0560   -2.4159   27.2715 C   0  0  0  0  0  0  0  0  0  0  0  0
   -7.2772   -1.1747   26.8700 C   0  0  2  0  0  0  0  0  0  0  0  0
   -7.6905   -1.2887   25.4845 C   0  0  0  0  0  0  0  0  0  0  0  0
   -9.0517   -1.4010   25.2622 C   0  0  0  0  0  0  0  0  0  0  0  0
   -9.3955   -1.9028   24.3433 C   0  0  0  0  0  0  0  0  0  0  0  0
   -8.6492   -2.1417   23.1713 C   0  0  0  0  0  0  0  0  0  0  0  0
   -6.7760   -1.2516   24.4243 C   0  0  0  0  0  0  0  0  0  0  0  0
   -7.2413   -1.7918   23.2095 C   0  0  0  0  0  0  0  0  0  0  0  0
   -8.5124   -1.4951   27.8051 C   0  0  0  0  0  0  0  0  0  0  0  0
  1  2  1  0
  2  3  1  0
  3  4  2  3
  1  5  1  0
  5  6  1  0
  3  7  1  0
  6  7  1  1
  4  8  1  0
  5 11  1  6
  2 15  1  6
 15 16  1  0
 16 17  2  0
  6 18  1  0
 18 19  1  1
 19 20  2  0
 20 21  1  0
 18 22  1  0
 21 22  1  0
 22 23  1  0
 22 29  1  1
  8  9  2  0
  9 10  1  0
 10 12  2  0
 12 13  1  0
 13 14  2  0
 14  8  1  0
 23 24  2  0
 24 25  1  0
 25 26  2  0
 26 28  1  0
 28 27  2  0
 27 23  1  0
M  END
$$$$
