No_6258-complexes_sdf/6BKW-FPZ/2024-09-17-14-21-01/
     RDKit          3D

 18 19  0  0  0  0  0  0  0  0999 V2000
   -7.2496    3.8871   27.4508 C   0  0  0  0  0  0  0  0  0  0  0  0
   -8.5096    4.0291   27.2770 C   0  0  0  0  0  0  0  0  0  0  0  0
   -9.3451    2.8786   26.9046 C   0  0  0  0  0  0  0  0  0  0  0  0
   -6.6065    2.5680   27.5073 C   0  0  0  0  0  0  0  0  0  0  0  0
   -7.4233    1.4858   27.2402 C   0  0  0  0  0  0  0  0  0  0  0  0
   -8.7362    1.6525   26.9989 C   0  0  0  0  0  0  0  0  0  0  0  0
   -8.9197    5.4825   27.2215 C   0  0  0  0  0  0  0  0  0  0  0  0
   -8.1138    6.5118   27.4531 C   0  0  0  0  0  0  0  0  0  0  0  0
   -8.6288    7.8252   27.3415 C   0  0  0  0  0  0  0  0  0  0  0  0
   -6.6138    0.2154   27.3131 C   0  0  0  0  0  0  0  0  0  0  0  0
   -5.5437    0.0812   27.5628 O   0  0  0  0  0  0  0  0  0  0  0  0
   -7.3916   -0.8699   26.8834 O   0  0  0  0  0  0  0  0  0  0  0  0
   -8.3911   -1.0466   26.5604 C   0  0  0  0  0  0  0  0  0  0  0  0
   -8.8248   -2.4268   26.0773 C   0  0  0  0  0  0  0  0  0  0  0  0
  -10.0818   -2.6490   25.6837 C   0  0  0  0  0  0  0  0  0  0  0  0
  -11.0297   -1.5867   25.7182 C   0  0  0  0  0  0  0  0  0  0  0  0
  -10.7278   -0.3428   26.1545 C   0  0  0  0  0  0  0  0  0  0  0  0
   -9.4787   -0.0332   26.6278 C   0  0  0  0  0  0  0  0  0  0  0  0
  2  7  1  0
  7  8  2  3
  8  9  1  0
  5 10  1  0
 10 11  2  0
 10 12  1  0
 12 13  1  0
 13 14  2  0
 14 15  1  0
 15 16  2  0
 16 17  1  0
 17 18  2  0
 18 13  1  0
  1  2  2  0
  2  3  1  0
  3  6  2  0
  6  5  1  0
  5  4  2  0
  4  1  1  0
M  END
$$$$
