No_6690-complexes_sdf/6BKW-FPZ/2024-09-17-14-21-01/
     RDKit          3D

 28 31  0  0  0  0  0  0  0  0999 V2000
   -7.9040    3.9820   27.1177 C   0  0  0  0  0  0  0  0  0  0  0  0
   -9.0711    4.3164   27.0630 C   0  0  0  0  0  0  0  0  0  0  0  0
   -9.9692    3.7224   26.1073 C   0  0  0  0  0  0  0  0  0  0  0  0
   -7.4776    2.6994   26.6283 C   0  0  0  0  0  0  0  0  0  0  0  0
   -8.4406    1.9440   25.9776 C   0  0  0  0  0  0  0  0  0  0  0  0
   -9.6379    2.5001   25.6881 C   0  0  0  0  0  0  0  0  0  0  0  0
   -6.7701    4.7886   28.1891 Cl  0  0  0  0  0  0  0  0  0  0  0  0
  -10.5973    1.7372   24.8197 C   0  0  2  0  0  0  0  0  0  0  0  0
  -10.8736    2.1481   23.6065 C   0  0  0  0  0  0  0  0  0  0  0  0
  -10.9675    3.3463   23.2672 C   0  0  0  0  0  0  0  0  0  0  0  0
  -11.0778    3.8745   21.8925 C   0  0  0  0  0  0  0  0  0  0  0  0
  -11.0487    2.9287   20.9119 C   0  0  0  0  0  0  0  0  0  0  0  0
  -10.9151    1.5695   21.2158 C   0  0  0  0  0  0  0  0  0  0  0  0
  -10.7454    1.1986   22.4950 C   0  0  0  0  0  0  0  0  0  0  0  0
  -11.8608    1.4731   25.6025 C   0  0  0  0  0  0  0  0  0  0  0  0
  -12.0172    0.2301   26.0567 C   0  0  0  0  0  0  0  0  0  0  0  0
  -10.9803   -0.7693   25.9324 C   0  0  0  0  0  0  0  0  0  0  0  0
  -11.1282   -1.9427   26.5570 C   0  0  0  0  0  0  0  0  0  0  0  0
  -12.3469   -2.1994   27.2731 C   0  0  0  0  0  0  0  0  0  0  0  0
  -13.3197   -1.2915   27.4200 C   0  0  0  0  0  0  0  0  0  0  0  0
  -13.1537   -0.0276   26.8879 C   0  0  0  0  0  0  0  0  0  0  0  0
  -13.0676    1.9588   24.7877 C   0  0  0  0  0  0  0  0  0  0  0  0
  -13.8835    1.0995   24.0968 C   0  0  0  0  0  0  0  0  0  0  0  0
  -14.9259    1.5573   23.3405 C   0  0  0  0  0  0  0  0  0  0  0  0
  -15.2080    2.9098   23.3506 C   0  0  0  0  0  0  0  0  0  0  0  0
  -14.5051    3.8210   24.1481 C   0  0  0  0  0  0  0  0  0  0  0  0
  -13.4377    3.3916   24.8629 C   0  0  0  0  0  0  0  0  0  0  0  0
  -10.5790   -0.0992   22.7643 F   0  0  0  0  0  0  0  0  0  0  0  0
  1  7  1  0
  6  8  1  0
  8  9  1  0
  8 15  1  1
 15 22  1  0
 14 28  1  0
 15 16  1  0
 22 23  2  0
 23 24  1  0
 24 25  2  0
 25 26  1  0
 26 27  2  0
 27 22  1  0
  1  2  2  0
  2  3  1  0
  3  6  2  0
  6  5  1  0
  5  4  2  0
  4  1  1  0
  9 10  2  0
 10 11  1  0
 11 12  2  0
 12 13  1  0
 13 14  2  0
 14  9  1  0
 16 17  2  0
 17 18  1  0
 18 19  2  0
 19 20  1  0
 20 21  2  0
 21 16  1  0
M  END
$$$$
