No_6543-complexes_sdf/6BKW-FPZ/2024-09-17-14-21-01/
     RDKit          3D

 36 38  0  0  0  0  0  0  0  0999 V2000
   -7.7129    4.2099   27.0854 C   0  0  0  0  0  0  0  0  0  0  0  0
   -8.9133    4.4736   27.0998 C   0  0  0  0  0  0  0  0  0  0  0  0
   -9.8363    3.8127   27.2418 C   0  0  0  0  0  0  0  0  0  0  0  0
   -7.2995    2.8520   27.3808 C   0  0  0  0  0  0  0  0  0  0  0  0
   -8.3404    1.9507   27.4989 C   0  0  0  0  0  0  0  0  0  0  0  0
   -9.6166    2.3791   27.4719 C   0  0  0  0  0  0  0  0  0  0  0  0
   -9.1683    6.0342   26.9011 C   0  0  0  0  0  0  0  0  0  0  0  0
   -8.1732    6.9716   27.0509 C   0  0  0  0  0  0  0  0  0  0  0  0
   -8.3843    8.3100   26.4898 C   0  0  0  0  0  0  0  0  0  0  0  0
  -10.7620    1.4200   27.7494 C   0  0  0  0  0  0  0  0  0  0  0  0
  -11.7553    1.8498   28.4072 N   0  0  0  0  0  0  0  0  0  0  0  0
  -12.7428    1.0539   28.9036 C   0  0  0  0  0  0  0  0  0  0  0  0
  -10.6371    0.2537   27.4415 O   0  0  0  0  0  0  0  0  0  0  0  0
  -13.6794    1.8043   29.7417 C   0  0  0  0  0  0  0  0  0  0  0  0
  -14.1670    1.3238   30.8131 C   0  0  0  0  0  0  0  0  0  0  0  0
  -14.9268    2.1349   31.7228 C   0  0  0  0  0  0  0  0  0  0  0  0
  -15.1259    3.5164   31.4209 C   0  0  0  0  0  0  0  0  0  0  0  0
  -14.5470    4.0448   30.2817 C   0  0  0  0  0  0  0  0  0  0  0  0
  -13.6986    3.2360   29.4737 C   0  0  0  0  0  0  0  0  0  0  0  0
  -12.9197   -0.0893   28.7534 O   0  0  0  0  0  0  0  0  0  0  0  0
   -5.6687    2.3669   27.4007 Cl  0  0  0  0  0  0  0  0  0  0  0  0
  -15.8671    4.2854   32.2370 F   0  0  0  0  0  0  0  0  0  0  0  0
   -7.0211    6.7631   27.7929 C   0  0  0  0  0  0  0  0  0  0  0  0
  -15.6990    1.4368   33.1567 S   0  0  0  0  0  0  0  0  0  0  0  0
  -14.9491    0.4786   33.3957 O   0  0  0  0  0  0  0  0  0  0  0  0
  -15.6393    2.5485   34.2158 N   0  0  0  0  0  0  0  0  0  0  0  0
  -17.0178    1.2056   32.6687 O   0  0  0  0  0  0  0  0  0  0  0  0
  -14.4457    3.0070   34.7009 C   0  0  0  0  0  0  0  0  0  0  0  0
  -13.4551    2.5153   34.9536 C   0  0  0  0  0  0  0  0  0  0  0  0
  -12.1777    3.0928   35.4840 C   0  0  0  0  0  0  0  0  0  0  0  0
  -12.2112    4.4507   35.7339 C   0  0  0  0  0  0  0  0  0  0  0  0
  -13.3640    5.2256   35.3541 C   0  0  0  0  0  0  0  0  0  0  0  0
  -14.5028    4.5721   34.8627 C   0  0  0  0  0  0  0  0  0  0  0  0
  -11.0053    5.1221   36.2229 C   0  0  0  0  0  0  0  0  0  0  0  0
   -9.9556    4.7114   35.9324 N   0  0  0  0  0  0  0  0  0  0  0  0
  -11.2555    6.2287   36.9125 O   0  0  0  0  0  0  0  0  0  0  0  0
  2  7  1  0
  7  8  1  0
  8  9  1  0
  6 10  1  0
 10 11  1  0
 11 12  1  0
 10 13  2  0
 12 14  1  0
 12 20  2  0
  4 21  1  0
 17 22  1  0
  8 23  1  0
 16 24  1  0
 24 25  2  0
 24 26  1  0
 24 27  2  0
 26 28  1  0
 31 34  1  0
 34 35  1  0
 34 36  2  0
 28 29  2  0
 29 30  1  0
 30 31  2  0
 31 32  1  0
 32 33  2  0
 33 28  1  0
 14 15  2  0
 15 16  1  0
 16 17  2  0
 17 18  1  0
 18 19  2  0
 19 14  1  0
  1  2  2  0
  2  3  1  0
  3  6  2  0
  6  5  1  0
  5  4  2  0
  4  1  1  0
M  END
$$$$
