No_6094-complexes_sdf/6BKW-FPZ/2024-09-17-14-21-01/
     RDKit          3D

  9  8  0  0  0  0  0  0  0  0999 V2000
   -7.9040    3.9820   27.1177 C   0  0  0  0  0  0  0  0  0  0  0  0
   -9.0711    4.3164   27.0630 C   0  0  0  0  0  0  0  0  0  0  0  0
   -9.8698    3.9665   25.9495 C   0  0  0  0  0  0  0  0  0  0  0  0
   -7.0073    4.5416   28.1673 C   0  0  0  0  0  0  0  0  0  0  0  0
   -7.4030    5.6051   28.6861 N   0  0  0  0  0  0  0  0  0  0  0  0
   -9.5368    4.3473   24.7015 C   0  0  0  0  0  0  0  0  0  0  0  0
  -10.2685    4.0201   23.5380 C   0  0  0  0  0  0  0  0  0  0  0  0
  -11.2983    3.1522   23.6127 C   0  0  0  0  0  0  0  0  0  0  0  0
  -11.7801    2.7689   24.8863 C   0  0  0  0  0  0  0  0  0  0  0  0
  1  2  1  0
  2  3  3  0
  1  4  1  0
  4  5  1  0
  3  6  1  0
  6  7  2  3
  7  8  1  0
  8  9  2  0
M  END
$$$$
