No_6016-complexes_sdf/6BKW-FPZ/2024-09-17-14-21-01/
     RDKit          3D

 24 28  0  0  0  0  0  0  0  0999 V2000
   -7.7129    4.2099   27.0854 C   0  0  0  0  0  0  0  0  0  0  0  0
   -7.7814    5.1722   27.8972 C   0  0  0  0  0  0  0  0  0  0  0  0
   -8.8776    3.8408   26.3416 C   0  0  0  0  0  0  0  0  0  0  0  0
   -9.9844    4.6492   26.4743 C   0  0  0  0  0  0  0  0  0  0  0  0
   -8.7830    6.1594   27.8870 C   0  0  0  0  0  0  0  0  0  0  0  0
   -9.9269    5.8191   27.1183 C   0  0  0  0  0  0  0  0  0  0  0  0
   -8.8618    2.6242   25.5633 C   0  0  0  0  0  0  0  0  0  0  0  0
   -8.2819    1.4836   26.1793 C   0  0  0  0  0  0  0  0  0  0  0  0
   -8.3710    0.3577   25.7867 C   0  0  0  0  0  0  0  0  0  0  0  0
   -7.6911   -0.7922   26.4325 C   0  0  0  0  0  0  0  0  0  0  0  0
   -6.9355   -0.5223   27.5830 C   0  0  0  0  0  0  0  0  0  0  0  0
   -6.7258    0.8111   27.9379 C   0  0  0  0  0  0  0  0  0  0  0  0
   -7.2955    1.8155   27.3095 C   0  0  0  0  0  0  0  0  0  0  0  0
   -7.1688    3.1660   27.7193 N   0  0  0  0  0  0  0  0  0  0  0  0
  -11.1259    4.4160   25.5899 C   0  0  0  0  0  0  0  0  0  0  0  0
  -10.9241    4.4400   24.1794 C   0  0  0  0  0  0  0  0  0  0  0  0
  -11.8675    4.2100   23.3051 C   0  0  0  0  0  0  0  0  0  0  0  0
  -13.1823    3.9560   23.7641 C   0  0  0  0  0  0  0  0  0  0  0  0
  -12.3674    4.1279   26.0615 C   0  0  0  0  0  0  0  0  0  0  0  0
  -13.4297    3.9816   25.1788 C   0  0  0  0  0  0  0  0  0  0  0  0
   -6.2081   -1.5977   28.2712 C   0  0  0  0  0  0  0  0  0  0  0  0
   -5.0263   -1.2991   28.7507 C   0  0  0  0  0  0  0  0  0  0  0  0
   -4.6508    0.0455   29.1217 C   0  0  0  0  0  0  0  0  0  0  0  0
   -5.4132    1.1158   28.5672 C   0  0  0  0  0  0  0  0  0  0  0  0
  4 15  1  0
  1  2  2  0
  2  5  1  0
  5  6  2  0
  6  4  1  0
  4  3  2  0
 12 24  2  0
 24 23  1  0
 23 22  2  0
 22 21  1  0
 21 11  2  0
  1  3  1  0
  3  7  1  0
  7  8  2  0
 13 14  2  0
 14  1  1  0
 15 16  2  0
 16 17  1  0
 17 18  2  0
 18 20  1  0
 20 19  2  0
 19 15  1  0
  8  9  1  0
  9 10  2  0
 10 11  1  0
 11 12  1  0
 12 13  1  0
 13  8  1  0
M  END
$$$$
