No_6743-complexes_sdf/6BKW-FPZ/2024-09-17-14-21-01/
     RDKit          3D

 32 36  0  0  0  0  0  0  0  0999 V2000
   -7.9040    3.9820   27.1177 C   0  0  0  0  0  0  0  0  0  0  0  0
   -9.0711    4.3164   27.0630 C   0  0  0  0  0  0  0  0  0  0  0  0
   -9.8698    3.9665   25.9495 C   0  0  0  0  0  0  0  0  0  0  0  0
   -6.9515    4.6878   28.0207 C   0  0  0  0  0  0  0  0  0  0  0  0
  -11.1591    3.4833   26.0876 C   0  0  0  0  0  0  0  0  0  0  0  0
  -11.8346    3.1513   24.9888 C   0  0  0  0  0  0  0  0  0  0  0  0
   -7.5466    5.7080   28.7996 C   0  0  0  0  0  0  0  0  0  0  0  0
  -11.2655    3.3297   23.6789 C   0  0  0  0  0  0  0  0  0  0  0  0
  -10.0465    3.9053   23.5307 C   0  0  0  0  0  0  0  0  0  0  0  0
   -9.2917    4.2601   24.6677 C   0  0  0  0  0  0  0  0  0  0  0  0
   -9.4759    5.3967   27.9842 C   0  0  0  0  0  0  0  0  0  0  0  0
   -8.8069    6.0771   28.7028 C   0  0  0  0  0  0  0  0  0  0  0  0
  -12.0369    3.0430   22.4416 C   0  0  0  0  0  0  0  0  0  0  0  0
  -12.9918    3.7058   22.0521 C   0  0  0  0  0  0  0  0  0  0  0  0
  -13.7491    3.4585   20.8214 C   0  0  0  0  0  0  0  0  0  0  0  0
  -13.2944    2.3961   20.0360 C   0  0  0  0  0  0  0  0  0  0  0  0
  -11.5111    1.9970   21.6234 C   0  0  0  0  0  0  0  0  0  0  0  0
  -12.1610    1.6809   20.4254 C   0  0  0  0  0  0  0  0  0  0  0  0
  -11.7813    3.3161   27.3886 C   0  0  0  0  0  0  0  0  0  0  0  0
  -12.9626    3.7411   27.6456 C   0  0  0  0  0  0  0  0  0  0  0  0
  -13.6044    3.5291   28.8955 C   0  0  0  0  0  0  0  0  0  0  0  0
  -12.8309    2.8916   29.9333 C   0  0  0  0  0  0  0  0  0  0  0  0
  -11.0658    2.7256   28.4789 C   0  0  0  0  0  0  0  0  0  0  0  0
  -11.6458    2.4303   29.6991 C   0  0  0  0  0  0  0  0  0  0  0  0
  -13.6241    2.6913   31.4903 Cl  0  0  0  0  0  0  0  0  0  0  0  0
   -5.7350    4.2702   28.1453 F   0  0  0  0  0  0  0  0  0  0  0  0
  -10.2981    1.2326   21.9567 C   0  0  0  0  0  0  0  0  0  0  0  0
  -10.3585   -0.1749   21.8463 C   0  0  0  0  0  0  0  0  0  0  0  0
   -9.1647   -0.7843   21.8599 C   0  0  0  0  0  0  0  0  0  0  0  0
   -7.9905   -0.2575   22.3969 C   0  0  0  0  0  0  0  0  0  0  0  0
   -8.0525    1.1320   22.7459 C   0  0  0  0  0  0  0  0  0  0  0  0
   -9.1162    1.8337   22.4703 C   0  0  0  0  0  0  0  0  0  0  0  0
  2  3  1  0
  8 13  1  0
  5 19  1  0
 22 25  1  0
  4 26  1  0
 17 27  1  0
  1  2  2  0
  2 11  1  0
 11 12  2  0
 12  7  1  0
  7  4  2  0
  4  1  1  0
 19 20  2  0
 20 21  1  0
 21 22  2  0
 22 24  1  0
 24 23  2  0
 23 19  1  0
 27 28  2  0
 28 29  1  0
 29 30  2  0
 30 31  1  0
 31 32  2  0
 32 27  1  0
 13 14  2  0
 14 15  1  0
 15 16  2  0
 16 18  1  0
 18 17  2  0
 17 13  1  0
  3  5  1  0
  5  6  2  0
  6  8  1  0
  8  9  2  0
  9 10  1  0
 10  3  2  0
M  END
$$$$
