No_6279-complexes_sdf/6BKW-FPZ/2024-09-17-14-21-01/
     RDKit          3D

 22 26  0  0  0  0  0  0  0  0999 V2000
   -7.7129    4.2099   27.0854 C   0  0  0  0  0  0  0  0  0  0  0  0
   -7.7814    5.1722   27.8972 C   0  0  0  0  0  0  0  0  0  0  0  0
   -8.7889    3.2468   27.2220 C   0  0  0  0  0  0  0  0  0  0  0  0
   -8.5940    1.9755   26.6525 C   0  0  0  0  0  0  0  0  0  0  0  0
   -8.9964    5.6056   28.3460 N   0  0  0  0  0  0  0  0  0  0  0  0
   -9.8741    3.5866   27.9266 C   0  0  0  0  0  0  0  0  0  0  0  0
   -9.9580    4.8496   28.5367 C   0  0  0  0  0  0  0  0  0  0  0  0
   -7.4712    1.2783   26.7773 C   0  0  0  0  0  0  0  0  0  0  0  0
   -7.2438    0.0048   26.2873 C   0  0  0  0  0  0  0  0  0  0  0  0
   -9.5092    1.5125   25.7354 C   0  0  0  0  0  0  0  0  0  0  0  0
   -9.3277    0.2824   25.0974 C   0  0  0  0  0  0  0  0  0  0  0  0
   -8.1891   -0.4333   25.3924 C   0  0  0  0  0  0  0  0  0  0  0  0
  -11.0474    2.6658   28.0007 C   0  0  0  0  0  0  0  0  0  0  0  0
  -11.1825    1.6705   28.2287 C   0  0  0  0  0  0  0  0  0  0  0  0
  -12.3589    0.8277   28.4524 C   0  0  0  0  0  0  0  0  0  0  0  0
  -12.2953   -0.5713   28.6882 C   0  0  0  0  0  0  0  0  0  0  0  0
  -10.9956   -1.1566   28.6473 C   0  0  0  0  0  0  0  0  0  0  0  0
   -9.8281   -0.5179   28.3342 C   0  0  0  0  0  0  0  0  0  0  0  0
   -9.8604    0.7922   28.0996 C   0  0  0  0  0  0  0  0  0  0  0  0
   -8.8980    1.2679   28.2031 O   0  0  0  0  0  0  0  0  0  0  0  0
   -7.8834    0.1941   28.1703 C   0  0  1  0  0  0  0  0  0  0  0  0
   -8.6332   -1.2370   28.4329 C   0  0  0  0  0  0  0  0  0  0  0  0
  6 13  1  0
 19 20  1  0
  8 21  1  0
 20 21  1  0
 18 22  1  0
 21 22  1  6
 13 14  1  0
  3  4  1  0
  4  8  2  0
  8  9  1  0
  9 12  2  0
 12 11  1  0
 11 10  2  0
 10  4  1  0
  1  2  2  0
  2  5  1  0
  5  7  2  0
  7  6  1  0
  6  3  2  0
  3  1  1  0
 14 15  2  0
 15 16  1  0
 16 17  2  0
 17 18  1  0
 18 19  2  0
 19 14  1  0
M  END
$$$$
