No_6492-complexes_sdf/6BKW-FPZ/2024-09-17-14-21-01/
     RDKit          3D

 12 13  0  0  0  0  0  0  0  0999 V2000
   -7.7129    4.2099   27.0854 C   0  0  0  0  0  0  0  0  0  0  0  0
   -8.9133    4.4736   27.0998 C   0  0  0  0  0  0  0  0  0  0  0  0
   -9.7135    3.9633   26.0300 C   0  0  0  0  0  0  0  0  0  0  0  0
   -6.8420    4.9760   28.0851 C   0  0  0  0  0  0  0  0  0  0  0  0
  -10.9164    3.4776   26.1172 C   0  0  0  0  0  0  0  0  0  0  0  0
  -11.5453    3.0000   24.9937 C   0  0  0  0  0  0  0  0  0  0  0  0
  -11.0094    3.2254   23.8096 C   0  0  0  0  0  0  0  0  0  0  0  0
   -9.8357    3.9328   23.5943 C   0  0  0  0  0  0  0  0  0  0  0  0
   -9.1696    4.3638   24.7153 C   0  0  0  0  0  0  0  0  0  0  0  0
   -9.5370    4.2657   28.3320 C   0  0  0  0  0  0  0  0  0  0  0  0
   -8.8470    6.1500   26.9166 C   0  0  0  0  0  0  0  0  0  0  0  0
   -7.5323    6.3850   28.0301 C   0  0  0  0  0  0  0  0  0  0  0  0
  1  2  1  0
  2  3  1  0
  1  4  1  0
  2 10  1  0
  2 11  1  0
  4 12  1  0
 11 12  1  0
  3  5  2  0
  5  6  1  0
  6  7  2  0
  7  8  1  0
  8  9  2  0
  9  3  1  0
M  END
$$$$
