No_6518-complexes_sdf/6BKW-FPZ/2024-09-17-14-21-01/
     RDKit          3D

 16 16  0  0  0  0  0  0  0  0999 V2000
   -7.7129    4.2099   27.0854 C   0  0  0  0  0  0  0  0  0  0  0  0
   -7.7814    5.1722   27.8972 C   0  0  0  0  0  0  0  0  0  0  0  0
   -8.8998    3.8713   26.3707 C   0  0  0  0  0  0  0  0  0  0  0  0
   -9.9938    4.6774   26.5446 C   0  0  0  0  0  0  0  0  0  0  0  0
   -8.7789    6.1536   27.9256 C   0  0  0  0  0  0  0  0  0  0  0  0
   -9.9428    5.8398   27.2296 C   0  0  0  0  0  0  0  0  0  0  0  0
   -8.9119    2.6447   25.5685 C   0  0  0  0  0  0  0  0  0  0  0  0
   -8.2955    1.5559   26.0609 N   0  0  0  0  0  0  0  0  0  0  0  0
   -8.1666    0.4266   25.3563 C   0  0  0  0  0  0  0  0  0  0  0  0
   -8.6387   -0.6409   25.9520 C   0  0  0  0  0  0  0  0  0  0  0  0
   -8.2313   -0.8817   27.1970 C   0  0  0  0  0  0  0  0  0  0  0  0
   -7.0634   -0.7596   27.6511 C   0  0  0  0  0  0  0  0  0  0  0  0
   -6.6259   -1.4776   28.8187 C   0  0  0  0  0  0  0  0  0  0  0  0
   -5.3446   -1.2254   29.3648 C   0  0  0  0  0  0  0  0  0  0  0  0
   -4.5317   -0.1708   28.7961 C   0  0  0  0  0  0  0  0  0  0  0  0
   -5.0423    0.5824   27.7520 C   0  0  0  0  0  0  0  0  0  0  0  0
  3  7  1  0
  7  8  1  0
  8  9  1  0
  9 10  1  0
 10 11  1  0
 11 12  2  3
 12 13  1  0
 13 14  2  3
 14 15  1  0
 15 16  2  0
  1  2  2  0
  2  5  1  0
  5  6  2  0
  6  4  1  0
  4  3  2  0
  3  1  1  0
M  END
$$$$
