No_644-complexes_sdf/6BKW-FPZ/2024-09-17-14-21-01/
     RDKit          3D

  9  9  0  0  0  0  0  0  0  0999 V2000
   -7.2496    3.8871   27.4508 C   0  0  0  0  0  0  0  0  0  0  0  0
   -7.9379    4.9063   27.8518 C   0  0  0  0  0  0  0  0  0  0  0  0
   -9.3460    4.8223   27.8695 C   0  0  0  0  0  0  0  0  0  0  0  0
   -7.8628    2.6163   27.1065 C   0  0  0  0  0  0  0  0  0  0  0  0
   -7.1773    1.4959   26.7593 C   0  0  0  0  0  0  0  0  0  0  0  0
   -9.2781    2.5892   27.1482 C   0  0  0  0  0  0  0  0  0  0  0  0
  -10.0064    3.6800   27.5696 C   0  0  0  0  0  0  0  0  0  0  0  0
   -7.7060    0.4879   26.0129 C   0  0  0  0  0  0  0  0  0  0  0  0
   -9.1781    0.5630   25.9303 C   0  0  0  0  0  0  0  0  0  0  0  0
  4  5  1  0
  5  8  2  3
  8  9  1  0
  1  2  2  0
  2  3  1  0
  3  7  2  0
  7  6  1  0
  6  4  2  0
  4  1  1  0
M  END
$$$$
