No_6707-complexes_sdf/6BKW-FPZ/2024-09-17-14-21-01/
     RDKit          3D

 20 23  0  0  0  0  0  0  0  0999 V2000
   -7.9040    3.9820   27.1177 C   0  0  0  0  0  0  0  0  0  0  0  0
   -7.8663    4.8694   27.9238 C   0  0  0  0  0  0  0  0  0  0  0  0
   -7.4698    2.6989   27.4277 C   0  0  0  0  0  0  0  0  0  0  0  0
   -7.9683    1.5964   26.8266 C   0  0  0  0  0  0  0  0  0  0  0  0
   -7.5289    0.3101   27.1202 C   0  0  0  0  0  0  0  0  0  0  0  0
   -8.3245   -0.7895   26.7699 C   0  0  0  0  0  0  0  0  0  0  0  0
   -8.6045    6.0684   27.7548 C   0  0  0  0  0  0  0  0  0  0  0  0
   -9.3997   -0.5474   25.8960 C   0  0  0  0  0  0  0  0  0  0  0  0
   -9.7656    0.7058   25.5279 C   0  0  0  0  0  0  0  0  0  0  0  0
   -9.0247    1.8010   26.0175 C   0  0  0  0  0  0  0  0  0  0  0  0
   -8.7914    6.5781   26.5450 C   0  0  0  0  0  0  0  0  0  0  0  0
   -8.8358    4.3477   26.0529 C   0  0  0  0  0  0  0  0  0  0  0  0
   -9.2194    5.5872   25.7514 C   0  0  0  0  0  0  0  0  0  0  0  0
   -9.3890    3.1595   25.3724 N   0  0  0  0  0  0  0  0  0  0  0  0
  -10.2705    3.2458   24.3487 C   0  0  0  0  0  0  0  0  0  0  0  0
  -11.3705    3.9756   24.6352 C   0  0  0  0  0  0  0  0  0  0  0  0
  -12.3597    4.0995   23.6594 C   0  0  0  0  0  0  0  0  0  0  0  0
  -12.0559    3.8058   22.3254 C   0  0  0  0  0  0  0  0  0  0  0  0
  -10.8093    3.0737   22.1309 C   0  0  0  0  0  0  0  0  0  0  0  0
   -9.9187    2.8253   23.1538 C   0  0  0  0  0  0  0  0  0  0  0  0
  1  3  1  0
  3  4  1  0
 10 14  1  0
 12 14  1  0
 14 15  1  0
 15 16  2  0
 16 17  1  0
 17 18  2  0
 18 19  1  0
 19 20  2  0
 20 15  1  0
  4  5  2  0
  5  6  1  0
  6  8  2  0
  8  9  1  0
  9 10  2  0
 10  4  1  0
  1  2  2  0
  2  7  1  0
  7 11  2  0
 11 13  1  0
 13 12  2  0
 12  1  1  0
M  END
$$$$
