No_6050-complexes_sdf/6BKW-FPZ/2024-09-17-14-21-01/
     RDKit          3D

 28 32  0  0  0  0  0  0  0  0999 V2000
   -7.2496    3.8871   27.4508 C   0  0  0  0  0  0  0  0  0  0  0  0
   -7.9379    4.9063   27.8518 C   0  0  0  0  0  0  0  0  0  0  0  0
   -9.3376    4.8647   27.7795 C   0  0  0  0  0  0  0  0  0  0  0  0
   -7.8544    2.6294   27.0414 C   0  0  0  0  0  0  0  0  0  0  0  0
   -9.2852    2.6570   27.0666 C   0  0  0  0  0  0  0  0  0  0  0  0
  -10.0126    3.7528   27.4890 C   0  0  0  0  0  0  0  0  0  0  0  0
  -11.4946    3.6924   27.5201 C   0  0  0  0  0  0  0  0  0  0  0  0
  -12.0181    2.6419   28.0792 C   0  0  0  0  0  0  0  0  0  0  0  0
  -11.1682    1.5746   28.6283 C   0  0  0  0  0  0  0  0  0  0  0  0
   -9.9209    1.3590   27.7556 C   0  0  0  0  0  0  0  0  0  0  0  0
   -7.3015    6.0683   28.0121 F   0  0  0  0  0  0  0  0  0  0  0  0
  -13.4425    2.5356   28.4597 C   0  0  1  0  0  0  0  0  0  0  0  0
  -14.0873    3.6442   28.5009 C   0  0  0  0  0  0  0  0  0  0  0  0
  -14.1031    1.4650   27.6116 C   0  0  2  0  0  0  0  0  0  0  0  0
  -13.5721    1.9821   29.9934 C   0  0  0  0  0  0  0  0  0  0  0  0
  -14.3554    0.2979   27.8079 C   0  0  0  0  0  0  0  0  0  0  0  0
  -14.3998   -0.0442   29.2891 C   0  0  0  0  0  0  0  0  0  0  0  0
  -13.9495    0.7320   30.2844 C   0  0  0  0  0  0  0  0  0  0  0  0
  -13.8969    4.6535   29.4681 C   0  0  0  0  0  0  0  0  0  0  0  0
  -14.8872    4.0855   27.3720 C   0  0  0  0  0  0  0  0  0  0  0  0
  -15.6110    5.3106   27.3177 C   0  0  0  0  0  0  0  0  0  0  0  0
  -14.7000    5.8908   29.5101 C   0  0  0  0  0  0  0  0  0  0  0  0
  -15.4397    6.2480   28.3965 C   0  0  0  0  0  0  0  0  0  0  0  0
  -14.2947    1.9440   26.2052 C   0  0  0  0  0  0  0  0  0  0  0  0
  -15.0549    3.2433   26.2315 C   0  0  2  0  0  0  0  0  0  0  0  0
  -15.8042    3.4945   25.0820 C   0  0  0  0  0  0  0  0  0  0  0  0
  -16.9092    3.1098   24.8855 C   0  0  0  0  0  0  0  0  0  0  0  0
  -17.6998    3.4227   23.6933 C   0  0  0  0  0  0  0  0  0  0  0  0
  2 11  1  0
 12  8  1  6
 12 13  1  0
 12 14  1  0
 12 15  1  0
 16 17  1  0
 14 24  1  6
 20 25  1  0
 25 26  1  0
 26 27  2  3
 27 28  1  0
 14 16  1  0
 17 18  1  0
 18 15  1  0
 25 24  1  6
  1  2  2  0
  2  3  1  0
  3  6  2  0
  5  4  2  0
  4  1  1  0
 13 19  2  0
 19 22  1  0
 22 23  2  0
 23 21  1  0
 21 20  2  0
 20 13  1  0
  5  6  1  0
  6  7  1  0
  7  8  2  0
  8  9  1  0
  9 10  2  0
 10  5  1  0
M  END
$$$$
