No_6366-complexes_sdf/6BKW-FPZ/2024-09-17-14-21-01/
     RDKit          3D

 19 20  0  0  0  0  0  0  0  0999 V2000
   -7.9040    3.9820   27.1177 C   0  0  0  0  0  0  0  0  0  0  0  0
   -9.0711    4.3164   27.0630 C   0  0  0  0  0  0  0  0  0  0  0  0
  -10.0395    3.8218   27.1938 C   0  0  0  0  0  0  0  0  0  0  0  0
   -7.6424    2.5858   27.3610 C   0  0  0  0  0  0  0  0  0  0  0  0
   -8.7741    1.7889   27.4566 C   0  0  0  0  0  0  0  0  0  0  0  0
  -10.0155    2.3581   27.4300 C   0  0  0  0  0  0  0  0  0  0  0  0
   -9.1463    5.9504   26.8742 C   0  0  0  0  0  0  0  0  0  0  0  0
   -8.6590    6.5068   25.6590 C   0  0  0  0  0  0  0  0  0  0  0  0
   -6.3059    1.9901   27.3480 C   0  0  0  0  0  0  0  0  0  0  0  0
   -6.0703    0.6324   27.2683 C   0  0  0  0  0  0  0  0  0  0  0  0
   -7.2653   -0.1281   27.1823 C   0  0  0  0  0  0  0  0  0  0  0  0
   -8.5335    0.3463   27.3927 C   0  0  0  0  0  0  0  0  0  0  0  0
   -4.7658    0.1239   27.3000 C   0  0  0  0  0  0  0  0  0  0  0  0
   -4.4475   -0.5925   28.2769 O   0  0  0  0  0  0  0  0  0  0  0  0
   -3.8833    0.4299   26.4160 O   0  0  0  0  0  0  0  0  0  0  0  0
  -11.2738    1.5754   27.6724 C   0  0  0  0  0  0  0  0  0  0  0  0
  -11.2168    0.4173   27.7678 F   0  0  0  0  0  0  0  0  0  0  0  0
  -12.3249    2.1969   27.7839 F   0  0  0  0  0  0  0  0  0  0  0  0
   -9.4285    6.8159   27.9096 C   0  0  0  0  0  0  0  0  0  0  0  0
  2  7  1  0
  7  8  1  0
 10 13  1  0
 13 14  2  0
 13 15  1  0
  6 16  1  0
 16 17  1  0
 16 18  1  0
  7 19  1  0
  5 12  2  0
 12 11  1  0
 11 10  2  0
 10  9  1  0
  9  4  2  0
  1  2  2  0
  2  3  1  0
  3  6  2  0
  6  5  1  0
  5  4  1  0
  4  1  1  0
M  END
$$$$
