No_6641-complexes_sdf/6BKW-FPZ/2024-09-17-14-21-01/
     RDKit          3D

 13 14  0  0  0  0  0  0  0  0999 V2000
   -7.7129    4.2099   27.0854 C   0  0  0  0  0  0  0  0  0  0  0  0
   -7.7814    5.1722   27.8972 C   0  0  0  0  0  0  0  0  0  0  0  0
   -8.8998    3.8713   26.3707 C   0  0  0  0  0  0  0  0  0  0  0  0
   -9.9938    4.6774   26.5446 C   0  0  0  0  0  0  0  0  0  0  0  0
   -8.7789    6.1536   27.9256 C   0  0  0  0  0  0  0  0  0  0  0  0
   -9.9428    5.8398   27.2296 C   0  0  0  0  0  0  0  0  0  0  0  0
   -8.9119    2.6447   25.5685 C   0  0  0  0  0  0  0  0  0  0  0  0
   -9.7335    1.6985   26.0442 C   0  0  0  0  0  0  0  0  0  0  0  0
  -10.6205    1.6022   26.6867 C   0  0  0  0  0  0  0  0  0  0  0  0
  -11.3073    0.3436   27.1897 C   0  0  0  0  0  0  0  0  0  0  0  0
  -10.7534   -0.7822   26.6755 C   0  0  0  0  0  0  0  0  0  0  0  0
   -9.2787    0.2205   25.6499 C   0  0  0  0  0  0  0  0  0  0  0  0
   -9.8117   -0.8570   25.9659 C   0  0  0  0  0  0  0  0  0  0  0  0
  3  7  1  0
  7  8  1  0
  1  2  2  0
  2  5  1  0
  5  6  2  0
  6  4  1  0
  4  3  2  0
  3  1  1  0
  8  9  2  0
  9 10  1  0
 10 11  2  0
 11 13  1  0
 13 12  2  0
 12  8  1  0
M  END
$$$$
