No_6744-complexes_sdf/6BKW-FPZ/2024-09-17-14-21-01/
     RDKit          3D

 31 35  0  0  0  0  0  0  0  0999 V2000
   -7.9040    3.9820   27.1177 C   0  0  0  0  0  0  0  0  0  0  0  0
   -7.8663    4.8694   27.9238 C   0  0  0  0  0  0  0  0  0  0  0  0
   -7.4698    2.6989   27.4277 C   0  0  0  0  0  0  0  0  0  0  0  0
   -7.9683    1.5964   26.8266 C   0  0  1  0  0  0  0  0  0  0  0  0
   -8.9447    1.7923   25.8533 C   0  0  0  0  0  0  0  0  0  0  0  0
   -9.4405    2.9988   25.5757 C   0  0  2  0  0  0  0  0  0  0  0  0
  -10.4397    3.2630   24.6146 C   0  0  1  0  0  0  0  0  0  0  0  0
   -8.9100    4.1245   26.1959 C   0  0  0  0  0  0  0  0  0  0  0  0
   -8.1498    6.2592   27.6587 N   0  0  0  0  0  0  0  0  0  0  0  0
   -8.6660    6.6606   26.6341 C   0  0  0  0  0  0  0  0  0  0  0  0
   -9.3522    5.4847   25.8494 C   0  0  0  0  0  0  0  0  0  0  0  0
  -10.1099    3.0799   23.2506 C   0  0  0  0  0  0  0  0  0  0  0  0
  -11.7526    3.5797   24.9655 C   0  0  1  0  0  0  0  0  0  0  0  0
  -10.9431    3.4985   22.1997 C   0  0  0  0  0  0  0  0  0  0  0  0
  -12.1498    3.6685   26.3507 C   0  0  0  0  0  0  0  0  0  0  0  0
  -12.7287    3.9176   24.0036 C   0  0  0  0  0  0  0  0  0  0  0  0
  -12.3491    3.7713   22.5794 C   0  0  0  0  0  0  0  0  0  0  0  0
  -12.8061    2.6098   26.9810 C   0  0  0  0  0  0  0  0  0  0  0  0
  -12.7991    2.5540   28.2983 C   0  0  0  0  0  0  0  0  0  0  0  0
  -12.2910    3.5992   29.1108 C   0  0  0  0  0  0  0  0  0  0  0  0
  -11.6194    4.6718   28.4744 C   0  0  0  0  0  0  0  0  0  0  0  0
  -11.5405    4.6812   27.1630 C   0  0  0  0  0  0  0  0  0  0  0  0
   -7.3759    0.2342   27.0484 C   0  0  0  0  0  0  0  0  0  0  0  0
   -6.0263    0.1516   27.4571 C   0  0  0  0  0  0  0  0  0  0  0  0
   -5.2113    0.9279   27.3729 C   0  0  0  0  0  0  0  0  0  0  0  0
   -3.7989    0.7641   27.9865 C   0  0  0  0  0  0  0  0  0  0  0  0
   -3.5840   -0.3874   28.7020 C   0  0  0  0  0  0  0  0  0  0  0  0
   -4.6022   -1.3093   28.8306 C   0  0  0  0  0  0  0  0  0  0  0  0
   -5.8408   -1.0784   28.3003 C   0  0  0  0  0  0  0  0  0  0  0  0
  -13.9095    4.2800   24.2576 O   0  0  0  0  0  0  0  0  0  0  0  0
   -8.1575   -0.7408   26.7741 O   0  0  0  0  0  0  0  0  0  0  0  0
  1  3  1  0
  3  4  1  0
  4  5  1  0
  6  5  1  6
  6  7  1  0
  6  8  1  0
  7 12  1  6
  7 13  1  0
 13 15  1  1
 13 16  1  0
 14 17  1  0
 16 17  1  0
  4 23  1  6
 23 24  1  0
 16 30  2  0
 23 31  2  0
 12 14  1  0
 24 25  2  0
 25 26  1  0
 26 27  2  0
 27 28  1  0
 28 29  2  0
 29 24  1  0
 15 18  2  0
 18 19  1  0
 19 20  2  0
 20 21  1  0
 21 22  2  0
 22 15  1  0
  1  2  2  0
  2  9  1  0
  9 10  2  0
 10 11  1  0
 11  8  2  0
  8  1  1  0
M  END
$$$$
