No_6586-complexes_sdf/6BKW-FPZ/2024-09-17-14-21-01/
     RDKit          3D

 40 43  0  0  0  0  0  0  0  0999 V2000
   -7.2496    3.8871   27.4508 C   0  0  0  0  0  0  0  0  0  0  0  0
   -7.9379    4.9063   27.8518 C   0  0  0  0  0  0  0  0  0  0  0  0
   -7.4895    6.2027   27.7481 C   0  0  0  0  0  0  0  0  0  0  0  0
   -7.4700    2.5429   27.5231 C   0  0  0  0  0  0  0  0  0  0  0  0
   -8.8176    2.1756   27.8084 C   0  0  0  0  0  0  0  0  0  0  0  0
   -9.7372    3.2213   28.0689 C   0  0  0  0  0  0  0  0  0  0  0  0
   -9.3941    4.5525   28.2470 C   0  0  0  0  0  0  0  0  0  0  0  0
   -6.5833    1.5104   27.0970 C   0  0  0  0  0  0  0  0  0  0  0  0
   -5.3661    1.8880   27.2577 F   0  0  0  0  0  0  0  0  0  0  0  0
   -6.7549    0.3919   27.9675 F   0  0  0  0  0  0  0  0  0  0  0  0
   -6.8187    1.0307   25.9026 F   0  0  0  0  0  0  0  0  0  0  0  0
   -8.5246    7.2485   27.6306 C   0  0  0  0  0  0  0  0  0  0  0  0
   -8.6307    7.5683   26.1421 C   0  0  0  0  0  0  0  0  0  0  0  0
  -11.1305    2.8202   28.4764 C   0  0  0  0  0  0  0  0  0  0  0  0
  -11.5433    1.6215   28.5492 N   0  0  0  0  0  0  0  0  0  0  0  0
  -11.1051    0.6468   28.0087 C   0  0  0  0  0  0  0  0  0  0  0  0
  -12.9124    1.4360   29.0928 C   0  0  0  0  0  0  0  0  0  0  0  0
  -11.5405   -0.7162   28.3181 C   0  0  0  0  0  0  0  0  0  0  0  0
  -13.3548    0.1726   29.4153 C   0  0  0  0  0  0  0  0  0  0  0  0
  -12.6801   -0.8852   28.9323 C   0  0  0  0  0  0  0  0  0  0  0  0
  -11.9141    3.8849   28.4791 O   0  0  0  0  0  0  0  0  0  0  0  0
  -13.2146   -2.2635   29.1565 C   0  0  0  0  0  0  0  0  0  0  0  0
  -14.1859   -2.5730   29.7021 C   0  0  0  0  0  0  0  0  0  0  0  0
  -14.6742   -3.9439   29.8540 C   0  0  0  0  0  0  0  0  0  0  0  0
  -13.8919   -4.9046   29.2562 C   0  0  0  0  0  0  0  0  0  0  0  0
  -14.3409   -6.2111   29.3919 C   0  0  0  0  0  0  0  0  0  0  0  0
  -12.4289   -3.3989   28.5970 C   0  0  0  0  0  0  0  0  0  0  0  0
  -12.8079   -4.6226   28.6841 C   0  0  0  0  0  0  0  0  0  0  0  0
  -14.3303   -7.0911   28.7020 O   0  0  0  0  0  0  0  0  0  0  0  0
  -14.9706   -6.5519   30.6265 O   0  0  0  0  0  0  0  0  0  0  0  0
   -8.3992    6.4056   25.2877 C   0  0  0  0  0  0  0  0  0  0  0  0
   -9.7769    5.6805   25.2314 C   0  0  0  0  0  0  0  0  0  0  0  0
   -9.8567    4.5142   24.4517 C   0  0  0  0  0  0  0  0  0  0  0  0
  -11.0436    3.7858   24.4450 C   0  0  0  0  0  0  0  0  0  0  0  0
  -11.2030    2.6097   23.7125 C   0  0  0  0  0  0  0  0  0  0  0  0
  -10.0691    2.1613   23.0676 C   0  0  0  0  0  0  0  0  0  0  0  0
  -10.1992    0.9666   22.3147 C   0  0  0  0  0  0  0  0  0  0  0  0
  -11.3368    0.3069   22.2176 C   0  0  0  0  0  0  0  0  0  0  0  0
  -12.4503    0.7562   22.8806 C   0  0  0  0  0  0  0  0  0  0  0  0
  -12.3696    1.8739   23.6457 C   0  0  0  0  0  0  0  0  0  0  0  0
  2  3  1  0
  4  8  1  0
  8  9  1  0
  8 10  1  0
  8 11  1  0
  3 12  1  0
 12 13  1  0
  6 14  1  0
 14 15  1  0
 15 16  1  0
 15 17  1  0
 18 20  1  0
 19 20  1  0
 14 21  2  0
 20 22  1  0
 25 26  1  0
 26 29  1  0
 26 30  2  0
 13 31  1  0
 31 32  1  0
 32 33  1  0
 33 34  2  3
 34 35  1  0
 16 18  1  0
 19 17  1  0
 22 23  2  0
 23 24  1  0
 24 25  2  0
 25 28  1  0
 28 27  2  0
 27 22  1  0
 35 36  2  0
 36 37  1  0
 37 38  2  0
 38 39  1  0
 39 40  2  0
 40 35  1  0
  1  2  2  0
  2  7  1  0
  7  6  2  0
  6  5  1  0
  5  4  2  0
  4  1  1  0
M  END
$$$$
