No_673-complexes_sdf/6BKW-FPZ/2024-09-17-14-21-01/
     RDKit          3D

 13 14  0  0  0  0  0  0  0  0999 V2000
   -7.9040    3.9820   27.1177 C   0  0  0  0  0  0  0  0  0  0  0  0
   -7.8663    4.8694   27.9238 C   0  0  0  0  0  0  0  0  0  0  0  0
   -9.0501    3.8017   26.2617 C   0  0  0  0  0  0  0  0  0  0  0  0
  -10.0189    4.7608   26.3707 C   0  0  0  0  0  0  0  0  0  0  0  0
   -8.6973    5.9722   27.8968 C   0  0  0  0  0  0  0  0  0  0  0  0
   -9.8216    5.8946   27.1241 C   0  0  0  0  0  0  0  0  0  0  0  0
   -9.1445    2.6271   25.4265 C   0  0  0  0  0  0  0  0  0  0  0  0
   -8.6427    1.4143   25.8470 C   0  0  0  0  0  0  0  0  0  0  0  0
   -8.5075    0.3553   24.9985 C   0  0  0  0  0  0  0  0  0  0  0  0
   -9.0684    0.5137   23.7028 C   0  0  0  0  0  0  0  0  0  0  0  0
   -9.6470    1.7061   23.2700 C   0  0  0  0  0  0  0  0  0  0  0  0
   -9.5934    2.7879   24.1219 C   0  0  0  0  0  0  0  0  0  0  0  0
  -10.0906    1.8188   22.0401 F   0  0  0  0  0  0  0  0  0  0  0  0
  3  7  1  0
 11 13  1  0
  1  2  2  0
  2  5  1  0
  5  6  2  0
  6  4  1  0
  4  3  2  0
  3  1  1  0
  7  8  2  0
  8  9  1  0
  9 10  2  0
 10 11  1  0
 11 12  2  0
 12  7  1  0
M  END
$$$$
