No_623-complexes_sdf/6BKW-FPZ/2024-09-17-14-21-01/
     RDKit          3D

 30 34  0  0  0  0  0  0  0  0999 V2000
   -7.9040    3.9820   27.1177 C   0  0  0  0  0  0  0  0  0  0  0  0
   -7.8663    4.8694   27.9238 C   0  0  0  0  0  0  0  0  0  0  0  0
   -7.4547    2.7080   27.4594 C   0  0  0  0  0  0  0  0  0  0  0  0
   -7.9337    1.5946   26.8372 C   0  0  0  0  0  0  0  0  0  0  0  0
   -8.9032    1.7881   25.8510 C   0  0  0  0  0  0  0  0  0  0  0  0
   -9.3787    2.9871   25.5530 C   0  0  0  0  0  0  0  0  0  0  0  0
   -8.9781    4.0300   26.2200 C   0  0  0  0  0  0  0  0  0  0  0  0
   -8.2132    6.2312   27.6173 N   0  0  0  0  0  0  0  0  0  0  0  0
   -9.1014    6.5119   26.6241 C   0  0  0  0  0  0  0  0  0  0  0  0
   -9.5143    5.3947   25.8857 C   0  0  0  0  0  0  0  0  0  0  0  0
   -7.2936    0.4681   27.2169 F   0  0  0  0  0  0  0  0  0  0  0  0
  -10.3477    3.0399   24.4167 C   0  0  0  0  0  0  0  0  0  0  0  0
  -11.4459    3.3659   24.4666 N   0  0  0  0  0  0  0  0  0  0  0  0
  -12.2292    3.2121   25.5806 C   0  0  0  0  0  0  0  0  0  0  0  0
  -13.4835    3.8541   25.6610 C   0  0  0  0  0  0  0  0  0  0  0  0
  -12.1871    3.8780   23.2768 C   0  0  0  0  0  0  0  0  0  0  0  0
  -13.4186    4.5061   23.3535 C   0  0  0  0  0  0  0  0  0  0  0  0
  -14.0781    4.4811   24.5551 C   0  0  0  0  0  0  0  0  0  0  0  0
   -9.8092    2.5272   23.3017 O   0  0  0  0  0  0  0  0  0  0  0  0
  -15.3913    5.1475   24.6347 C   0  0  0  0  0  0  0  0  0  0  0  0
  -16.4234    4.5328   24.9369 C   0  0  0  0  0  0  0  0  0  0  0  0
  -16.3148    3.1667   25.3136 C   0  0  0  0  0  0  0  0  0  0  0  0
  -17.5539    2.5068   25.6975 C   0  0  0  0  0  0  0  0  0  0  0  0
  -18.7182    3.2545   25.6144 C   0  0  0  0  0  0  0  0  0  0  0  0
  -18.8291    4.5258   25.2594 C   0  0  0  0  0  0  0  0  0  0  0  0
  -17.6850    5.2895   24.9407 C   0  0  0  0  0  0  0  0  0  0  0  0
  -20.1456    2.3380   26.0449 Cl  0  0  0  0  0  0  0  0  0  0  0  0
  -15.4298    6.1249   23.4051 C   0  0  0  0  0  0  0  0  0  0  0  0
  -13.8377    5.2881   22.3866 N   0  0  0  0  0  0  0  0  0  0  0  0
  -14.7984    6.1407   22.3871 C   0  0  0  0  0  0  0  0  0  0  0  0
  4 11  1  0
  6 12  1  0
 12 13  1  0
 13 14  1  0
 13 16  1  0
 15 18  1  0
 12 19  2  0
 24 27  1  0
 21 20  1  0
 14 15  1  0
 17 16  1  0
  1  2  2  0
  2  8  1  0
  8  9  2  0
  9 10  1  0
 10  7  2  0
  1  3  1  0
  3  4  2  0
  4  5  1  0
  5  6  2  0
  6  7  1  0
  7  1  1  0
 17 18  2  0
 18 20  1  0
 20 28  2  0
 28 30  1  0
 30 29  2  0
 29 17  1  0
 21 22  2  0
 22 23  1  0
 23 24  2  0
 24 25  1  0
 25 26  2  0
 26 21  1  0
M  END
$$$$
