No_6275-complexes_sdf/6BKW-FPZ/2024-09-17-14-21-01/
     RDKit          3D

 32 35  0  0  0  0  0  0  0  0999 V2000
   -7.9040    3.9820   27.1177 C   0  0  0  0  0  0  0  0  0  0  0  0
   -7.8663    4.8694   27.9238 C   0  0  0  0  0  0  0  0  0  0  0  0
   -9.0491    3.8523   26.2542 C   0  0  0  0  0  0  0  0  0  0  0  0
   -8.7661    5.9491   27.9690 C   0  0  0  0  0  0  0  0  0  0  0  0
   -9.9295    4.8502   26.2323 C   0  0  0  0  0  0  0  0  0  0  0  0
   -9.8077    5.9288   27.0933 C   0  0  0  0  0  0  0  0  0  0  0  0
   -9.0726    2.7074   25.3087 C   0  0  0  0  0  0  0  0  0  0  0  0
   -9.9788    1.8124   25.6868 C   0  0  0  0  0  0  0  0  0  0  0  0
  -10.7759    1.6495   26.4594 C   0  0  0  0  0  0  0  0  0  0  0  0
  -11.5811    0.4141   26.7411 C   0  0  0  0  0  0  0  0  0  0  0  0
  -11.3948   -0.5569   25.8282 C   0  0  0  0  0  0  0  0  0  0  0  0
   -9.8672    0.5644   24.7089 C   0  0  0  0  0  0  0  0  0  0  0  0
  -10.6086   -0.5100   24.8480 C   0  0  0  0  0  0  0  0  0  0  0  0
   -8.8612    0.4441   23.6033 C   0  0  0  0  0  0  0  0  0  0  0  0
   -9.2886    0.8416   22.3070 C   0  0  0  0  0  0  0  0  0  0  0  0
   -7.5757    0.0031   23.8555 C   0  0  0  0  0  0  0  0  0  0  0  0
   -6.7606   -0.4188   22.7671 C   0  0  0  0  0  0  0  0  0  0  0  0
   -6.7074   -1.7301   22.6269 C   0  0  0  0  0  0  0  0  0  0  0  0
   -7.7397   -2.4749   22.4785 C   0  0  0  0  0  0  0  0  0  0  0  0
   -7.6093   -3.9170   22.1323 C   0  0  0  0  0  0  0  0  0  0  0  0
   -6.3161   -4.4015   21.9146 C   0  0  0  0  0  0  0  0  0  0  0  0
   -5.2163   -3.6557   22.0421 C   0  0  0  0  0  0  0  0  0  0  0  0
   -5.3068   -2.2852   22.3588 C   0  0  0  0  0  0  0  0  0  0  0  0
   -7.1939   -0.2338   25.0982 O   0  0  0  0  0  0  0  0  0  0  0  0
   -6.9711    2.9320   27.1858 N   0  0  0  0  0  0  0  0  0  0  0  0
   -7.1829    1.6314   27.6074 C   0  0  0  0  0  0  0  0  0  0  0  0
   -6.0317    0.8046   27.8271 C   0  0  0  0  0  0  0  0  0  0  0  0
   -4.8598    1.4919   28.0638 C   0  0  0  0  0  0  0  0  0  0  0  0
   -3.7184    0.6489   28.3157 C   0  0  0  0  0  0  0  0  0  0  0  0
   -3.7861   -0.7141   28.3639 C   0  0  0  0  0  0  0  0  0  0  0  0
   -5.0121   -1.3358   28.0726 C   0  0  0  0  0  0  0  0  0  0  0  0
   -6.1475   -0.5754   27.8415 C   0  0  0  0  0  0  0  0  0  0  0  0
  3  7  1  0
  7  8  1  0
 12 14  1  0
 14 15  2  0
 14 16  1  0
 16 17  1  0
 17 18  1  0
 16 24  2  0
  1 25  1  0
 25 26  1  0
 26 27  1  0
 18 19  2  0
 19 20  1  0
 20 21  2  0
 21 22  1  0
 22 23  2  0
 23 18  1  0
 27 28  2  0
 28 29  1  0
 29 30  2  0
 30 31  1  0
 31 32  2  0
 32 27  1  0
  1  2  2  0
  2  4  1  0
  4  6  2  0
  6  5  1  0
  5  3  2  0
  3  1  1  0
  8  9  2  0
  9 10  1  0
 10 11  2  0
 11 13  1  0
 13 12  2  0
 12  8  1  0
M  END
$$$$
