No_6178-complexes_sdf/6BKW-FPZ/2024-09-17-14-21-01/
     RDKit          3D

 24 26  0  0  0  0  0  0  0  0999 V2000
   -7.2496    3.8871   27.4508 C   0  0  0  0  0  0  0  0  0  0  0  0
   -7.9379    4.9063   27.8518 C   0  0  0  0  0  0  0  0  0  0  0  0
   -8.7729    5.5444   27.0168 C   0  0  0  0  0  0  0  0  0  0  0  0
   -9.3298    4.9812   25.8706 C   0  0  0  0  0  0  0  0  0  0  0  0
   -7.9120    3.0185   26.4104 C   0  0  0  0  0  0  0  0  0  0  0  0
   -7.5125    1.6834   26.3337 C   0  0  0  0  0  0  0  0  0  0  0  0
   -8.8909    3.6286   25.6692 C   0  0  0  0  0  0  0  0  0  0  0  0
   -6.7722    1.0882   27.4534 C   0  0  0  0  0  0  0  0  0  0  0  0
   -5.8572    0.2388   27.2005 C   0  0  0  0  0  0  0  0  0  0  0  0
   -4.8275    0.2929   28.1827 C   0  0  0  0  0  0  0  0  0  0  0  0
   -3.9149   -0.8121   28.3829 C   0  0  0  0  0  0  0  0  0  0  0  0
   -3.8822   -1.7605   27.4020 C   0  0  0  0  0  0  0  0  0  0  0  0
   -4.8373   -1.7221   26.4001 C   0  0  0  0  0  0  0  0  0  0  0  0
   -5.8421   -0.7796   26.3650 C   0  0  0  0  0  0  0  0  0  0  0  0
   -9.4573    2.8744   24.5558 C   0  0  0  0  0  0  0  0  0  0  0  0
   -9.7708    1.5993   24.6539 C   0  0  0  0  0  0  0  0  0  0  0  0
   -8.3323    0.8073   25.4731 C   0  0  0  0  0  0  0  0  0  0  0  0
   -7.3786    5.6836   28.8326 F   0  0  0  0  0  0  0  0  0  0  0  0
   -2.9247   -0.6986   29.4810 C   0  0  1  0  0  0  0  0  0  0  0  0
   -3.4344   -0.2010   30.7184 C   0  0  0  0  0  0  0  0  0  0  0  0
   -1.5917   -1.1170   29.3162 C   0  0  0  0  0  0  0  0  0  0  0  0
   -2.5320   -0.1066   31.6375 F   0  0  0  0  0  0  0  0  0  0  0  0
   -4.5538    0.1477   30.9644 F   0  0  0  0  0  0  0  0  0  0  0  0
   -9.1738    6.8894   27.2821 O   0  0  0  0  0  0  0  0  0  0  0  0
  8  9  1  0
  2 18  1  0
 11 19  1  0
 19 20  1  0
 19 21  1  1
 20 22  1  0
 20 23  1  0
  3 24  1  0
  8  6  1  0
  9 10  2  0
 10 11  1  0
 11 12  2  0
 12 13  1  0
 13 14  2  0
 14  9  1  0
  1  2  2  0
  2  3  1  0
  3  4  2  0
  4  7  1  0
  5  1  1  0
  5  6  2  0
  6 17  1  0
 17 16  2  0
 16 15  1  0
 15  7  2  0
  7  5  1  0
M  END
$$$$
