No_6951-complexes_sdf/6BKW-FPZ/2024-09-17-14-21-01/
     RDKit          3D

 12 13  0  0  0  0  0  0  0  0999 V2000
   -7.9040    3.9820   27.1177 C   0  0  0  0  0  0  0  0  0  0  0  0
   -7.8663    4.8694   27.9238 C   0  0  0  0  0  0  0  0  0  0  0  0
   -7.4698    2.6989   27.4277 C   0  0  0  0  0  0  0  0  0  0  0  0
   -6.1691    2.6024   27.7920 C   0  0  0  0  0  0  0  0  0  0  0  0
   -8.5251    6.1376   27.6596 C   0  0  0  0  0  0  0  0  0  0  0  0
   -8.9050    4.1209   26.0890 C   0  0  0  0  0  0  0  0  0  0  0  0
   -9.5368    5.3333   25.8064 C   0  0  0  0  0  0  0  0  0  0  0  0
   -9.3004    6.4089   26.6607 C   0  0  0  0  0  0  0  0  0  0  0  0
   -5.4865    1.3254   27.9983 C   0  0  0  0  0  0  0  0  0  0  0  0
   -6.2028    0.1582   27.8377 C   0  0  0  0  0  0  0  0  0  0  0  0
   -8.1076    1.4872   27.1217 C   0  0  0  0  0  0  0  0  0  0  0  0
   -7.5298    0.2679   27.3600 C   0  0  0  0  0  0  0  0  0  0  0  0
  1  3  1  0
  1  2  2  0
  2  5  1  0
  5  8  2  0
  8  7  1  0
  7  6  2  0
  6  1  1  0
  3  4  2  0
  4  9  1  0
  9 10  2  0
 10 12  1  0
 12 11  2  0
 11  3  1  0
M  END
$$$$
