No_6903-complexes_sdf/6BKW-FPZ/2024-09-17-14-21-01/
     RDKit          3D

 21 24  0  0  0  0  0  0  0  0999 V2000
   -7.2496    3.8871   27.4508 C   0  0  0  0  0  0  0  0  0  0  0  0
   -7.6161    2.7143   27.1523 C   0  0  0  0  0  0  0  0  0  0  0  0
   -6.9719    1.5838   27.5324 C   0  0  0  0  0  0  0  0  0  0  0  0
   -7.4590    0.2827   27.2615 C   0  0  0  0  0  0  0  0  0  0  0  0
   -8.7521    2.5117   26.3068 C   0  0  0  0  0  0  0  0  0  0  0  0
   -9.2100    1.2391   25.9794 C   0  0  0  0  0  0  0  0  0  0  0  0
   -8.5134    0.1313   26.5112 C   0  0  0  0  0  0  0  0  0  0  0  0
   -8.0469    5.0686   27.1938 C   0  0  2  0  0  0  0  0  0  0  0  0
   -9.1378    5.0394   26.3144 C   0  0  0  0  0  0  0  0  0  0  0  0
   -9.5691    3.6875   25.9223 C   0  0  0  0  0  0  0  0  0  0  0  0
   -7.5885    6.4082   27.6888 C   0  0  0  0  0  0  0  0  0  0  0  0
   -6.7128   -0.8852   27.8531 C   0  0  0  0  0  0  0  0  0  0  0  0
   -5.3914   -0.7483   28.2128 C   0  0  0  0  0  0  0  0  0  0  0  0
   -4.7396   -1.7507   29.0273 C   0  0  0  0  0  0  0  0  0  0  0  0
   -3.4426   -1.3970   29.5046 C   0  0  0  0  0  0  0  0  0  0  0  0
   -2.7955   -0.1915   29.1503 C   0  0  0  0  0  0  0  0  0  0  0  0
   -3.4958    0.7817   28.4510 C   0  0  0  0  0  0  0  0  0  0  0  0
   -4.7566    0.5327   28.0352 C   0  0  0  0  0  0  0  0  0  0  0  0
   -5.5893    1.6255   27.6447 N   0  0  0  0  0  0  0  0  0  0  0  0
  -10.5832    3.6133   25.1153 O   0  0  0  0  0  0  0  0  0  0  0  0
   -8.3083    7.4884   27.2694 N   0  0  0  0  0  0  0  0  0  0  0  0
  1  8  1  0
  5 10  1  0
  9 10  1  0
  8 11  1  6
 10 20  2  0
 11 21  1  0
  2  1  1  0
  8  9  1  0
 13 14  1  0
 14 15  2  0
 15 16  1  0
 16 17  2  0
 17 18  1  0
  4 12  1  0
 12 13  2  0
 13 18  1  0
 18 19  2  0
 19  3  1  0
  2  3  2  0
  3  4  1  0
  4  7  2  0
  7  6  1  0
  6  5  2  0
  5  2  1  0
M  END
$$$$
