No_6462-complexes_sdf/6BKW-FPZ/2024-09-17-14-21-01/
     RDKit          3D

 10 10  0  0  0  0  0  0  0  0999 V2000
   -7.2496    3.8871   27.4508 C   0  0  0  0  0  0  0  0  0  0  0  0
   -8.5096    4.0291   27.2770 C   0  0  0  0  0  0  0  0  0  0  0  0
   -9.2677    5.1714   27.5773 C   0  0  0  0  0  0  0  0  0  0  0  0
   -6.5711    2.6400   27.2842 C   0  0  0  0  0  0  0  0  0  0  0  0
   -7.2939    1.5094   27.0532 C   0  0  0  0  0  0  0  0  0  0  0  0
   -6.6434    0.3282   26.9215 C   0  0  0  0  0  0  0  0  0  0  0  0
   -8.6811    1.6768   26.8702 C   0  0  0  0  0  0  0  0  0  0  0  0
   -9.2395    2.7130   27.0925 C   0  0  0  0  0  0  0  0  0  0  0  0
   -7.0320   -0.8202   27.1463 Cl  0  0  0  0  0  0  0  0  0  0  0  0
   -8.5629    6.4198   27.4971 C   0  0  0  0  0  0  0  0  0  0  0  0
  1  2  1  0
  2  3  2  3
  1  4  1  0
  4  5  1  0
  5  6  1  0
  5  7  1  0
  2  8  1  0
  7  8  1  0
  6  9  1  0
  3 10  1  0
M  END
$$$$
