No_6922-complexes_sdf/6BKW-FPZ/2024-09-17-14-21-01/
     RDKit          3D

 22 23  0  0  0  0  0  0  0  0999 V2000
   -7.2496    3.8871   27.4508 C   0  0  0  0  0  0  0  0  0  0  0  0
   -7.9379    4.9063   27.8518 C   0  0  0  0  0  0  0  0  0  0  0  0
   -9.3460    4.8223   27.8695 C   0  0  0  0  0  0  0  0  0  0  0  0
   -7.8628    2.6163   27.1065 C   0  0  0  0  0  0  0  0  0  0  0  0
   -9.2787    2.5744   27.1970 C   0  0  0  0  0  0  0  0  0  0  0  0
  -10.0108    3.6770   27.6340 C   0  0  0  0  0  0  0  0  0  0  0  0
  -11.4855    3.5731   27.7420 C   0  0  0  0  0  0  0  0  0  0  0  0
  -12.3115    4.3555   27.3965 C   0  0  0  0  0  0  0  0  0  0  0  0
  -13.6950    4.4264   27.6217 C   0  0  0  0  0  0  0  0  0  0  0  0
  -12.0395    2.4852   28.5248 C   0  0  0  0  0  0  0  0  0  0  0  0
  -13.3492    2.3553   28.8058 C   0  0  0  0  0  0  0  0  0  0  0  0
  -14.1844    3.3825   28.3437 C   0  0  0  0  0  0  0  0  0  0  0  0
   -6.9371    1.2921   26.7267 Cl  0  0  0  0  0  0  0  0  0  0  0  0
   -7.3251    6.0912   28.0639 O   0  0  0  0  0  0  0  0  0  0  0  0
  -15.5290    3.2652   28.5338 F   0  0  0  0  0  0  0  0  0  0  0  0
  -13.8957    1.2327   29.6099 C   0  0  0  0  0  0  0  0  0  0  0  0
  -14.7833    0.3949   29.1774 C   0  0  0  0  0  0  0  0  0  0  0  0
  -14.9825    0.0552   28.1081 C   0  0  0  0  0  0  0  0  0  0  0  0
  -14.0001   -0.3681   27.3174 C   0  0  0  0  0  0  0  0  0  0  0  0
  -14.1068   -0.4537   25.9040 C   0  0  0  0  0  0  0  0  0  0  0  0
  -13.0103   -0.7972   25.1037 C   0  0  0  0  0  0  0  0  0  0  0  0
  -13.0749   -0.7200   23.7196 C   0  0  0  0  0  0  0  0  0  0  0  0
  6  7  1  0
  4 13  1  0
  2 14  1  0
 12 15  1  0
 11 16  1  0
 16 17  1  0
 17 18  1  0
 18 19  1  0
 19 20  2  3
 20 21  1  0
 21 22  2  0
  1  2  2  0
  2  3  1  0
  3  6  2  0
  6  5  1  0
  5  4  2  0
  4  1  1  0
  7  8  2  0
  8  9  1  0
  9 12  2  0
 12 11  1  0
 11 10  2  0
 10  7  1  0
M  END
$$$$
