No_6248-complexes_sdf/6BKW-FPZ/2024-09-17-14-21-01/
     RDKit          3D

 24 26  0  0  0  0  0  0  0  0999 V2000
   -7.9040    3.9820   27.1177 C   0  0  0  0  0  0  0  0  0  0  0  0
   -8.2057    2.8231   26.8733 C   0  0  0  0  0  0  0  0  0  0  0  0
   -7.0130    4.3706   28.1140 C   0  0  0  0  0  0  0  0  0  0  0  0
   -7.4093    1.7370   27.3857 C   0  0  0  0  0  0  0  0  0  0  0  0
   -6.1943    2.1490   28.0403 C   0  0  0  0  0  0  0  0  0  0  0  0
   -5.2077    1.1775   28.4320 C   0  0  2  0  0  0  0  0  0  0  0  0
   -5.9737    3.5466   28.3892 C   0  0  0  0  0  0  0  0  0  0  0  0
   -5.5398   -0.1399   28.4190 N   0  0  0  0  0  0  0  0  0  0  0  0
   -4.7168   -1.0432   29.0306 C   0  0  0  0  0  0  0  0  0  0  0  0
   -8.8785    5.2588   26.7993 C   0  0  0  0  0  0  0  0  0  0  0  0
   -9.9226    5.0269   26.0429 N   0  0  0  0  0  0  0  0  0  0  0  0
   -8.5575    6.4217   27.0635 O   0  0  0  0  0  0  0  0  0  0  0  0
   -3.5213   -0.5713   29.4677 C   0  0  0  0  0  0  0  0  0  0  0  0
   -3.9375    1.2098   29.2393 C   0  0  0  0  0  0  0  0  0  0  0  0
  -10.5774    3.7489   25.8702 C   0  0  0  0  0  0  0  0  0  0  0  0
  -10.8528    3.2939   24.5616 C   0  0  0  0  0  0  0  0  0  0  0  0
  -10.7046    4.2144   23.4867 C   0  0  0  0  0  0  0  0  0  0  0  0
  -11.0236    3.9183   22.2112 C   0  0  0  0  0  0  0  0  0  0  0  0
  -11.3221    2.6005   21.8766 C   0  0  0  0  0  0  0  0  0  0  0  0
  -11.3738    1.6293   22.8891 C   0  0  0  0  0  0  0  0  0  0  0  0
  -11.1357    1.9999   24.1794 C   0  0  0  0  0  0  0  0  0  0  0  0
   -2.4153   -0.8824   30.1286 C   0  0  0  0  0  0  0  0  0  0  0  0
   -1.5147   -1.2583   29.3836 O   0  0  0  0  0  0  0  0  0  0  0  0
   -2.2827   -0.6036   31.4070 O   0  0  0  0  0  0  0  0  0  0  0  0
  6  8  1  0
  8  9  1  0
  1 10  1  0
 10 11  1  0
 10 12  2  0
  9 13  2  0
  6 14  1  0
 13 14  1  0
 11 15  1  0
 13 22  1  0
 22 23  2  0
 22 24  1  0
 15 16  1  0
  6  5  1  1
  1  2  2  0
  2  4  1  0
  4  5  2  0
  5  7  1  0
  7  3  2  0
  3  1  1  0
 16 17  2  0
 17 18  1  0
 18 19  2  0
 19 20  1  0
 20 21  2  0
 21 16  1  0
M  END
$$$$
