No_6601-complexes_sdf/6BKW-FPZ/2024-09-17-14-21-01/
     RDKit          3D

 29 31  0  0  0  0  0  0  0  0999 V2000
   -7.2496    3.8871   27.4508 C   0  0  0  0  0  0  0  0  0  0  0  0
   -7.9379    4.9063   27.8518 C   0  0  0  0  0  0  0  0  0  0  0  0
   -9.3460    4.8223   27.8695 C   0  0  0  0  0  0  0  0  0  0  0  0
   -7.8628    2.6163   27.1065 C   0  0  0  0  0  0  0  0  0  0  0  0
   -9.2787    2.5744   27.1970 C   0  0  0  0  0  0  0  0  0  0  0  0
  -10.0108    3.6770   27.6340 C   0  0  0  0  0  0  0  0  0  0  0  0
  -11.4486    3.3729   27.7139 C   0  0  0  0  0  0  0  0  0  0  0  0
  -12.3457    4.0577   27.9549 C   0  0  0  0  0  0  0  0  0  0  0  0
  -13.7388    3.8000   28.1272 C   0  0  0  0  0  0  0  0  0  0  0  0
  -14.0890    2.5168   27.8621 C   0  0  0  0  0  0  0  0  0  0  0  0
  -12.0979    2.0060   27.6137 C   0  0  0  0  0  0  0  0  0  0  0  0
  -13.2497    1.6197   27.7038 C   0  0  0  0  0  0  0  0  0  0  0  0
   -7.0861    1.4826   26.7661 C   0  0  0  0  0  0  0  0  0  0  0  0
   -7.2831    0.5432   27.3648 O   0  0  0  0  0  0  0  0  0  0  0  0
   -7.3721    6.0788   28.1216 F   0  0  0  0  0  0  0  0  0  0  0  0
   -6.0251    1.5911   26.1521 O   0  0  0  0  0  0  0  0  0  0  0  0
   -4.9155    1.1675   26.9223 C   0  0  0  0  0  0  0  0  0  0  0  0
   -5.1087    1.0330   28.2629 C   0  0  2  0  0  0  0  0  0  0  0  0
   -3.7846    0.7733   29.0713 C   0  0  0  0  0  0  0  0  0  0  0  0
   -3.5571   -0.6592   29.3222 C   0  0  0  0  0  0  0  0  0  0  0  0
   -2.6561   -0.8913   30.1801 C   0  0  0  0  0  0  0  0  0  0  0  0
   -1.9606   -2.0744   30.1461 C   0  0  0  0  0  0  0  0  0  0  0  0
   -2.4634   -3.0998   29.3600 C   0  0  0  0  0  0  0  0  0  0  0  0
   -3.4510   -2.8280   28.4741 C   0  0  0  0  0  0  0  0  0  0  0  0
   -3.9753   -1.5263   28.3698 C   0  0  0  0  0  0  0  0  0  0  0  0
   -5.9893   -0.0042   28.5510 O   0  0  0  0  0  0  0  0  0  0  0  0
   -6.0218   -1.2330   28.5589 C   0  0  0  0  0  0  0  0  0  0  0  0
   -3.9864   -1.1046   26.9314 C   0  0  0  0  0  0  0  0  0  0  0  0
   -6.2338   -1.9725   29.8613 C   0  0  0  0  0  0  0  0  0  0  0  0
  6  7  1  0
  4 13  1  0
 13 14  2  0
  2 15  1  0
 13 16  1  0
 16 17  1  0
 18 17  1  6
 18 19  1  0
 19 20  1  0
 18 26  1  0
 26 27  1  0
 25 28  1  0
 27 29  1  0
  7  8  2  0
  8  9  1  0
  9 10  2  0
 10 12  1  0
 12 11  2  0
 11  7  1  0
  1  2  2  0
  2  3  1  0
  3  6  2  0
  6  5  1  0
  5  4  2  0
  4  1  1  0
 20 21  2  0
 21 22  1  0
 22 23  2  0
 23 24  1  0
 24 25  2  0
 25 20  1  0
M  END
$$$$
