No_6658-complexes_sdf/6BKW-FPZ/2024-09-17-14-21-01/
     RDKit          3D

 17 18  0  0  0  0  0  0  0  0999 V2000
   -7.7129    4.2099   27.0854 C   0  0  0  0  0  0  0  0  0  0  0  0
   -7.7814    5.1722   27.8972 C   0  0  0  0  0  0  0  0  0  0  0  0
   -7.3155    2.9699   27.6145 C   0  0  0  0  0  0  0  0  0  0  0  0
   -7.6814    1.8188   26.9581 C   0  0  0  0  0  0  0  0  0  0  0  0
   -8.6377    1.9131   25.9324 C   0  0  0  0  0  0  0  0  0  0  0  0
   -9.1866    3.0673   25.6037 C   0  0  0  0  0  0  0  0  0  0  0  0
   -8.8394    4.1752   26.2513 C   0  0  0  0  0  0  0  0  0  0  0  0
   -8.2486    6.4747   27.5719 N   0  0  0  0  0  0  0  0  0  0  0  0
   -9.1525    6.6854   26.5919 C   0  0  0  0  0  0  0  0  0  0  0  0
   -9.4607    5.4864   25.8772 C   0  0  0  0  0  0  0  0  0  0  0  0
   -7.0245    0.5340   27.2725 C   0  0  0  0  0  0  0  0  0  0  0  0
   -5.7982    0.4635   27.9413 C   0  0  0  0  0  0  0  0  0  0  0  0
   -4.8612    1.5026   27.8948 C   0  0  0  0  0  0  0  0  0  0  0  0
   -3.5711    1.2804   28.5003 C   0  0  0  0  0  0  0  0  0  0  0  0
   -5.3762   -0.7389   28.5629 C   0  0  0  0  0  0  0  0  0  0  0  0
   -6.3270   -1.8118   28.6240 C   0  0  0  0  0  0  0  0  0  0  0  0
   -3.2676    0.1309   29.1754 C   0  0  0  0  0  0  0  0  0  0  0  0
  4 11  1  0
 11 12  1  0
 12 13  2  3
 13 14  1  0
 12 15  1  0
 15 16  3  0
 14 17  2  0
  1  2  2  0
  2  8  1  0
  8  9  2  0
  9 10  1  0
 10  7  2  0
  1  3  1  0
  3  4  2  0
  4  5  1  0
  5  6  2  0
  6  7  1  0
  7  1  1  0
M  END
$$$$
