No_6724-complexes_sdf/6BKW-FPZ/2024-09-17-14-21-01/
     RDKit          3D

 33 37  0  0  0  0  0  0  0  0999 V2000
   -7.9040    3.9820   27.1177 C   0  0  0  0  0  0  0  0  0  0  0  0
   -7.8663    4.8694   27.9238 C   0  0  0  0  0  0  0  0  0  0  0  0
   -7.4698    2.6989   27.4277 C   0  0  0  0  0  0  0  0  0  0  0  0
   -7.9683    1.5964   26.8266 C   0  0  1  0  0  0  0  0  0  0  0  0
   -8.9447    1.7923   25.8533 C   0  0  2  0  0  0  0  0  0  0  0  0
   -9.4405    2.9988   25.5757 C   0  0  1  0  0  0  0  0  0  0  0  0
   -8.9424    4.1117   26.2388 C   0  0  0  0  0  0  0  0  0  0  0  0
   -8.2732    6.2141   27.6484 N   0  0  0  0  0  0  0  0  0  0  0  0
   -9.1540    6.5068   26.6734 C   0  0  0  0  0  0  0  0  0  0  0  0
   -9.5312    5.3927   25.9147 C   0  0  0  0  0  0  0  0  0  0  0  0
   -7.3887    0.2740   27.0971 C   0  0  2  0  0  0  0  0  0  0  0  0
   -8.1780   -0.7293   27.5473 C   0  0  0  0  0  0  0  0  0  0  0  0
   -6.0020    0.0628   26.9575 C   0  0  0  0  0  0  0  0  0  0  0  0
   -5.0790    0.5959   27.6962 C   0  0  0  0  0  0  0  0  0  0  0  0
   -3.6617    0.4327   27.5705 C   0  0  0  0  0  0  0  0  0  0  0  0
   -3.3008   -0.3537   26.4257 C   0  0  0  0  0  0  0  0  0  0  0  0
   -4.2792   -0.9123   25.6088 C   0  0  0  0  0  0  0  0  0  0  0  0
   -5.6090   -0.7086   25.8341 C   0  0  0  0  0  0  0  0  0  0  0  0
  -10.4082    3.0881   24.4636 C   0  0  0  0  0  0  0  0  0  0  0  0
  -11.5431    3.7432   24.6352 C   0  0  0  0  0  0  0  0  0  0  0  0
  -10.0808    2.5098   23.2534 C   0  0  0  0  0  0  0  0  0  0  0  0
  -12.4995    3.7757   23.6298 C   0  0  0  0  0  0  0  0  0  0  0  0
  -10.9567    2.5671   22.2032 C   0  0  0  0  0  0  0  0  0  0  0  0
  -12.1589    3.2246   22.3629 C   0  0  0  0  0  0  0  0  0  0  0  0
   -9.5169   -0.6138   27.7031 C   0  0  0  0  0  0  0  0  0  0  0  0
  -10.3118   -1.5929   28.3318 C   0  0  0  0  0  0  0  0  0  0  0  0
  -11.6764   -1.3834   28.5917 C   0  0  0  0  0  0  0  0  0  0  0  0
  -12.2209   -0.1169   28.2641 C   0  0  0  0  0  0  0  0  0  0  0  0
  -11.4391    0.9025   27.7618 C   0  0  0  0  0  0  0  0  0  0  0  0
  -10.1229    0.6877   27.5613 C   0  0  0  0  0  0  0  0  0  0  0  0
   -9.5128    0.7872   25.3908 O   0  0  0  0  0  0  0  0  0  0  0  0
  -10.0411    1.0219   26.2513 F   0  0  0  0  0  0  0  0  0  0  0  0
   -9.6712    1.5639   28.5945 O   0  0  0  0  0  0  0  0  0  0  0  0
  1  3  1  0
  4  3  1  6
  4  5  1  0
  5  6  1  0
  6  7  1  0
  4 11  1  0
 11 12  1  1
 11 13  1  0
  6 19  1  6
 12 25  1  0
  5 31  1  1
 31 32  1  0
 30 33  1  0
  1  2  2  0
  2  8  1  0
  8  9  2  0
  9 10  1  0
 10  7  2  0
  7  1  1  0
 25 26  2  0
 26 27  1  0
 27 28  2  0
 28 29  1  0
 29 30  2  0
 30 25  1  0
 19 20  2  0
 20 22  1  0
 22 24  2  0
 24 23  1  0
 23 21  2  0
 21 19  1  0
 13 14  2  0
 14 15  1  0
 15 16  2  0
 16 17  1  0
 17 18  2  0
 18 13  1  0
M  END
$$$$
