No_6217-complexes_sdf/6BKW-FPZ/2024-09-17-14-21-01/
     RDKit          3D

 19 21  0  0  0  0  0  0  0  0999 V2000
   -7.9040    3.9820   27.1177 C   0  0  0  0  0  0  0  0  0  0  0  0
   -7.8663    4.8694   27.9238 C   0  0  0  0  0  0  0  0  0  0  0  0
   -9.0501    3.8017   26.2617 C   0  0  0  0  0  0  0  0  0  0  0  0
  -10.0189    4.7608   26.3707 C   0  0  0  0  0  0  0  0  0  0  0  0
   -8.6770    5.9780   27.9222 C   0  0  0  0  0  0  0  0  0  0  0  0
   -9.8040    5.8752   27.0958 C   0  0  0  0  0  0  0  0  0  0  0  0
   -9.1484    2.6214   25.4213 C   0  0  0  0  0  0  0  0  0  0  0  0
  -10.0295    2.6889   24.3385 C   0  0  0  0  0  0  0  0  0  0  0  0
  -10.1062    1.5834   23.4652 C   0  0  0  0  0  0  0  0  0  0  0  0
   -9.2358    0.4643   23.6833 C   0  0  0  0  0  0  0  0  0  0  0  0
   -8.3368    1.4760   25.5423 C   0  0  0  0  0  0  0  0  0  0  0  0
   -8.3717    0.4634   24.7098 C   0  0  0  0  0  0  0  0  0  0  0  0
   -7.5036   -0.7116   24.8941 C   0  0  0  0  0  0  0  0  0  0  0  0
   -7.8342   -1.5411   25.4593 O   0  0  0  0  0  0  0  0  0  0  0  0
   -6.1640   -0.4732   24.6331 O   0  0  0  0  0  0  0  0  0  0  0  0
  -10.9929    1.6713   22.3403 C   0  0  0  0  0  0  0  0  0  0  0  0
  -11.1830    2.6090   21.7118 C   0  0  0  0  0  0  0  0  0  0  0  0
  -10.5604    3.8750   22.1279 C   0  0  0  0  0  0  0  0  0  0  0  0
  -10.1981    3.9595   23.5522 C   0  0  0  0  0  0  0  0  0  0  0  0
  3  7  1  0
 12 13  1  0
 13 14  2  0
 13 15  1  0
  7  8  2  0
  9 10  2  0
 10 12  1  0
 12 11  2  0
 11  7  1  0
  8  9  1  0
  9 16  1  0
 16 17  2  0
 17 18  1  0
 18 19  2  0
 19  8  1  0
  1  2  2  0
  2  5  1  0
  5  6  2  0
  6  4  1  0
  4  3  2  0
  3  1  1  0
M  END
$$$$
