No_6486-complexes_sdf/6BKW-FPZ/2024-09-17-14-21-01/
     RDKit          3D

 23 25  0  0  0  0  0  0  0  0999 V2000
   -7.7129    4.2099   27.0854 C   0  0  0  0  0  0  0  0  0  0  0  0
   -8.2112    3.0637   26.9225 C   0  0  0  0  0  0  0  0  0  0  0  0
   -8.5108    5.3904   26.9436 C   0  0  0  0  0  0  0  0  0  0  0  0
   -7.9752    6.6981   27.2112 C   0  0  0  0  0  0  0  0  0  0  0  0
   -9.5213    2.8208   26.4688 C   0  0  0  0  0  0  0  0  0  0  0  0
  -10.2979    3.9327   26.2378 C   0  0  0  0  0  0  0  0  0  0  0  0
  -11.5835    3.8361   25.7433 C   0  0  0  0  0  0  0  0  0  0  0  0
   -9.7975    5.1969   26.4501 C   0  0  0  0  0  0  0  0  0  0  0  0
  -12.6630    3.9025   26.5847 C   0  0  0  0  0  0  0  0  0  0  0  0
  -13.9757    4.1042   26.2205 C   0  0  0  0  0  0  0  0  0  0  0  0
  -14.2193    4.0643   24.8260 C   0  0  0  0  0  0  0  0  0  0  0  0
  -11.9375    4.0959   24.4134 C   0  0  0  0  0  0  0  0  0  0  0  0
  -13.1555    4.1702   23.9179 C   0  0  0  0  0  0  0  0  0  0  0  0
   -7.3333    1.8051   27.1923 C   0  0  0  0  0  0  0  0  0  0  0  0
   -7.8269    0.5006   27.0144 C   0  0  0  0  0  0  0  0  0  0  0  0
   -6.9877   -0.5488   27.3449 C   0  0  0  0  0  0  0  0  0  0  0  0
   -5.6981   -0.2924   27.8455 C   0  0  0  0  0  0  0  0  0  0  0  0
   -5.2508    1.0264   28.0421 C   0  0  0  0  0  0  0  0  0  0  0  0
   -6.0154    2.0409   27.7364 C   0  0  0  0  0  0  0  0  0  0  0  0
   -8.6906    7.7131   26.9808 F   0  0  0  0  0  0  0  0  0  0  0  0
   -6.8040    6.9123   26.5017 F   0  0  0  0  0  0  0  0  0  0  0  0
   -7.5253    6.6820   28.5170 F   0  0  0  0  0  0  0  0  0  0  0  0
   -3.6715    1.2944   28.6868 Cl  0  0  0  0  0  0  0  0  0  0  0  0
  3  4  1  0
  6  7  1  0
  2 14  1  0
  4 20  1  0
  4 21  1  0
  4 22  1  0
 18 23  1  0
  1  2  2  0
  2  5  1  0
  5  6  2  0
  6  8  1  0
  8  3  2  0
  3  1  1  0
 14 15  2  0
 15 16  1  0
 16 17  2  0
 17 18  1  0
 18 19  2  0
 19 14  1  0
  7  9  2  0
  9 10  1  0
 10 11  2  0
 11 13  1  0
 13 12  2  0
 12  7  1  0
M  END
$$$$
