No_6091-complexes_sdf/6BKW-FPZ/2024-09-17-14-21-01/
     RDKit          3D

 36 40  0  0  0  0  0  0  0  0999 V2000
   -7.9040    3.9820   27.1177 C   0  0  0  0  0  0  0  0  0  0  0  0
   -8.2057    2.8231   26.8733 C   0  0  2  0  0  0  0  0  0  0  0  0
   -7.0130    4.3706   28.1140 C   0  0  0  0  0  0  0  0  0  0  0  0
   -9.3829    2.4374   26.1668 C   0  0  0  0  0  0  0  0  0  0  0  0
  -10.0975    3.4171   25.5988 C   0  0  1  0  0  0  0  0  0  0  0  0
   -9.7335    4.7745   25.7705 C   0  0  0  0  0  0  0  0  0  0  0  0
   -8.7317    5.1107   26.5933 C   0  0  0  0  0  0  0  0  0  0  0  0
   -8.4060    6.4842   26.8915 C   0  0  0  0  0  0  0  0  0  0  0  0
   -7.3130    6.8159   27.6705 C   0  0  0  0  0  0  0  0  0  0  0  0
   -6.7663    5.7960   28.3758 C   0  0  0  0  0  0  0  0  0  0  0  0
  -11.1995    3.0953   24.6618 C   0  0  0  0  0  0  0  0  0  0  0  0
  -10.9004    2.9298   23.4363 C   0  0  0  0  0  0  0  0  0  0  0  0
  -11.7670    3.0568   22.4038 C   0  0  0  0  0  0  0  0  0  0  0  0
  -12.4998    2.7292   24.8682 C   0  0  0  0  0  0  0  0  0  0  0  0
  -12.9552    2.8637   26.3474 C   0  0  0  0  0  0  0  0  0  0  0  0
  -13.4748    2.6477   23.9430 C   0  0  0  0  0  0  0  0  0  0  0  0
  -13.0531    2.6053   22.6077 C   0  0  0  0  0  0  0  0  0  0  0  0
  -12.3964    2.6082   27.2469 C   0  0  0  0  0  0  0  0  0  0  0  0
  -12.6865    2.6528   28.6300 C   0  0  0  0  0  0  0  0  0  0  0  0
  -13.8065    3.4585   29.0139 C   0  0  0  0  0  0  0  0  0  0  0  0
  -14.5356    3.9882   27.9065 C   0  0  0  0  0  0  0  0  0  0  0  0
  -14.1383    3.8097   26.5948 C   0  0  0  0  0  0  0  0  0  0  0  0
   -7.3993    1.6457   27.4488 C   0  0  0  0  0  0  0  0  0  0  0  0
   -5.9949    1.7088   27.4564 C   0  0  0  0  0  0  0  0  0  0  0  0
   -5.2122    0.6865   27.9813 C   0  0  0  0  0  0  0  0  0  0  0  0
   -3.9574    0.9660   28.4932 C   0  0  0  0  0  0  0  0  0  0  0  0
   -5.7803   -0.6179   28.0242 C   0  0  0  0  0  0  0  0  0  0  0  0
   -4.9993   -1.6645   28.6067 C   0  0  0  0  0  0  0  0  0  0  0  0
   -3.1899   -0.0648   29.1018 C   0  0  0  0  0  0  0  0  0  0  0  0
   -3.6990   -1.3482   29.1854 C   0  0  0  0  0  0  0  0  0  0  0  0
   -2.9095   -2.4285   29.7921 C   0  0  0  0  0  0  0  0  0  0  0  0
   -1.7921   -2.3278   29.9349 C   0  0  0  0  0  0  0  0  0  0  0  0
   -0.8202   -2.4701   29.3815 C   0  0  0  0  0  0  0  0  0  0  0  0
    0.6370   -2.2107   29.6703 C   0  0  0  0  0  0  0  0  0  0  0  0
   -0.8129   -3.6161   28.4745 C   0  0  0  0  0  0  0  0  0  0  0  0
   -9.6722    1.1982   25.9217 O   0  0  0  0  0  0  0  0  0  0  0  0
  1  2  1  0
  2  4  1  0
  4  5  1  0
  5  6  1  0
  6  7  1  0
  5 11  1  6
 14 15  1  0
  2 23  1  1
 23 24  2  3
 24 25  1  0
 30 31  1  0
 31 32  1  0
 32 33  2  3
 33 34  1  0
 33 35  1  0
  4 36  2  0
 11 12  2  0
 12 13  1  0
 13 17  2  0
 17 16  1  0
 16 14  2  0
 14 11  1  0
 15 18  2  0
 18 19  1  0
 19 20  2  0
 20 21  1  0
 21 22  2  0
 22 15  1  0
  1  3  2  0
  3 10  1  0
 10  9  2  0
  9  8  1  0
  8  7  2  0
  7  1  1  0
 25 26  2  0
 26 29  1  0
 29 30  2  0
 30 28  1  0
 28 27  2  0
 27 25  1  0
M  END
$$$$
