No_6588-complexes_sdf/6BKW-FPZ/2024-09-17-14-21-01/
     RDKit          3D

 22 24  0  0  0  0  0  0  0  0999 V2000
   -7.2496    3.8871   27.4508 C   0  0  0  0  0  0  0  0  0  0  0  0
   -7.6161    2.7143   27.1523 C   0  0  0  0  0  0  0  0  0  0  0  0
   -8.8302    2.4659   26.5056 C   0  0  0  0  0  0  0  0  0  0  0  0
   -8.1584    5.0090   27.3234 C   0  0  0  0  0  0  0  0  0  0  0  0
   -9.3788    4.7965   26.7695 C   0  0  0  0  0  0  0  0  0  0  0  0
   -9.7028    3.5649   26.3276 C   0  0  0  0  0  0  0  0  0  0  0  0
   -6.5552    1.6737   27.4428 C   0  0  0  0  0  0  0  0  0  0  0  0
   -6.9794    0.3269   27.6483 C   0  0  0  0  0  0  0  0  0  0  0  0
   -6.0812   -0.5926   28.1515 C   0  0  0  0  0  0  0  0  0  0  0  0
   -4.7528   -0.1687   28.4098 C   0  0  0  0  0  0  0  0  0  0  0  0
   -4.3800    1.1330   28.1962 C   0  0  0  0  0  0  0  0  0  0  0  0
   -5.2540    2.0190   27.8288 C   0  0  0  0  0  0  0  0  0  0  0  0
   -7.7183    6.3784   27.7646 C   0  0  0  0  0  0  0  0  0  0  0  0
   -3.6571   -1.0809   28.9237 C   0  0  0  0  0  0  0  0  0  0  0  0
   -3.5967   -1.2811   30.2454 C   0  0  0  0  0  0  0  0  0  0  0  0
   -3.9797   -0.4893   31.1032 C   0  0  0  0  0  0  0  0  0  0  0  0
   -3.7965   -0.6711   32.5935 C   0  0  0  0  0  0  0  0  0  0  0  0
   -3.2908   -1.6026   32.9093 C   0  0  0  0  0  0  0  0  0  0  0  0
   -2.8159   -2.4749   30.6879 C   0  0  0  0  0  0  0  0  0  0  0  0
   -2.6776   -2.6206   32.0884 C   0  0  0  0  0  0  0  0  0  0  0  0
   -2.8602   -1.6186   27.8952 C   0  0  0  0  0  0  0  0  0  0  0  0
   -7.7051    7.3861   27.0838 N   0  0  0  0  0  0  0  0  0  0  0  0
  2  7  1  0
  4 13  1  0
 10 14  1  0
 14 15  1  0
 14 21  1  0
 13 22  1  0
 15 16  2  0
 16 17  1  0
 17 18  2  0
 18 20  1  0
 20 19  2  0
 19 15  1  0
  1  2  2  0
  2  3  1  0
  3  6  2  0
  6  5  1  0
  5  4  2  0
  4  1  1  0
  7  8  2  0
  8  9  1  0
  9 10  2  0
 10 11  1  0
 11 12  2  0
 12  7  1  0
M  END
$$$$
