No_637-complexes_sdf/6BKW-FPZ/2024-09-17-14-21-01/
     RDKit          3D

 32 35  0  0  0  0  0  0  0  0999 V2000
   -7.9040    3.9820   27.1177 C   0  0  0  0  0  0  0  0  0  0  0  0
   -8.2057    2.8231   26.8733 C   0  0  0  0  0  0  0  0  0  0  0  0
   -9.2962    2.4021   26.1155 C   0  0  0  0  0  0  0  0  0  0  0  0
   -8.7358    5.0662   26.5917 C   0  0  0  0  0  0  0  0  0  0  0  0
   -9.7618    4.7023   25.7546 C   0  0  0  0  0  0  0  0  0  0  0  0
  -10.0066    3.4105   25.4922 C   0  0  0  0  0  0  0  0  0  0  0  0
   -8.4388    6.3309   26.8587 F   0  0  0  0  0  0  0  0  0  0  0  0
   -9.5336    0.9771   25.8274 C   0  0  2  0  0  0  0  0  0  0  0  0
  -10.2374    0.2570   26.7210 C   0  0  0  0  0  0  0  0  0  0  0  0
  -10.7526    0.9257   27.9691 C   0  0  0  0  0  0  0  0  0  0  0  0
  -11.5875    0.1780   28.8446 C   0  0  0  0  0  0  0  0  0  0  0  0
  -12.0399   -0.7282   28.4869 C   0  0  0  0  0  0  0  0  0  0  0  0
  -11.7430   -1.5487   27.3960 C   0  0  0  0  0  0  0  0  0  0  0  0
  -10.8429   -0.9746   26.5004 C   0  0  0  0  0  0  0  0  0  0  0  0
   -8.8321    0.3418   24.7903 C   0  0  2  0  0  0  0  0  0  0  0  0
   -9.4785    0.1146   23.5875 C   0  0  0  0  0  0  0  0  0  0  0  0
   -8.7184   -0.5343   22.5615 C   0  0  0  0  0  0  0  0  0  0  0  0
   -9.2707   -0.7067   21.2307 C   0  0  0  0  0  0  0  0  0  0  0  0
  -10.5974   -0.2127   21.0301 C   0  0  0  0  0  0  0  0  0  0  0  0
  -11.2773    0.4219   22.0291 C   0  0  0  0  0  0  0  0  0  0  0  0
  -10.7410    0.6213   23.2683 C   0  0  0  0  0  0  0  0  0  0  0  0
   -7.5227   -0.2055   25.0844 C   0  0  0  0  0  0  0  0  0  0  0  0
   -7.4007   -1.2005   25.7398 O   0  0  0  0  0  0  0  0  0  0  0  0
   -6.1974   -1.7167   25.9769 C   0  0  0  0  0  0  0  0  0  0  0  0
   -5.1982   -0.8474   25.9181 C   0  0  0  0  0  0  0  0  0  0  0  0
   -3.8953   -1.3357   26.2613 C   0  0  0  0  0  0  0  0  0  0  0  0
   -3.4420   -2.5502   26.0334 C   0  0  0  0  0  0  0  0  0  0  0  0
   -4.5085   -3.5537   25.9543 C   0  0  0  0  0  0  0  0  0  0  0  0
   -5.9800   -2.8114   26.8654 C   0  0  0  0  0  0  0  0  0  0  0  0
   -6.8953    4.4496   27.9231 F   0  0  0  0  0  0  0  0  0  0  0  0
   -4.1312   -4.7435   26.6167 O   0  0  0  0  0  0  0  0  0  0  0  0
   -2.2095   -2.9299   25.9443 O   0  0  0  0  0  0  0  0  0  0  0  0
  4  7  1  0
  8  3  1  1
  8 15  1  0
 15 22  1  1
 22 23  1  0
 23 24  1  0
  1 30  1  0
 28 31  1  0
 27 32  1  0
 15 16  1  0
  8  9  1  0
 24 25  2  0
 25 26  1  0
 26 27  2  0
 27 28  1  0
 28 29  2  0
 29 24  1  0
  1  2  2  0
  2  3  1  0
  3  6  2  0
  6  5  1  0
  5  4  2  0
  4  1  1  0
  9 10  2  0
 10 11  1  0
 11 12  2  0
 12 13  1  0
 13 14  2  0
 14  9  1  0
 16 17  2  0
 17 18  1  0
 18 19  2  0
 19 20  1  0
 20 21  2  0
 21 16  1  0
M  END
$$$$
