No_6105-complexes_sdf/6BKW-FPZ/2024-09-17-14-21-01/
     RDKit          3D

 18 20  0  0  0  0  0  0  0  0999 V2000
   -7.2496    3.8871   27.4508 C   0  0  0  0  0  0  0  0  0  0  0  0
   -7.9379    4.9063   27.8518 C   0  0  0  0  0  0  0  0  0  0  0  0
   -7.5112    6.1898   27.6280 C   0  0  0  0  0  0  0  0  0  0  0  0
   -7.8078    2.6331   27.2522 C   0  0  0  0  0  0  0  0  0  0  0  0
   -7.1538    1.5087   26.7509 C   0  0  0  0  0  0  0  0  0  0  0  0
   -9.2627    2.5305   27.2363 C   0  0  0  0  0  0  0  0  0  0  0  0
   -9.8316    1.3863   26.9098 C   0  0  0  0  0  0  0  0  0  0  0  0
   -7.7251    0.3542   26.4908 C   0  0  0  0  0  0  0  0  0  0  0  0
   -9.0742    0.2446   26.6163 C   0  0  0  0  0  0  0  0  0  0  0  0
   -8.4354    7.2383   27.6389 C   0  0  0  0  0  0  0  0  0  0  0  0
   -9.8405    6.8431   27.3567 C   0  0  0  0  0  0  0  0  0  0  0  0
  -10.2241    5.5590   27.5778 C   0  0  0  0  0  0  0  0  0  0  0  0
   -9.3430    4.5989   27.7505 C   0  0  0  0  0  0  0  0  0  0  0  0
   -9.8472    3.3526   27.6749 C   0  0  0  0  0  0  0  0  0  0  0  0
   -6.8719   -0.8115   26.1095 C   0  0  0  0  0  0  0  0  0  0  0  0
   -6.8157   -1.0042   24.8491 O   0  0  0  0  0  0  0  0  0  0  0  0
   -6.2886   -1.5351   26.9540 O   0  0  0  0  0  0  0  0  0  0  0  0
  -11.1139    3.2603   28.1597 O   0  0  0  0  0  0  0  0  0  0  0  0
  1  2  1  0
  1  4  1  0
  6 14  1  0
 13 14  1  0
  8 15  1  0
 15 16  2  0
 15 17  1  0
 14 18  2  0
  2  3  2  0
  3 10  1  0
 10 11  2  0
 11 12  1  0
 12 13  2  0
 13  2  1  0
  4  5  2  0
  5  8  1  0
  8  9  2  0
  9  7  1  0
  7  6  2  0
  6  4  1  0
M  END
$$$$
