No_6100-complexes_sdf/6BKW-FPZ/2024-09-17-14-21-01/
     RDKit          3D

 21 22  0  0  0  0  0  0  0  0999 V2000
   -7.9040    3.9820   27.1177 C   0  0  0  0  0  0  0  0  0  0  0  0
   -7.8663    4.8694   27.9238 C   0  0  0  0  0  0  0  0  0  0  0  0
   -9.0953    3.1697   27.0532 C   0  0  1  0  0  0  0  0  0  0  0  0
   -9.1405    2.0104   26.1761 C   0  0  0  0  0  0  0  0  0  0  0  0
   -6.7288    5.7941   27.9701 C   0  0  0  0  0  0  0  0  0  0  0  0
   -8.2649    0.9862   26.4894 C   0  0  0  0  0  0  0  0  0  0  0  0
   -8.1457   -0.0838   25.5540 C   0  0  0  0  0  0  0  0  0  0  0  0
   -8.8375    0.0185   24.3612 C   0  0  0  0  0  0  0  0  0  0  0  0
   -9.6483    1.0960   24.0484 C   0  0  0  0  0  0  0  0  0  0  0  0
   -9.7253    2.1233   24.9620 C   0  0  0  0  0  0  0  0  0  0  0  0
  -10.1640    3.4771   27.9290 C   0  0  0  0  0  0  0  0  0  0  0  0
  -11.2406    4.0248   27.3841 C   0  0  0  0  0  0  0  0  0  0  0  0
  -12.4599    3.3240   27.3945 C   0  0  0  0  0  0  0  0  0  0  0  0
  -13.5486    3.7452   26.7140 C   0  0  0  0  0  0  0  0  0  0  0  0
  -13.2916    4.7250   25.7428 C   0  0  0  0  0  0  0  0  0  0  0  0
  -12.0052    5.1641   25.4500 C   0  0  0  0  0  0  0  0  0  0  0  0
  -10.9889    4.7974   26.3385 C   0  0  0  0  0  0  0  0  0  0  0  0
  -12.7569    2.3952   28.5348 C   0  0  2  0  0  0  0  0  0  0  0  0
  -12.9618    2.8204   29.8270 C   0  0  0  0  0  0  0  0  0  0  0  0
  -12.6191    1.0058   28.2153 C   0  0  0  0  0  0  0  0  0  0  0  0
  -13.7236    0.2894   27.8085 C   0  0  0  0  0  0  0  0  0  0  0  0
  1  2  2  3
  1  3  1  0
  3  4  1  0
  2  5  1  0
  3 11  1  1
 11 12  1  0
 13 18  1  0
 18 19  1  1
 18 20  1  0
 20 21  2  0
 12 13  2  0
 13 14  1  0
 14 15  2  0
 15 16  1  0
 16 17  2  0
 17 12  1  0
  4  6  2  0
  6  7  1  0
  7  8  2  0
  8  9  1  0
  9 10  2  0
 10  4  1  0
M  END
$$$$
