No_6780-complexes_sdf/6BKW-FPZ/2024-09-17-14-21-01/
     RDKit          3D

 25 27  0  0  0  0  0  0  0  0999 V2000
   -7.7129    4.2099   27.0854 C   0  0  0  0  0  0  0  0  0  0  0  0
   -8.2112    3.0637   26.9225 C   0  0  0  0  0  0  0  0  0  0  0  0
   -9.4446    2.8304   26.1868 C   0  0  0  0  0  0  0  0  0  0  0  0
   -8.4697    5.3956   26.7238 C   0  0  0  0  0  0  0  0  0  0  0  0
   -8.0091    6.7588   26.9904 C   0  0  2  0  0  0  0  0  0  0  0  0
  -10.1208    3.9213   25.7408 C   0  0  0  0  0  0  0  0  0  0  0  0
   -9.5939    5.2027   25.9665 C   0  0  0  0  0  0  0  0  0  0  0  0
   -7.1212    6.8389   27.9128 F   0  0  0  0  0  0  0  0  0  0  0  0
   -8.5076    7.8959   26.4587 C   0  0  0  0  0  0  0  0  0  0  0  0
   -7.4683    1.8022   27.3776 C   0  0  0  0  0  0  0  0  0  0  0  0
   -5.9604    1.9641   27.9876 Cl  0  0  0  0  0  0  0  0  0  0  0  0
   -8.0240    0.5104   27.3240 C   0  0  0  0  0  0  0  0  0  0  0  0
   -9.1841    0.2346   27.6166 C   0  0  0  0  0  0  0  0  0  0  0  0
  -10.2567    1.1977   27.9946 C   0  0  0  0  0  0  0  0  0  0  0  0
  -10.4523    2.2539   26.8866 C   0  0  1  0  0  0  0  0  0  0  0  0
  -11.8881    2.5521   26.8299 C   0  0  0  0  0  0  0  0  0  0  0  0
  -12.6117    1.8299   26.2330 C   0  0  0  0  0  0  0  0  0  0  0  0
  -13.9169    2.0689   25.9337 C   0  0  0  0  0  0  0  0  0  0  0  0
  -14.4468    3.3095   26.4186 C   0  0  0  0  0  0  0  0  0  0  0  0
  -13.6657    4.1938   27.1426 C   0  0  0  0  0  0  0  0  0  0  0  0
  -12.3308    3.8593   27.3222 C   0  0  0  0  0  0  0  0  0  0  0  0
   -9.5916   -1.1618   27.9402 C   0  0  0  0  0  0  0  0  0  0  0  0
   -8.7635   -2.1185   27.7555 C   0  0  0  0  0  0  0  0  0  0  0  0
   -7.4084   -1.7973   27.3412 C   0  0  0  0  0  0  0  0  0  0  0  0
   -7.0008   -0.5160   27.2168 C   0  0  0  0  0  0  0  0  0  0  0  0
  4  5  1  0
  5  8  1  0
  5  9  1  1
  2 10  1  0
 10 11  1  0
 10 12  1  0
 12 13  2  0
 13 14  1  0
  3 15  1  0
 14 15  1  0
 15 16  1  1
 13 22  1  0
 22 23  2  3
 23 24  1  0
 24 25  2  0
  1  2  2  0
  2  3  1  0
  3  6  2  0
  6  7  1  0
  7  4  2  0
  4  1  1  0
 16 17  2  0
 17 18  1  0
 18 19  2  0
 19 20  1  0
 20 21  2  0
 21 16  1  0
M  END
$$$$
