No_6013-complexes_sdf/6BKW-FPZ/2024-09-17-14-21-01/
     RDKit          3D

 13 14  0  0  0  0  0  0  0  0999 V2000
   -7.9040    3.9820   27.1177 C   0  0  0  0  0  0  0  0  0  0  0  0
   -7.8663    4.8694   27.9238 C   0  0  0  0  0  0  0  0  0  0  0  0
   -9.0501    3.8017   26.2617 C   0  0  0  0  0  0  0  0  0  0  0  0
  -10.0189    4.7608   26.3707 C   0  0  0  0  0  0  0  0  0  0  0  0
   -8.6770    5.9780   27.9222 C   0  0  0  0  0  0  0  0  0  0  0  0
   -9.8040    5.8752   27.0958 C   0  0  0  0  0  0  0  0  0  0  0  0
   -9.3608    2.6690   25.4435 C   0  0  0  0  0  0  0  0  0  0  0  0
   -8.8182    1.4490   25.7896 C   0  0  0  0  0  0  0  0  0  0  0  0
   -8.7867    0.4032   24.9075 C   0  0  0  0  0  0  0  0  0  0  0  0
   -9.9781    2.8181   24.2382 C   0  0  0  0  0  0  0  0  0  0  0  0
  -10.0500    1.7548   23.3533 C   0  0  0  0  0  0  0  0  0  0  0  0
   -9.4366    0.5575   23.6984 C   0  0  0  0  0  0  0  0  0  0  0  0
   -9.5413   -0.7550   22.5717 Cl  0  0  0  0  0  0  0  0  0  0  0  0
  3  7  1  0
 12 13  1  0
  1  2  2  0
  2  5  1  0
  5  6  2  0
  6  4  1  0
  4  3  2  0
  3  1  1  0
  7  8  2  0
  8  9  1  0
  9 12  2  0
 12 11  1  0
 11 10  2  0
 10  7  1  0
M  END
$$$$
