No_6129-complexes_sdf/6BKW-FPZ/2024-09-17-14-21-01/
     RDKit          3D

 18 19  0  0  0  0  0  0  0  0999 V2000
   -7.7129    4.2099   27.0854 C   0  0  0  0  0  0  0  0  0  0  0  0
   -8.9133    4.4736   27.0998 C   0  0  0  0  0  0  0  0  0  0  0  0
   -9.4616    5.6470   27.6290 C   0  0  0  0  0  0  0  0  0  0  0  0
   -6.8722    5.1130   27.9248 C   0  0  0  0  0  0  0  0  0  0  0  0
   -7.3801    6.2535   28.4126 C   0  0  0  0  0  0  0  0  0  0  0  0
   -8.6734    6.5530   28.2150 C   0  0  0  0  0  0  0  0  0  0  0  0
   -9.8157    3.4887   26.3527 C   0  0  1  0  0  0  0  0  0  0  0  0
  -10.8123    3.4526   26.2614 C   0  0  0  0  0  0  0  0  0  0  0  0
  -11.6526    2.4945   25.4117 C   0  0  0  0  0  0  0  0  0  0  0  0
  -12.9909    2.5389   25.2878 C   0  0  0  0  0  0  0  0  0  0  0  0
  -13.7142    3.5162   26.0497 C   0  0  0  0  0  0  0  0  0  0  0  0
  -13.0950    4.4441   26.8569 C   0  0  0  0  0  0  0  0  0  0  0  0
  -11.6614    4.4390   26.9461 C   0  0  0  0  0  0  0  0  0  0  0  0
   -8.9039    2.5033   25.5723 C   0  0  0  0  0  0  0  0  0  0  0  0
   -9.1475    2.3889   24.3281 F   0  0  0  0  0  0  0  0  0  0  0  0
   -7.6485    2.8149   25.7974 F   0  0  0  0  0  0  0  0  0  0  0  0
   -7.5039    3.3055   27.5759 F   0  0  0  0  0  0  0  0  0  0  0  0
   -9.1221    1.2570   26.1589 F   0  0  0  0  0  0  0  0  0  0  0  0
  2  7  1  0
  7 14  1  6
 14 15  1  0
 14 16  1  0
  1 17  1  0
 14 18  1  0
  7  8  1  0
  1  2  2  0
  2  3  1  0
  3  6  2  0
  6  5  1  0
  5  4  2  0
  4  1  1  0
  8  9  2  0
  9 10  1  0
 10 11  2  0
 11 12  1  0
 12 13  2  0
 13  8  1  0
M  END
$$$$
