No_6516-complexes_sdf/6BKW-FPZ/2024-09-17-14-21-01/
     RDKit          3D

 21 22  0  0  0  0  0  0  0  0999 V2000
   -7.9040    3.9820   27.1177 C   0  0  0  0  0  0  0  0  0  0  0  0
   -7.8663    4.8694   27.9238 C   0  0  0  0  0  0  0  0  0  0  0  0
   -9.0491    3.8523   26.2542 C   0  0  0  0  0  0  0  0  0  0  0  0
   -8.7661    5.9491   27.9690 C   0  0  0  0  0  0  0  0  0  0  0  0
   -9.9295    4.8502   26.2323 C   0  0  0  0  0  0  0  0  0  0  0  0
   -9.8077    5.9288   27.0933 C   0  0  0  0  0  0  0  0  0  0  0  0
   -6.9996    2.9096   27.1565 O   0  0  0  0  0  0  0  0  0  0  0  0
   -7.3398    1.5998   26.9303 C   0  0  0  0  0  0  0  0  0  0  0  0
   -6.3550    0.7362   27.3720 C   0  0  0  0  0  0  0  0  0  0  0  0
   -6.5544   -0.6599   27.2259 C   0  0  0  0  0  0  0  0  0  0  0  0
   -7.8175   -1.0549   26.7456 C   0  0  0  0  0  0  0  0  0  0  0  0
   -8.4936    0.8944   26.5959 C   0  0  0  0  0  0  0  0  0  0  0  0
   -8.7504   -0.2522   26.4813 C   0  0  0  0  0  0  0  0  0  0  0  0
  -10.0663   -0.7574   25.9972 C   0  0  0  0  0  0  0  0  0  0  0  0
  -10.1298   -2.0562   25.9130 Cl  0  0  0  0  0  0  0  0  0  0  0  0
  -11.0760    0.2532   25.7408 C   0  0  0  0  0  0  0  0  0  0  0  0
  -11.4792    0.7335   24.7166 N   0  0  0  0  0  0  0  0  0  0  0  0
  -10.7576    0.6706   23.5854 C   0  0  0  0  0  0  0  0  0  0  0  0
  -11.1988    1.4514   22.4448 C   0  0  0  0  0  0  0  0  0  0  0  0
  -12.2162    2.0458   22.5178 C   0  0  0  0  0  0  0  0  0  0  0  0
  -13.0315    2.1957   23.6469 C   0  0  0  0  0  0  0  0  0  0  0  0
  1  7  1  0
  7  8  1  0
 13 14  1  0
 14 15  1  0
 14 16  1  0
 16 17  2  3
 17 18  1  0
 18 19  2  3
 19 20  1  0
 20 21  2  0
  1  2  2  0
  2  4  1  0
  4  6  2  0
  6  5  1  0
  5  3  2  0
  3  1  1  0
  8  9  2  0
  9 10  1  0
 10 11  2  0
 11 13  1  0
 13 12  2  0
 12  8  1  0
M  END
$$$$
