No_6838-complexes_sdf/6BKW-FPZ/2024-09-17-14-21-01/
     RDKit          3D

 22 24  0  0  0  0  0  0  0  0999 V2000
   -7.9040    3.9820   27.1177 C   0  0  0  0  0  0  0  0  0  0  0  0
   -9.0711    4.3164   27.0630 C   0  0  0  0  0  0  0  0  0  0  0  0
   -9.9692    3.7224   26.1073 C   0  0  0  0  0  0  0  0  0  0  0  0
   -6.9787    4.6761   28.1003 C   0  0  0  0  0  0  0  0  0  0  0  0
   -9.4538    2.6801   25.3673 C   0  0  0  0  0  0  0  0  0  0  0  0
   -8.1927    2.1957   25.6621 C   0  0  0  0  0  0  0  0  0  0  0  0
   -7.4333    2.8255   26.6299 C   0  0  0  0  0  0  0  0  0  0  0  0
  -10.1852    1.8711   24.3912 C   0  0  0  0  0  0  0  0  0  0  0  0
   -9.7286    0.8911   23.8216 C   0  0  0  0  0  0  0  0  0  0  0  0
  -10.4116    0.2111   22.7557 C   0  0  0  0  0  0  0  0  0  0  0  0
  -11.6548    0.7049   22.3388 C   0  0  0  0  0  0  0  0  0  0  0  0
  -11.4617    2.3783   23.8666 C   0  0  0  0  0  0  0  0  0  0  0  0
  -12.1359    1.8063   22.9200 C   0  0  0  0  0  0  0  0  0  0  0  0
   -7.4924    5.7953   28.6649 N   0  0  0  0  0  0  0  0  0  0  0  0
   -5.8293    4.3128   28.2577 F   0  0  0  0  0  0  0  0  0  0  0  0
  -13.3346    2.2313   22.5177 F   0  0  0  0  0  0  0  0  0  0  0  0
  -12.3734   -0.0120   21.2408 C   0  0  0  0  0  0  0  0  0  0  0  0
  -12.9134    0.3467   20.4384 C   0  0  0  0  0  0  0  0  0  0  0  0
  -13.4362    0.1392   19.3888 C   0  0  0  0  0  0  0  0  0  0  0  0
  -13.5050   -1.2088   18.9371 C   0  0  0  0  0  0  0  0  0  0  0  0
  -12.8183   -2.0499   19.8912 C   0  0  0  0  0  0  0  0  0  0  0  0
  -12.0988   -1.5095   20.9754 C   0  0  0  0  0  0  0  0  0  0  0  0
  1  4  1  0
  5  8  1  0
  4 14  2  0
  4 15  1  0
 13 16  1  0
 11 17  1  0
 17 18  2  0
 18 19  1  0
 19 20  2  0
 20 21  1  0
 21 22  2  0
 22 17  1  0
  8  9  2  0
  9 10  1  0
 10 11  2  0
 11 13  1  0
 13 12  2  0
 12  8  1  0
  1  2  2  0
  2  3  1  0
  3  5  2  0
  5  6  1  0
  6  7  2  0
  7  1  1  0
M  END
$$$$
