No_6251-complexes_sdf/6BKW-FPZ/2024-09-17-14-21-01/
     RDKit          3D

 29 32  0  0  0  0  0  0  0  0999 V2000
   -7.9040    3.9820   27.1177 C   0  0  0  0  0  0  0  0  0  0  0  0
   -7.8663    4.8694   27.9238 C   0  0  0  0  0  0  0  0  0  0  0  0
   -9.0491    3.8523   26.2542 C   0  0  0  0  0  0  0  0  0  0  0  0
   -8.7661    5.9491   27.9690 C   0  0  0  0  0  0  0  0  0  0  0  0
   -9.9295    4.8502   26.2323 C   0  0  0  0  0  0  0  0  0  0  0  0
   -9.8077    5.9288   27.0933 C   0  0  0  0  0  0  0  0  0  0  0  0
   -6.9606    2.7994   27.1981 C   0  0  0  0  0  0  0  0  0  0  0  0
   -7.0263    1.6603   27.5228 N   0  0  0  0  0  0  0  0  0  0  0  0
   -8.2039    0.9905   27.6119 C   0  0  0  0  0  0  0  0  0  0  0  0
   -5.8711    0.7923   27.6027 C   0  0  0  0  0  0  0  0  0  0  0  0
   -5.9604   -0.5013   27.8707 C   0  0  0  0  0  0  0  0  0  0  0  0
   -8.3415   -0.3848   27.7480 C   0  0  1  0  0  0  0  0  0  0  0  0
   -7.1969   -1.0783   27.9600 C   0  0  0  0  0  0  0  0  0  0  0  0
   -5.8481    3.3804   27.7909 O   0  0  0  0  0  0  0  0  0  0  0  0
   -9.7052   -0.9303   27.8697 C   0  0  0  0  0  0  0  0  0  0  0  0
  -10.8033   -0.2178   27.5311 C   0  0  0  0  0  0  0  0  0  0  0  0
  -12.1152   -0.7662   27.6899 C   0  0  0  0  0  0  0  0  0  0  0  0
  -12.1842   -2.0525   28.1958 C   0  0  0  0  0  0  0  0  0  0  0  0
  -10.0181   -2.1914   28.4451 C   0  0  0  0  0  0  0  0  0  0  0  0
  -11.1695   -2.7118   28.6205 C   0  0  0  0  0  0  0  0  0  0  0  0
  -11.0262    4.7857   25.2633 C   0  0  2  0  0  0  0  0  0  0  0  0
  -12.1958    4.2204   25.6680 C   0  0  0  0  0  0  0  0  0  0  0  0
  -12.4834    3.9215   27.0066 C   0  0  0  0  0  0  0  0  0  0  0  0
  -13.7167    3.3943   27.4013 C   0  0  0  0  0  0  0  0  0  0  0  0
  -14.4530    3.2620   26.7282 C   0  0  0  0  0  0  0  0  0  0  0  0
  -14.4724    3.4993   25.3116 C   0  0  0  0  0  0  0  0  0  0  0  0
  -13.2361    4.0796   24.7155 C   0  0  0  0  0  0  0  0  0  0  0  0
  -10.6897    4.9364   23.8885 C   0  0  0  0  0  0  0  0  0  0  0  0
  -11.5722    4.7361   22.8523 C   0  0  0  0  0  0  0  0  0  0  0  0
  1  7  1  0
  7  8  1  0
  8  9  1  0
  8 10  1  0
 11 13  1  0
 12 13  1  0
  7 14  2  0
 12 15  1  1
  5 21  1  0
 21 22  1  0
 21 28  1  6
 28 29  2  0
  9 12  1  0
 11 10  1  0
 15 16  2  0
 16 17  1  0
 17 18  2  0
 18 20  1  0
 20 19  2  0
 19 15  1  0
 22 23  2  0
 23 24  1  0
 24 25  2  0
 25 26  1  0
 26 27  2  0
 27 22  1  0
  1  2  2  0
  2  4  1  0
  4  6  2  0
  6  5  1  0
  5  3  2  0
  3  1  1  0
M  END
$$$$
