No_6132-complexes_sdf/6BKW-FPZ/2024-09-17-14-21-01/
     RDKit          3D

 20 22  0  0  0  0  0  0  0  0999 V2000
   -7.9040    3.9820   27.1177 C   0  0  0  0  0  0  0  0  0  0  0  0
   -7.8663    4.8694   27.9238 C   0  0  0  0  0  0  0  0  0  0  0  0
   -7.4698    2.6989   27.4277 C   0  0  0  0  0  0  0  0  0  0  0  0
   -7.9683    1.5964   26.8266 C   0  0  1  0  0  0  0  0  0  0  0  0
   -8.9447    1.7923   25.8533 C   0  0  0  0  0  0  0  0  0  0  0  0
   -9.4405    2.9988   25.5757 C   0  0  2  0  0  0  0  0  0  0  0  0
  -10.4397    3.2630   24.6146 C   0  0  0  0  0  0  0  0  0  0  0  0
   -8.9100    4.1245   26.1959 C   0  0  0  0  0  0  0  0  0  0  0  0
   -8.1498    6.2592   27.6587 N   0  0  0  0  0  0  0  0  0  0  0  0
  -11.1006    4.4170   24.5207 C   0  0  0  0  0  0  0  0  0  0  0  0
  -10.6425    2.3199   23.5919 C   0  0  0  0  0  0  0  0  0  0  0  0
  -11.5663    2.5439   22.5632 C   0  0  0  0  0  0  0  0  0  0  0  0
  -12.0429    4.6874   23.5254 C   0  0  0  0  0  0  0  0  0  0  0  0
  -12.2436    3.7538   22.5460 C   0  0  0  0  0  0  0  0  0  0  0  0
   -7.4550    0.2624   27.0797 C   0  0  0  0  0  0  0  0  0  0  0  0
   -6.2697    0.0572   27.2146 F   0  0  0  0  0  0  0  0  0  0  0  0
   -8.1003   -0.1353   28.3231 F   0  0  0  0  0  0  0  0  0  0  0  0
   -7.9274   -0.6880   26.2111 F   0  0  0  0  0  0  0  0  0  0  0  0
   -8.9694    6.5282   26.7357 C   0  0  0  0  0  0  0  0  0  0  0  0
   -9.4177    5.4430   25.9743 C   0  0  0  0  0  0  0  0  0  0  0  0
  1  3  1  0
  3  4  1  0
  4  5  1  0
  5  6  1  0
  6  7  1  6
  6  8  1  0
  4 15  1  6
 15 16  1  0
 15 17  1  0
 15 18  1  0
  1  2  2  0
  2  9  1  0
  9 19  2  0
 19 20  1  0
 20  8  2  0
  8  1  1  0
  7 10  2  0
 10 13  1  0
 13 14  2  0
 14 12  1  0
 12 11  2  0
 11  7  1  0
M  END
$$$$
