No_650-complexes_sdf/6BKW-FPZ/2024-09-17-14-21-01/
     RDKit          3D

 40 44  0  0  0  0  0  0  0  0999 V2000
   -7.9040    3.9820   27.1177 C   0  0  0  0  0  0  0  0  0  0  0  0
   -9.0711    4.3164   27.0630 C   0  0  0  0  0  0  0  0  0  0  0  0
   -9.8698    3.9665   25.9494 C   0  0  0  0  0  0  0  0  0  0  0  0
   -7.0332    4.5030   28.2025 C   0  0  0  0  0  0  0  0  0  0  0  0
  -10.9909    4.7237   25.5958 C   0  0  0  0  0  0  0  0  0  0  0  0
   -7.4989    5.5573   28.9524 C   0  0  0  0  0  0  0  0  0  0  0  0
  -11.7350    4.2316   24.5284 C   0  0  0  0  0  0  0  0  0  0  0  0
  -11.2912    3.1970   23.7185 C   0  0  0  0  0  0  0  0  0  0  0  0
  -10.1586    2.5464   24.0389 C   0  0  0  0  0  0  0  0  0  0  0  0
   -9.3966    2.9844   25.1500 C   0  0  0  0  0  0  0  0  0  0  0  0
   -9.4387    5.4350   27.9141 C   0  0  0  0  0  0  0  0  0  0  0  0
   -8.6845    6.0138   28.8196 C   0  0  0  0  0  0  0  0  0  0  0  0
   -9.6692    1.3930   23.2216 C   0  0  0  0  0  0  0  0  0  0  0  0
   -8.4761    1.1205   23.3810 F   0  0  0  0  0  0  0  0  0  0  0  0
  -10.4773    0.2906   23.4453 F   0  0  0  0  0  0  0  0  0  0  0  0
   -9.7925    1.7447   21.8829 F   0  0  0  0  0  0  0  0  0  0  0  0
   -5.7397    4.0243   28.2591 O   0  0  0  0  0  0  0  0  0  0  0  0
   -5.4881    2.6953   27.9085 C   0  0  0  0  0  0  0  0  0  0  0  0
   -6.3677    1.6600   28.1337 C   0  0  0  0  0  0  0  0  0  0  0  0
   -5.9205    0.3451   27.7426 C   0  0  0  0  0  0  0  0  0  0  0  0
   -4.6080    0.1407   27.3652 C   0  0  0  0  0  0  0  0  0  0  0  0
   -3.6849    1.1724   27.3236 C   0  0  0  0  0  0  0  0  0  0  0  0
   -4.1301    2.4339   27.5875 C   0  0  0  0  0  0  0  0  0  0  0  0
   -2.4312    0.9603   27.0121 F   0  0  0  0  0  0  0  0  0  0  0  0
   -6.8773   -0.7414   27.7654 C   0  0  0  0  0  0  0  0  0  0  0  0
   -6.6518   -1.8786   27.9252 C   0  0  0  0  0  0  0  0  0  0  0  0
   -7.6693   -2.9623   27.9433 C   0  0  0  0  0  0  0  0  0  0  0  0
   -9.0027   -2.5321   27.7053 C   0  0  0  0  0  0  0  0  0  0  0  0
   -9.2973   -1.1754   27.4952 C   0  0  0  0  0  0  0  0  0  0  0  0
   -8.2871   -0.2509   27.5228 C   0  0  0  0  0  0  0  0  0  0  0  0
  -10.7034   -0.7821   27.2409 C   0  0  0  0  0  0  0  0  0  0  0  0
  -11.2894   -1.0842   26.2681 O   0  0  0  0  0  0  0  0  0  0  0  0
  -11.2004    0.0837   28.1046 O   0  0  0  0  0  0  0  0  0  0  0  0
  -12.4201    0.6902   27.9113 C   0  0  0  0  0  0  0  0  0  0  0  0
  -12.4642    1.8988   28.4321 C   0  0  0  0  0  0  0  0  0  0  0  0
  -13.5926    2.7810   28.1865 C   0  0  0  0  0  0  0  0  0  0  0  0
  -14.5363    2.3372   27.3223 C   0  0  0  0  0  0  0  0  0  0  0  0
  -14.4003    1.0446   26.7563 C   0  0  0  0  0  0  0  0  0  0  0  0
  -13.2666    0.2375   27.0134 C   0  0  0  0  0  0  0  0  0  0  0  0
  -13.7737    4.0972   28.8731 C   0  0  0  0  0  0  0  0  0  0  0  0
  9 13  1  0
 13 14  1  0
 13 15  1  0
 13 16  1  0
  4 17  1  0
 17 18  1  0
 22 24  1  0
 20 25  1  0
 29 31  1  0
 31 32  2  0
 31 33  1  0
 33 34  1  0
 36 40  1  0
  3  2  1  0
 18 19  2  0
 19 20  1  0
 20 21  2  0
 21 22  1  0
 22 23  2  0
 23 18  1  0
 25 26  2  0
 26 27  1  0
 27 28  2  0
 28 29  1  0
 29 30  2  0
 30 25  1  0
  1  2  2  0
  2 11  1  0
 11 12  2  0
 12  6  1  0
  6  4  2  0
  4  1  1  0
 34 35  2  0
 35 36  1  0
 36 37  2  0
 37 38  1  0
 38 39  2  0
 39 34  1  0
  3  5  2  0
  5  7  1  0
  7  8  2  0
  8  9  1  0
  9 10  2  0
 10  3  1  0
M  END
$$$$
