No_6665-complexes_sdf/6BKW-FPZ/2024-09-17-14-21-01/
     RDKit          3D

  8  8  0  0  0  0  0  0  0  0999 V2000
   -7.9040    3.9820   27.1177 C   0  0  0  0  0  0  0  0  0  0  0  0
   -9.0711    4.3164   27.0630 C   0  0  0  0  0  0  0  0  0  0  0  0
   -9.5294    5.4517   27.7215 C   0  0  0  0  0  0  0  0  0  0  0  0
   -9.9845    3.5634   26.2189 C   0  0  0  0  0  0  0  0  0  0  0  0
   -9.6295    2.5733   25.6121 C   0  0  0  0  0  0  0  0  0  0  0  0
   -7.4226    2.6598   26.7196 C   0  0  0  0  0  0  0  0  0  0  0  0
   -8.3452    1.9310   25.9988 C   0  0  0  0  0  0  0  0  0  0  0  0
   -6.9035    4.6459   28.0969 C   0  0  0  0  0  0  0  0  0  0  0  0
  2  3  1  0
  1  8  1  0
  1  2  2  0
  2  4  1  0
  4  5  2  0
  5  7  1  0
  7  6  2  0
  6  1  1  0
M  END
$$$$
