No_6957-complexes_sdf/6BKW-FPZ/2024-09-17-14-21-01/
     RDKit          3D

 12 12  0  0  0  0  0  0  0  0999 V2000
   -7.7129    4.2099   27.0854 C   0  0  0  0  0  0  0  0  0  0  0  0
   -7.7814    5.1722   27.8972 C   0  0  0  0  0  0  0  0  0  0  0  0
   -7.2983    2.9533   27.5684 C   0  0  0  0  0  0  0  0  0  0  0  0
   -7.6908    1.8111   26.9553 C   0  0  0  0  0  0  0  0  0  0  0  0
   -7.2237    0.5782   27.3450 C   0  0  0  0  0  0  0  0  0  0  0  0
   -5.9667    0.5292   27.9479 C   0  0  0  0  0  0  0  0  0  0  0  0
   -5.4359   -0.7449   28.3763 C   0  0  0  0  0  0  0  0  0  0  0  0
   -4.2050   -0.7747   29.0568 C   0  0  0  0  0  0  0  0  0  0  0  0
   -3.5268    0.4378   29.1772 C   0  0  0  0  0  0  0  0  0  0  0  0
   -4.9568    1.5955   28.2794 C   0  0  0  0  0  0  0  0  0  0  0  0
   -3.8609    1.4755   28.8614 N   0  0  0  0  0  0  0  0  0  0  0  0
   -8.4764    6.3981   27.6262 C   0  0  0  0  0  0  0  0  0  0  0  0
  1  2  2  3
  1  3  1  0
  3  4  1  0
  4  5  1  0
  5  6  1  0
  2 12  1  0
  6  7  2  0
  7  8  1  0
  8  9  2  0
  9 11  1  0
 11 10  2  0
 10  6  1  0
M  END
$$$$
