No_6517-complexes_sdf/6BKW-FPZ/2024-09-17-14-21-01/
     RDKit          3D

 23 25  0  0  0  0  0  0  0  0999 V2000
   -7.9040    3.9820   27.1177 C   0  0  0  0  0  0  0  0  0  0  0  0
   -7.8663    4.8694   27.9238 C   0  0  0  0  0  0  0  0  0  0  0  0
   -9.0501    3.8017   26.2617 C   0  0  0  0  0  0  0  0  0  0  0  0
  -10.0189    4.7608   26.3707 C   0  0  0  0  0  0  0  0  0  0  0  0
   -8.6973    5.9722   27.8968 C   0  0  0  0  0  0  0  0  0  0  0  0
   -9.8216    5.8946   27.1241 C   0  0  0  0  0  0  0  0  0  0  0  0
   -9.1437    2.6293   25.4175 C   0  0  0  0  0  0  0  0  0  0  0  0
   -8.6170    1.4258   25.8177 C   0  0  0  0  0  0  0  0  0  0  0  0
   -8.6844    0.3194   24.9788 C   0  0  0  0  0  0  0  0  0  0  0  0
   -9.3359    0.4939   23.7289 C   0  0  0  0  0  0  0  0  0  0  0  0
   -9.8521    1.7195   23.3158 C   0  0  0  0  0  0  0  0  0  0  0  0
   -9.7240    2.7821   24.1593 C   0  0  0  0  0  0  0  0  0  0  0  0
   -9.4499   -0.8719   22.6463 Cl  0  0  0  0  0  0  0  0  0  0  0  0
  -10.4749    1.8453   21.9882 C   0  0  0  0  0  0  0  0  0  0  0  0
  -10.1436    2.9426   21.2916 C   0  0  0  0  0  0  0  0  0  0  0  0
  -10.8053    3.2162   20.0007 C   0  0  0  0  0  0  0  0  0  0  0  0
  -11.5825    2.1955   19.4411 C   0  0  0  0  0  0  0  0  0  0  0  0
  -11.7947    1.0269   20.1663 C   0  0  0  0  0  0  0  0  0  0  0  0
  -11.2573    0.8796   21.3987 C   0  0  0  0  0  0  0  0  0  0  0  0
   -6.6840    5.1188   28.6938 O   0  0  0  0  0  0  0  0  0  0  0  0
  -12.5565    0.1104   19.5448 O   0  0  0  0  0  0  0  0  0  0  0  0
  -12.6005   -0.8206   19.1732 C   0  0  0  0  0  0  0  0  0  0  0  0
  -13.3683   -1.2158   18.1958 C   0  0  0  0  0  0  0  0  0  0  0  0
  3  7  1  0
 10 13  1  0
 11 14  1  0
  2 20  1  0
 18 21  1  0
 21 22  1  0
 22 23  2  0
 14 15  2  0
 15 16  1  0
 16 17  2  0
 17 18  1  0
 18 19  2  0
 19 14  1  0
  1  2  2  0
  2  5  1  0
  5  6  2  0
  6  4  1  0
  4  3  2  0
  3  1  1  0
  7  8  2  0
  8  9  1  0
  9 10  2  0
 10 11  1  0
 11 12  2  0
 12  7  1  0
M  END
$$$$
