No_6945-complexes_sdf/6BKW-FPZ/2024-09-17-14-21-01/
     RDKit          3D

 23 25  0  0  0  0  0  0  0  0999 V2000
   -7.9040    3.9820   27.1177 C   0  0  0  0  0  0  0  0  0  0  0  0
   -7.8663    4.8694   27.9238 C   0  0  0  0  0  0  0  0  0  0  0  0
   -9.0806    3.1428   27.1220 C   0  0  0  0  0  0  0  0  0  0  0  0
   -9.1366    1.9856   26.2314 C   0  0  1  0  0  0  0  0  0  0  0  0
   -8.9896    5.4789   28.4964 C   0  0  0  0  0  0  0  0  0  0  0  0
  -10.1971    4.7487   28.3835 C   0  0  0  0  0  0  0  0  0  0  0  0
  -10.2153    3.6197   27.6096 C   0  0  0  0  0  0  0  0  0  0  0  0
   -8.6296    0.7951   26.7459 C   0  0  2  0  0  0  0  0  0  0  0  0
   -8.0405    0.6359   27.8607 C   0  0  0  0  0  0  0  0  0  0  0  0
   -8.7208   -0.3588   25.7557 C   0  0  0  0  0  0  0  0  0  0  0  0
   -9.6827   -0.3863   24.9227 C   0  0  0  0  0  0  0  0  0  0  0  0
  -10.0349   -1.1279   24.2734 C   0  0  0  0  0  0  0  0  0  0  0  0
   -9.7622    2.1262   25.0478 C   0  0  0  0  0  0  0  0  0  0  0  0
  -10.0506    0.9969   24.3118 C   0  0  0  0  0  0  0  0  0  0  0  0
  -11.1684    0.9531   23.4690 C   0  0  0  0  0  0  0  0  0  0  0  0
  -10.9343   -1.3241   23.1596 C   0  0  0  0  0  0  0  0  0  0  0  0
  -11.4599   -0.1136   22.6586 C   0  0  0  0  0  0  0  0  0  0  0  0
  -11.4872    2.8879   27.6112 C   0  0  0  0  0  0  0  0  0  0  0  0
  -12.6095    3.3597   28.0169 C   0  0  0  0  0  0  0  0  0  0  0  0
  -13.7960    2.7240   27.7562 C   0  0  0  0  0  0  0  0  0  0  0  0
  -14.9954    3.2374   28.1610 C   0  0  0  0  0  0  0  0  0  0  0  0
  -15.0375    4.4542   28.9468 C   0  0  0  0  0  0  0  0  0  0  0  0
  -13.8862    5.1403   29.1771 C   0  0  0  0  0  0  0  0  0  0  0  0
  4  3  1  1
  4  8  1  0
  8  9  1  6
  8 10  1  0
 10 11  1  0
  4 13  1  0
 13 14  1  0
  7 18  1  0
 18 19  2  3
 19 20  1  0
 20 21  2  3
 21 22  1  0
 22 23  2  0
  1  2  2  0
  2  5  1  0
  5  6  2  0
  6  7  1  0
  7  3  2  0
  3  1  1  0
 11 12  2  0
 12 16  1  0
 16 17  2  0
 17 15  1  0
 15 14  2  0
 14 11  1  0
M  END
$$$$
