No_6666-complexes_sdf/6BKW-FPZ/2024-09-17-14-21-01/
     RDKit          3D

 12 13  0  0  0  0  0  0  0  0999 V2000
   -7.7129    4.2099   27.0854 C   0  0  0  0  0  0  0  0  0  0  0  0
   -8.2112    3.0637   26.9225 C   0  0  0  0  0  0  0  0  0  0  0  0
   -8.4224    5.2106   27.8516 C   0  0  0  0  0  0  0  0  0  0  0  0
   -9.5628    2.7160   27.4089 C   0  0  0  0  0  0  0  0  0  0  0  0
  -10.2639    3.7034   28.1156 C   0  0  0  0  0  0  0  0  0  0  0  0
   -9.7059    4.9514   28.3169 C   0  0  0  0  0  0  0  0  0  0  0  0
  -10.1363    1.3870   27.2388 C   0  0  0  0  0  0  0  0  0  0  0  0
   -9.2576    0.3984   27.0588 C   0  0  0  0  0  0  0  0  0  0  0  0
   -9.7727   -0.9381   27.0129 C   0  0  0  0  0  0  0  0  0  0  0  0
  -11.1413   -1.1280   27.2708 C   0  0  0  0  0  0  0  0  0  0  0  0
  -11.4131    1.0346   27.6588 C   0  0  0  0  0  0  0  0  0  0  0  0
  -11.9200   -0.1354   27.6590 C   0  0  0  0  0  0  0  0  0  0  0  0
  4  7  1  0
  1  2  2  0
  2  4  1  0
  4  5  2  0
  5  6  1  0
  6  3  2  0
  3  1  1  0
  7  8  2  0
  8  9  1  0
  9 10  2  0
 10 12  1  0
 12 11  2  0
 11  7  1  0
M  END
$$$$
