No_6711-complexes_sdf/6BKW-FPZ/2024-09-17-14-21-01/
     RDKit          3D

 39 43  0  0  0  0  0  0  0  0999 V2000
   -7.9040    3.9820   27.1177 C   0  0  0  0  0  0  0  0  0  0  0  0
   -7.8663    4.8694   27.9238 C   0  0  0  0  0  0  0  0  0  0  0  0
   -9.0491    3.8523   26.2542 C   0  0  0  0  0  0  0  0  0  0  0  0
   -8.7661    5.9491   27.9690 C   0  0  0  0  0  0  0  0  0  0  0  0
   -9.9295    4.8502   26.2323 C   0  0  0  0  0  0  0  0  0  0  0  0
   -9.8077    5.9288   27.0933 C   0  0  0  0  0  0  0  0  0  0  0  0
   -9.0726    2.7074   25.3087 C   0  0  0  0  0  0  0  0  0  0  0  0
   -8.3249    1.2993   25.6513 Cl  0  0  0  0  0  0  0  0  0  0  0  0
   -9.8588    2.8386   24.1205 C   0  0  0  0  0  0  0  0  0  0  0  0
  -10.6797    3.8095   23.9233 C   0  0  0  0  0  0  0  0  0  0  0  0
  -10.7848    4.8616   25.0688 N   0  0  0  0  0  0  0  0  0  0  0  0
  -11.5936    4.0364   22.9388 C   0  0  0  0  0  0  0  0  0  0  0  0
  -11.1749    3.7171   21.7243 C   0  0  0  0  0  0  0  0  0  0  0  0
  -11.9855    3.8272   20.5220 C   0  0  0  0  0  0  0  0  0  0  0  0
  -13.2915    4.3272   20.7284 C   0  0  0  0  0  0  0  0  0  0  0  0
  -13.7023    4.7048   22.0097 C   0  0  0  0  0  0  0  0  0  0  0  0
  -12.8868    4.5973   23.0908 C   0  0  0  0  0  0  0  0  0  0  0  0
  -15.2794    5.3308   22.1691 Cl  0  0  0  0  0  0  0  0  0  0  0  0
   -6.9690    2.9545   27.2339 O   0  0  0  0  0  0  0  0  0  0  0  0
   -6.5674    2.5064   28.4457 C   0  0  0  0  0  0  0  0  0  0  0  0
   -5.2718    1.6380   28.1103 C   0  0  0  0  0  0  0  0  0  0  0  0
   -5.4081    0.2474   27.9712 C   0  0  0  0  0  0  0  0  0  0  0  0
   -4.3600   -0.3902   27.5347 C   0  0  0  0  0  0  0  0  0  0  0  0
   -4.3860   -1.6408   27.0087 C   0  0  0  0  0  0  0  0  0  0  0  0
   -5.3705   -2.1114   26.7704 C   0  0  0  0  0  0  0  0  0  0  0  0
   -6.6721   -1.5685   27.2106 C   0  0  0  0  0  0  0  0  0  0  0  0
   -6.6701   -0.2841   27.7165 C   0  0  0  0  0  0  0  0  0  0  0  0
   -2.9830    0.3945   27.6833 C   0  0  0  0  0  0  0  0  0  0  0  0
   -2.2421    0.1192   28.4253 O   0  0  0  0  0  0  0  0  0  0  0  0
   -2.6602    1.2634   26.6750 O   0  0  0  0  0  0  0  0  0  0  0  0
   -7.9384   -2.2863   27.0518 C   0  0  0  0  0  0  0  0  0  0  0  0
   -8.8759   -2.2062   28.0138 C   0  0  0  0  0  0  0  0  0  0  0  0
   -8.7520   -2.3874   29.1343 C   0  0  0  0  0  0  0  0  0  0  0  0
   -9.8347   -2.3365   30.1779 C   0  0  0  0  0  0  0  0  0  0  0  0
  -11.0774   -1.9128   29.7766 C   0  0  0  0  0  0  0  0  0  0  0  0
  -11.2566   -1.5441   28.4516 C   0  0  0  0  0  0  0  0  0  0  0  0
  -10.1778   -1.6571   27.5153 C   0  0  0  0  0  0  0  0  0  0  0  0
   -8.1959   -3.0895   25.9195 C   0  0  0  0  0  0  0  0  0  0  0  0
   -8.0454   -4.4056   26.0023 C   0  0  0  0  0  0  0  0  0  0  0  0
  7  8  1  0
 10 12  1  0
 16 18  1  0
  1 19  1  0
 19 20  1  0
 20 21  1  0
 21 22  1  0
 23 28  1  0
 28 29  2  0
 28 30  1  0
 26 31  1  0
 31 32  1  0
 31 38  1  0
 38 39  2  0
 12 13  2  0
 13 14  1  0
 14 15  2  0
 15 16  1  0
 16 17  2  0
 17 12  1  0
 32 33  2  0
 33 34  1  0
 34 35  2  0
 35 36  1  0
 36 37  2  0
 37 32  1  0
 22 23  2  0
 23 24  1  0
 24 25  2  0
 25 26  1  0
 26 27  2  0
 27 22  1  0
  5 11  2  0
 11 10  1  0
 10  9  2  0
  9  7  1  0
  7  3  2  0
  1  2  2  0
  2  4  1  0
  4  6  2  0
  6  5  1  0
  5  3  1  0
  3  1  1  0
M  END
$$$$
