No_6783-complexes_sdf/6BKW-FPZ/2024-09-17-14-21-01/
     RDKit          3D

 29 32  0  0  0  0  0  0  0  0999 V2000
   -7.9040    3.9820   27.1177 C   0  0  0  0  0  0  0  0  0  0  0  0
   -9.0711    4.3164   27.0630 C   0  0  0  0  0  0  0  0  0  0  0  0
  -10.0395    3.8218   27.1938 C   0  0  0  0  0  0  0  0  0  0  0  0
   -7.6424    2.5858   27.3610 C   0  0  0  0  0  0  0  0  0  0  0  0
   -8.7646    1.7754   27.4263 C   0  0  0  0  0  0  0  0  0  0  0  0
   -9.9966    2.3406   27.3957 C   0  0  0  0  0  0  0  0  0  0  0  0
  -11.2016    1.4680   27.6051 C   0  0  0  0  0  0  0  0  0  0  0  0
  -10.9539    0.2135   27.7367 C   0  0  0  0  0  0  0  0  0  0  0  0
   -9.6494   -0.3635   27.6987 C   0  0  0  0  0  0  0  0  0  0  0  0
   -8.5473    0.3833   27.6073 C   0  0  0  0  0  0  0  0  0  0  0  0
   -9.1350    5.9815   26.8421 C   0  0  0  0  0  0  0  0  0  0  0  0
   -9.0343    7.0384   28.1027 Cl  0  0  0  0  0  0  0  0  0  0  0  0
   -6.3700    2.0822   27.3541 N   0  0  0  0  0  0  0  0  0  0  0  0
   -5.5199    1.8094   28.3383 C   0  0  0  0  0  0  0  0  0  0  0  0
   -4.2549    1.0479   27.9135 C   0  0  0  0  0  0  0  0  0  0  0  0
   -3.8408    0.0672   28.9057 C   0  0  0  0  0  0  0  0  0  0  0  0
   -2.8047   -0.7967   28.5629 C   0  0  0  0  0  0  0  0  0  0  0  0
   -2.1417   -0.5614   27.3414 C   0  0  0  0  0  0  0  0  0  0  0  0
   -2.5693    0.4059   26.4734 C   0  0  0  0  0  0  0  0  0  0  0  0
   -3.6377    1.1388   26.7665 C   0  0  0  0  0  0  0  0  0  0  0  0
   -9.5312   -1.8531   27.9233 C   0  0  0  0  0  0  0  0  0  0  0  0
   -8.6087   -2.5211   27.2071 C   0  0  0  0  0  0  0  0  0  0  0  0
   -8.0391   -3.4886   27.8244 C   0  0  0  0  0  0  0  0  0  0  0  0
   -8.5601   -4.1698   28.9370 C   0  0  0  0  0  0  0  0  0  0  0  0
   -9.5336   -3.4931   29.6761 C   0  0  0  0  0  0  0  0  0  0  0  0
   -9.9507   -2.2564   29.2722 C   0  0  0  0  0  0  0  0  0  0  0  0
  -12.3439    1.8330   26.8889 C   0  0  0  0  0  0  0  0  0  0  0  0
  -12.6060    2.1853   25.9007 C   0  0  0  0  0  0  0  0  0  0  0  0
  -13.8590    2.6083   25.3691 C   0  0  0  0  0  0  0  0  0  0  0  0
  2 11  1  0
 11 12  1  0
  4 13  1  0
 13 14  1  0
  9 21  1  0
  7 27  1  0
 27 28  2  3
 28 29  1  0
 14 15  1  0
 15 16  2  0
 16 17  1  0
 17 18  2  0
 18 19  1  0
 19 20  2  0
 20 15  1  0
  1  2  2  0
  2  3  1  0
  3  6  2  0
  5  4  2  0
  4  1  1  0
  5  6  1  0
  6  7  1  0
  7  8  2  0
  8  9  1  0
  9 10  2  0
 10  5  1  0
 21 22  2  0
 22 23  1  0
 23 24  2  0
 24 25  1  0
 25 26  2  0
 26 21  1  0
M  END
$$$$
