No_695-complexes_sdf/6BKW-FPZ/2024-09-17-14-21-01/
     RDKit          3D

 22 25  0  0  0  0  0  0  0  0999 V2000
   -7.7129    4.2099   27.0854 C   0  0  0  0  0  0  0  0  0  0  0  0
   -7.7814    5.1722   27.8972 C   0  0  0  0  0  0  0  0  0  0  0  0
   -8.8776    3.8408   26.3416 C   0  0  0  0  0  0  0  0  0  0  0  0
   -9.9844    4.6492   26.4743 C   0  0  0  0  0  0  0  0  0  0  0  0
   -8.8033    6.1375   27.8728 C   0  0  0  0  0  0  0  0  0  0  0  0
   -9.9554    5.8280   27.1736 C   0  0  0  0  0  0  0  0  0  0  0  0
   -8.8740    2.6184   25.5584 C   0  0  0  0  0  0  0  0  0  0  0  0
   -9.7481    2.4811   24.4970 C   0  0  0  0  0  0  0  0  0  0  0  0
   -9.7537    1.3389   23.7601 C   0  0  0  0  0  0  0  0  0  0  0  0
   -8.7872    0.3087   24.0451 C   0  0  0  0  0  0  0  0  0  0  0  0
   -7.9652    0.4384   25.1261 C   0  0  0  0  0  0  0  0  0  0  0  0
   -7.9663    1.5885   25.9116 C   0  0  0  0  0  0  0  0  0  0  0  0
  -10.6209    1.1971   22.5956 C   0  0  0  0  0  0  0  0  0  0  0  0
  -11.9158    0.9367   22.9136 C   0  0  0  0  0  0  0  0  0  0  0  0
  -12.7511    0.9458   21.9758 N   0  0  0  0  0  0  0  0  0  0  0  0
  -12.3319    1.1138   20.6691 C   0  0  0  0  0  0  0  0  0  0  0  0
  -11.0858    1.3492   20.2611 C   0  0  0  0  0  0  0  0  0  0  0  0
  -10.1144    1.4593   21.2736 C   0  0  0  0  0  0  0  0  0  0  0  0
   -8.7871   -0.8681   23.2307 C   0  0  0  0  0  0  0  0  0  0  0  0
   -7.5580   -1.3623   22.9834 C   0  0  0  0  0  0  0  0  0  0  0  0
   -6.5923   -1.3711   24.1098 C   0  0  0  0  0  0  0  0  0  0  0  0
   -6.6812   -0.3033   25.0560 C   0  0  0  0  0  0  0  0  0  0  0  0
  3  7  1  0
  9 13  1  0
 11 22  1  0
 22 21  2  0
 21 20  1  0
 20 19  2  0
 19 10  1  0
 13 14  2  0
 14 15  1  0
 15 16  2  0
 16 17  1  0
 17 18  2  0
 18 13  1  0
  1  2  2  0
  2  5  1  0
  5  6  2  0
  6  4  1  0
  4  3  2  0
  3  1  1  0
  7  8  2  0
  8  9  1  0
  9 10  2  0
 10 11  1  0
 11 12  2  0
 12  7  1  0
M  END
$$$$
