No_6833-complexes_sdf/6BKW-FPZ/2024-09-17-14-21-01/
     RDKit          3D

  9  9  0  0  0  0  0  0  0  0999 V2000
   -7.2496    3.8871   27.4508 C   0  0  0  0  0  0  0  0  0  0  0  0
   -8.5096    4.0291   27.2770 C   0  0  0  0  0  0  0  0  0  0  0  0
   -9.2677    5.1714   27.5773 C   0  0  0  0  0  0  0  0  0  0  0  0
   -9.2765    2.8248   26.8371 C   0  0  0  0  0  0  0  0  0  0  0  0
   -8.6731    1.7312   26.5464 C   0  0  0  0  0  0  0  0  0  0  0  0
   -6.5216    2.6580   27.4010 C   0  0  0  0  0  0  0  0  0  0  0  0
   -7.2494    1.5864   26.9125 C   0  0  0  0  0  0  0  0  0  0  0  0
   -8.5606    6.4075   27.5870 C   0  0  0  0  0  0  0  0  0  0  0  0
  -10.6468    5.1200   27.9002 C   0  0  0  0  0  0  0  0  0  0  0  0
  2  3  1  0
  3  8  2  0
  3  9  1  0
  1  2  2  0
  2  4  1  0
  4  5  2  0
  5  7  1  0
  7  6  2  0
  6  1  1  0
M  END
$$$$
