No_6619-complexes_sdf/6BKW-FPZ/2024-09-17-14-21-01/
     RDKit          3D

 22 24  0  0  0  0  0  0  0  0999 V2000
   -7.7129    4.2099   27.0854 C   0  0  0  0  0  0  0  0  0  0  0  0
   -8.9133    4.4736   27.0998 C   0  0  0  0  0  0  0  0  0  0  0  0
   -9.7135    3.9633   26.0300 C   0  0  0  0  0  0  0  0  0  0  0  0
   -6.8655    4.8824   28.1822 C   0  0  0  0  0  0  0  0  0  0  0  0
   -9.2221    2.8459   25.3619 C   0  0  0  0  0  0  0  0  0  0  0  0
   -8.0164    2.2957   25.7889 C   0  0  0  0  0  0  0  0  0  0  0  0
   -7.3052    2.9474   26.8072 C   0  0  0  0  0  0  0  0  0  0  0  0
  -10.0330    2.1843   24.3790 C   0  0  0  0  0  0  0  0  0  0  0  0
   -9.7030    1.0090   23.9743 C   0  0  0  0  0  0  0  0  0  0  0  0
  -10.3930    0.3968   22.8930 C   0  0  0  0  0  0  0  0  0  0  0  0
  -11.4367    1.0884   22.2517 C   0  0  0  0  0  0  0  0  0  0  0  0
  -11.0400    2.9068   23.6054 C   0  0  0  0  0  0  0  0  0  0  0  0
  -11.7147    2.3634   22.6287 C   0  0  0  0  0  0  0  0  0  0  0  0
   -9.4615    5.8364   27.5767 C   0  0  0  0  0  0  0  0  0  0  0  0
  -12.0816    0.4681   21.2645 F   0  0  0  0  0  0  0  0  0  0  0  0
  -13.1002    3.2743   21.7307 Br  0  0  0  0  0  0  0  0  0  0  0  0
   -6.1881    2.3456   27.2042 F   0  0  0  0  0  0  0  0  0  0  0  0
   -8.6521    6.9823   27.2145 C   0  0  0  0  0  0  0  0  0  0  0  0
   -7.2685    7.0420   27.5130 C   0  0  2  0  0  0  0  0  0  0  0  0
   -6.7880    8.3411   27.0786 C   0  0  0  0  0  0  0  0  0  0  0  0
   -6.5110    6.0189   27.8428 C   0  0  0  0  0  0  0  0  0  0  0  0
  -10.0738   -0.8371   22.4705 F   0  0  0  0  0  0  0  0  0  0  0  0
  1  4  1  0
  5  8  1  0
  2 14  1  0
 11 15  1  0
 13 16  1  0
  7 17  1  0
 14 18  1  0
 18 19  1  0
 19 20  1  6
  4 21  2  0
 19 21  1  0
 10 22  1  0
  8  9  2  0
  9 10  1  0
 10 11  2  0
 11 13  1  0
 13 12  2  0
 12  8  1  0
  1  2  1  0
  2  3  2  0
  3  5  1  0
  5  6  2  0
  6  7  1  0
  7  1  2  0
M  END
$$$$
