No_6167-complexes_sdf/6BKW-FPZ/2024-09-17-14-21-01/
     RDKit          3D

 14 15  0  0  0  0  0  0  0  0999 V2000
   -7.7129    4.2099   27.0854 C   0  0  0  0  0  0  0  0  0  0  0  0
   -7.7814    5.1722   27.8972 C   0  0  0  0  0  0  0  0  0  0  0  0
   -8.8998    3.8713   26.3707 C   0  0  0  0  0  0  0  0  0  0  0  0
   -9.9938    4.6774   26.5446 C   0  0  0  0  0  0  0  0  0  0  0  0
   -8.7789    6.1536   27.9256 C   0  0  0  0  0  0  0  0  0  0  0  0
   -9.9428    5.8398   27.2296 C   0  0  0  0  0  0  0  0  0  0  0  0
   -8.9119    2.6447   25.5685 C   0  0  0  0  0  0  0  0  0  0  0  0
   -8.2454    1.6464   25.9996 O   0  0  0  0  0  0  0  0  0  0  0  0
   -9.6094    2.5662   24.4623 N   0  0  0  0  0  0  0  0  0  0  0  0
  -10.3654    3.5858   23.9463 C   0  0  0  0  0  0  0  0  0  0  0  0
  -10.7654    3.4659   22.5858 C   0  0  0  0  0  0  0  0  0  0  0  0
   -9.5215    1.4429   23.6463 C   0  0  0  0  0  0  0  0  0  0  0  0
   -9.9913    1.3661   22.3474 C   0  0  0  0  0  0  0  0  0  0  0  0
  -10.6291    2.4250   21.8372 C   0  0  0  0  0  0  0  0  0  0  0  0
  3  7  1  0
  7  8  1  0
  7  9  1  0
  9 10  1  0
  9 12  1  0
 11 14  1  0
 13 14  1  0
 10 11  1  0
 13 12  1  0
  1  2  2  0
  2  5  1  0
  5  6  2  0
  6  4  1  0
  4  3  2  0
  3  1  1  0
M  END
$$$$
