No_6155-complexes_sdf/6BKW-FPZ/2024-09-17-14-21-01/
     RDKit          3D

 27 29  0  0  0  0  0  0  0  0999 V2000
   -7.9040    3.9820   27.1177 C   0  0  0  0  0  0  0  0  0  0  0  0
   -9.0711    4.3164   27.0630 C   0  0  0  0  0  0  0  0  0  0  0  0
   -9.9692    3.7224   26.1073 C   0  0  0  0  0  0  0  0  0  0  0  0
   -6.9787    4.6761   28.1003 C   0  0  0  0  0  0  0  0  0  0  0  0
   -9.4538    2.6801   25.3673 C   0  0  0  0  0  0  0  0  0  0  0  0
   -8.1927    2.1957   25.6621 C   0  0  0  0  0  0  0  0  0  0  0  0
   -7.4333    2.8255   26.6299 C   0  0  0  0  0  0  0  0  0  0  0  0
  -10.4304    2.1414   24.3951 C   0  0  0  0  0  0  0  0  0  0  0  0
  -10.1795    1.9563   23.3622 C   0  0  0  0  0  0  0  0  0  0  0  0
  -11.0083    1.3836   22.2285 C   0  0  0  0  0  0  0  0  0  0  0  0
  -12.2837    1.1205   22.6008 C   0  0  0  0  0  0  0  0  0  0  0  0
  -11.7937    1.8613   24.7381 C   0  0  0  0  0  0  0  0  0  0  0  0
  -12.6659    1.3744   23.8740 C   0  0  0  0  0  0  0  0  0  0  0  0
   -5.8778    4.2271   28.3281 F   0  0  0  0  0  0  0  0  0  0  0  0
   -6.7922    5.9988   27.6544 F   0  0  0  0  0  0  0  0  0  0  0  0
   -7.7333    4.9131   29.2409 F   0  0  0  0  0  0  0  0  0  0  0  0
  -13.2020    0.5725   21.5752 C   0  0  0  0  0  0  0  0  0  0  0  0
  -14.3818    0.4695   21.6280 C   0  0  0  0  0  0  0  0  0  0  0  0
  -15.0555    0.9473   22.8571 C   0  0  0  0  0  0  0  0  0  0  0  0
  -14.1947    1.3383   23.9665 C   0  0  0  0  0  0  0  0  0  0  0  0
  -16.3472    0.7876   23.0794 O   0  0  0  0  0  0  0  0  0  0  0  0
  -17.2240    0.8406   22.2841 C   0  0  0  0  0  0  0  0  0  0  0  0
  -17.4541   -0.3260   21.5053 C   0  0  2  0  0  0  0  0  0  0  0  0
  -17.2977   -1.7198   22.1744 Cl  0  0  0  0  0  0  0  0  0  0  0  0
  -17.7149   -0.2622   20.1246 C   0  0  0  0  0  0  0  0  0  0  0  0
  -17.9925    0.8113   19.6931 F   0  0  0  0  0  0  0  0  0  0  0  0
  -16.6829   -0.7801   19.4194 F   0  0  0  0  0  0  0  0  0  0  0  0
  1  4  1  0
  5  8  1  0
  4 14  1  0
  4 15  1  0
  4 16  1  0
 19 21  1  0
 21 22  1  0
 22 23  1  0
 23 24  1  6
 23 25  1  0
 25 26  1  0
 25 27  1  0
 13 20  1  0
 20 19  2  0
 19 18  1  0
 18 17  2  0
 17 11  1  0
  8  9  2  0
  9 10  1  0
 10 11  2  0
 11 13  1  0
 13 12  2  0
 12  8  1  0
  1  2  2  0
  2  3  1  0
  3  5  2  0
  5  6  1  0
  6  7  2  0
  7  1  1  0
M  END
$$$$
