No_6340-complexes_sdf/6BKW-FPZ/2024-09-17-14-21-01/
     RDKit          3D

 23 26  0  0  0  0  0  0  0  0999 V2000
   -7.9040    3.9820   27.1177 C   0  0  0  0  0  0  0  0  0  0  0  0
   -9.0711    4.3164   27.0630 C   0  0  0  0  0  0  0  0  0  0  0  0
  -10.0395    3.8218   27.1938 C   0  0  0  0  0  0  0  0  0  0  0  0
   -6.6709    4.8255   27.1572 C   0  0  0  0  0  0  0  0  0  0  0  0
  -10.0466    2.3582   27.5904 C   0  0  0  0  0  0  0  0  0  0  0  0
   -8.7400    1.8381   27.6946 C   0  0  0  0  0  0  0  0  0  0  0  0
   -7.6392    2.6739   27.5295 C   0  0  0  0  0  0  0  0  0  0  0  0
  -11.2401    1.5319   27.8643 C   0  0  0  0  0  0  0  0  0  0  0  0
  -11.1981    0.2703   27.6441 C   0  0  0  0  0  0  0  0  0  0  0  0
  -12.3725    2.1968   28.4525 C   0  0  0  0  0  0  0  0  0  0  0  0
  -13.2945    1.4434   29.0605 C   0  0  0  0  0  0  0  0  0  0  0  0
  -12.2779   -0.5577   28.2076 C   0  0  0  0  0  0  0  0  0  0  0  0
  -13.3174    0.0641   28.8532 C   0  0  0  0  0  0  0  0  0  0  0  0
   -6.3134    2.0433   27.6138 C   0  0  0  0  0  0  0  0  0  0  0  0
   -6.0218    0.7736   27.4774 N   0  0  0  0  0  0  0  0  0  0  0  0
   -5.1998    2.8014   27.7619 N   0  0  0  0  0  0  0  0  0  0  0  0
   -5.4768    4.1601   27.5748 N   0  0  0  0  0  0  0  0  0  0  0  0
   -4.7932    0.2377   27.7476 C   0  0  0  0  0  0  0  0  0  0  0  0
   -4.4425   -0.8680   27.7504 C   0  0  0  0  0  0  0  0  0  0  0  0
   -3.0821   -1.3048   28.0714 C   0  0  0  0  0  0  0  0  0  0  0  0
   -2.1297   -0.3545   28.4369 C   0  0  0  0  0  0  0  0  0  0  0  0
   -2.5891    0.9952   28.4239 C   0  0  0  0  0  0  0  0  0  0  0  0
   -3.8119    1.2906   28.1629 C   0  0  0  0  0  0  0  0  0  0  0  0
  5  8  1  0
 14 15  1  0
 15 18  1  0
 18 19  2  0
 19 20  1  0
 20 21  2  0
 21 22  1  0
 22 23  2  0
 23 18  1  0
  8  9  2  0
  9 12  1  0
 12 13  2  0
 13 11  1  0
 11 10  2  0
 10  8  1  0
  1  4  1  0
  4 17  2  0
 17 16  1  0
 16 14  2  0
 14  7  1  0
  1  2  2  0
  2  3  1  0
  3  5  2  0
  5  6  1  0
  6  7  2  0
  7  1  1  0
M  END
$$$$
