No_6749-complexes_sdf/6BKW-FPZ/2024-09-17-14-21-01/
     RDKit          3D

 28 31  0  0  0  0  0  0  0  0999 V2000
   -7.7129    4.2099   27.0854 C   0  0  0  0  0  0  0  0  0  0  0  0
   -7.7814    5.1722   27.8972 C   0  0  0  0  0  0  0  0  0  0  0  0
   -8.8998    3.8713   26.3707 C   0  0  0  0  0  0  0  0  0  0  0  0
   -9.9938    4.6774   26.5446 C   0  0  0  0  0  0  0  0  0  0  0  0
   -8.7789    6.1536   27.9256 C   0  0  0  0  0  0  0  0  0  0  0  0
   -9.9428    5.8398   27.2296 C   0  0  0  0  0  0  0  0  0  0  0  0
   -8.9208    2.6404   25.5721 C   0  0  0  0  0  0  0  0  0  0  0  0
   -8.3287    1.4696   26.1305 C   0  0  0  0  0  0  0  0  0  0  0  0
   -8.1682    0.3373   25.4092 C   0  0  0  0  0  0  0  0  0  0  0  0
   -7.5159   -0.7444   25.9711 C   0  0  0  0  0  0  0  0  0  0  0  0
   -7.0102   -0.6941   27.2987 C   0  0  0  0  0  0  0  0  0  0  0  0
   -7.1249    0.5259   27.9772 C   0  0  0  0  0  0  0  0  0  0  0  0
   -7.7135    1.6020   27.4546 C   0  0  0  0  0  0  0  0  0  0  0  0
  -11.1247    4.1391   25.8012 C   0  0  0  0  0  0  0  0  0  0  0  0
  -11.1646    4.2059   24.4808 C   0  0  0  0  0  0  0  0  0  0  0  0
  -12.2253    3.7314   23.7277 C   0  0  0  0  0  0  0  0  0  0  0  0
  -13.3672    3.3799   24.3742 C   0  0  0  0  0  0  0  0  0  0  0  0
  -12.3195    3.8716   26.3732 C   0  0  0  0  0  0  0  0  0  0  0  0
  -12.3447    3.8976   27.9063 C   0  0  2  0  0  0  0  0  0  0  0  0
  -13.4284    3.4758   25.7054 C   0  0  0  0  0  0  0  0  0  0  0  0
  -11.6444    3.0405   28.6900 C   0  0  0  0  0  0  0  0  0  0  0  0
  -13.3600    4.7937   28.4946 C   0  0  0  0  0  0  0  0  0  0  0  0
  -12.1512    1.7736   29.0012 C   0  0  0  0  0  0  0  0  0  0  0  0
  -13.2670    1.5712   29.6439 C   0  0  0  0  0  0  0  0  0  0  0  0
  -13.7449    0.2461   29.8664 C   0  0  0  0  0  0  0  0  0  0  0  0
  -12.9296   -0.8040   29.4561 C   0  0  0  0  0  0  0  0  0  0  0  0
  -11.7363   -0.6294   28.7410 C   0  0  0  0  0  0  0  0  0  0  0  0
  -11.2955    0.6789   28.5172 C   0  0  0  0  0  0  0  0  0  0  0  0
  3  7  1  0
  7  8  1  0
  4 14  1  0
 18 19  1  0
 19 21  1  0
 19 22  1  6
 21 23  1  0
 23 24  2  0
 24 25  1  0
 25 26  2  0
 26 27  1  0
 27 28  2  0
 28 23  1  0
  8  9  2  0
  9 10  1  0
 10 11  2  0
 11 12  1  0
 12 13  2  0
 13  8  1  0
  1  2  2  0
  2  5  1  0
  5  6  2  0
  6  4  1  0
  4  3  2  0
  3  1  1  0
 14 15  2  0
 15 16  1  0
 16 17  2  0
 17 20  1  0
 20 18  2  0
 18 14  1  0
M  END
$$$$
