No_6790-complexes_sdf/6BKW-FPZ/2024-09-17-14-21-01/
     RDKit          3D

 18 20  0  0  0  0  0  0  0  0999 V2000
   -7.9040    3.9820   27.1177 C   0  0  0  0  0  0  0  0  0  0  0  0
   -7.8663    4.8694   27.9238 C   0  0  0  0  0  0  0  0  0  0  0  0
   -9.0491    3.8523   26.2542 C   0  0  0  0  0  0  0  0  0  0  0  0
   -9.7161    4.8785   25.9890 C   0  0  0  0  0  0  0  0  0  0  0  0
   -8.5086    6.0982   27.7096 C   0  0  0  0  0  0  0  0  0  0  0  0
   -9.5239    6.1123   26.7949 C   0  0  0  0  0  0  0  0  0  0  0  0
   -7.0759    2.8490   27.5847 N   0  0  0  0  0  0  0  0  0  0  0  0
   -7.4727    1.5712   27.5278 C   0  0  0  0  0  0  0  0  0  0  0  0
   -6.4763    0.5869   27.7332 C   0  0  0  0  0  0  0  0  0  0  0  0
   -5.2354    1.2158   28.0874 C   0  0  2  0  0  0  0  0  0  0  0  0
   -5.6807    2.9073   27.7916 C   0  0  0  0  0  0  0  0  0  0  0  0
   -3.9802    0.9756   28.4068 C   0  0  0  0  0  0  0  0  0  0  0  0
   -3.8491   -0.2386   29.1044 C   0  0  0  0  0  0  0  0  0  0  0  0
   -4.0530   -0.1668   30.4292 C   0  0  0  0  0  0  0  0  0  0  0  0
   -3.9670   -1.3210   31.3137 C   0  0  0  0  0  0  0  0  0  0  0  0
   -3.7557   -2.5256   30.6563 C   0  0  0  0  0  0  0  0  0  0  0  0
   -3.5560   -2.6088   29.3310 C   0  0  0  0  0  0  0  0  0  0  0  0
   -3.5924   -1.4457   28.5279 C   0  0  0  0  0  0  0  0  0  0  0  0
  1  7  1  0
  7  8  1  0
  8  9  2  0
  9 10  1  0
  7 11  1  0
 10 11  1  0
 10 12  1  6
 12 13  1  0
 13 14  2  0
 14 15  1  0
 15 16  2  0
 16 17  1  0
 17 18  2  0
 18 13  1  0
  1  2  2  0
  2  5  1  0
  5  6  2  0
  6  4  1  0
  4  3  2  0
  3  1  1  0
M  END
$$$$
