No_6041-complexes_sdf/6BKW-FPZ/2024-09-17-14-21-01/
     RDKit          3D

 15 16  0  0  0  0  0  0  0  0999 V2000
   -7.2496    3.8871   27.4508 C   0  0  0  0  0  0  0  0  0  0  0  0
   -7.6161    2.7143   27.1523 C   0  0  0  0  0  0  0  0  0  0  0  0
   -7.1619    1.8631   27.5232 C   0  0  0  0  0  0  0  0  0  0  0  0
   -8.0384    5.0866   27.3232 C   0  0  0  0  0  0  0  0  0  0  0  0
   -9.1208    5.0561   26.6921 C   0  0  0  0  0  0  0  0  0  0  0  0
   -8.9843    2.7165   26.6396 C   0  0  0  0  0  0  0  0  0  0  0  0
   -9.6839    3.8262   26.3379 C   0  0  0  0  0  0  0  0  0  0  0  0
   -6.9916    0.4375   26.9332 Br  0  0  0  0  0  0  0  0  0  0  0  0
  -10.9595    3.7904   25.6101 C   0  0  0  0  0  0  0  0  0  0  0  0
  -12.1335    3.4469   26.2392 C   0  0  0  0  0  0  0  0  0  0  0  0
  -12.0927    3.3524   27.6869 C   0  0  0  0  0  0  0  0  0  0  0  0
  -13.2999    3.0840   28.4281 C   0  0  0  0  0  0  0  0  0  0  0  0
  -14.2883    3.0494   28.0120 C   0  0  0  0  0  0  0  0  0  0  0  0
  -14.5090    3.2586   26.5799 C   0  0  0  0  0  0  0  0  0  0  0  0
  -13.4260    3.5416   25.7274 C   0  0  0  0  0  0  0  0  0  0  0  0
  2  3  1  0
  3  8  1  0
  7  9  1  0
  9 10  1  0
 10 11  2  0
 11 12  1  0
 12 13  2  0
 13 14  1  0
 14 15  2  0
 15 10  1  0
  1  2  2  0
  2  6  1  0
  6  7  2  0
  7  5  1  0
  5  4  2  0
  4  1  1  0
M  END
$$$$
