No_6704-complexes_sdf/6BKW-FPZ/2024-09-17-14-21-01/
     RDKit          3D

 13 14  0  0  0  0  0  0  0  0999 V2000
   -7.9040    3.9820   27.1177 C   0  0  0  0  0  0  0  0  0  0  0  0
   -9.0711    4.3164   27.0630 C   0  0  0  0  0  0  0  0  0  0  0  0
   -9.5294    5.4517   27.7215 C   0  0  0  0  0  0  0  0  0  0  0  0
   -6.9328    4.7309   27.8881 C   0  0  0  0  0  0  0  0  0  0  0  0
   -7.3377    5.8421   28.5537 C   0  0  0  0  0  0  0  0  0  0  0  0
   -8.6868    6.1767   28.0904 C   0  0  0  0  0  0  0  0  0  0  0  0
  -10.0430    3.4057   26.3124 C   0  0  0  0  0  0  0  0  0  0  0  0
  -10.6083    3.5705   25.4793 C   0  0  0  0  0  0  0  0  0  0  0  0
  -11.4046    2.7084   24.6447 C   0  0  0  0  0  0  0  0  0  0  0  0
  -11.3791    1.4178   25.0331 C   0  0  0  0  0  0  0  0  0  0  0  0
  -10.0120    1.9205   26.6525 C   0  0  0  0  0  0  0  0  0  0  0  0
  -10.6892    0.9873   26.0871 C   0  0  0  0  0  0  0  0  0  0  0  0
  -12.1860    0.5773   24.2857 F   0  0  0  0  0  0  0  0  0  0  0  0
  2  7  1  0
 10 13  1  0
  7  8  2  0
  8  9  1  0
  9 10  2  0
 10 12  1  0
 12 11  2  0
 11  7  1  0
  1  2  2  0
  2  3  1  0
  3  6  2  0
  6  5  1  0
  5  4  2  0
  4  1  1  0
M  END
$$$$
