No_6305-complexes_sdf/6BKW-FPZ/2024-09-17-14-21-01/
     RDKit          3D

 19 20  0  0  0  0  0  0  0  0999 V2000
   -7.9040    3.9820   27.1177 C   0  0  0  0  0  0  0  0  0  0  0  0
   -7.8663    4.8694   27.9238 C   0  0  0  0  0  0  0  0  0  0  0  0
   -9.0501    3.8017   26.2617 C   0  0  0  0  0  0  0  0  0  0  0  0
   -9.1826    2.7026   25.3575 C   0  0  0  0  0  0  0  0  0  0  0  0
   -8.6940    6.0131   27.8614 C   0  0  0  0  0  0  0  0  0  0  0  0
   -9.9755    4.8547   26.2361 C   0  0  0  0  0  0  0  0  0  0  0  0
   -9.7463    5.9398   27.0364 C   0  0  0  0  0  0  0  0  0  0  0  0
  -10.1005    1.8694   25.7051 C   0  0  0  0  0  0  0  0  0  0  0  0
  -10.1112    0.7167   25.0387 C   0  0  0  0  0  0  0  0  0  0  0  0
  -11.1597    0.1123   24.7633 C   0  0  0  0  0  0  0  0  0  0  0  0
  -12.3747    0.3442   25.5079 C   0  0  0  0  0  0  0  0  0  0  0  0
  -12.3906    1.5175   26.2548 C   0  0  0  0  0  0  0  0  0  0  0  0
  -11.2925    2.3410   26.3337 C   0  0  0  0  0  0  0  0  0  0  0  0
   -7.0305    2.8819   27.2315 N   0  0  0  0  0  0  0  0  0  0  0  0
   -7.2566    1.5599   27.4510 C   0  0  1  0  0  0  0  0  0  0  0  0
   -8.3929    1.1762   27.5495 F   0  0  0  0  0  0  0  0  0  0  0  0
   -6.1570    0.6997   27.4055 C   0  0  0  0  0  0  0  0  0  0  0  0
   -5.0678    1.1776   27.5107 F   0  0  0  0  0  0  0  0  0  0  0  0
   -6.1846   -0.1058   26.2919 F   0  0  0  0  0  0  0  0  0  0  0  0
  3  4  1  0
  4  8  1  0
  1 14  1  0
 14 15  1  0
 15 16  1  6
 15 17  1  0
 17 18  1  0
 17 19  1  0
  8  9  2  0
  9 10  1  0
 10 11  2  0
 11 12  1  0
 12 13  2  0
 13  8  1  0
  1  2  2  0
  2  5  1  0
  5  7  2  0
  7  6  1  0
  6  3  2  0
  3  1  1  0
M  END
$$$$
