No_6182-complexes_sdf/6BKW-FPZ/2024-09-17-14-21-01/
     RDKit          3D

 16 17  0  0  0  0  0  0  0  0999 V2000
   -7.2496    3.8871   27.4508 C   0  0  0  0  0  0  0  0  0  0  0  0
   -7.6161    2.7143   27.1523 C   0  0  0  0  0  0  0  0  0  0  0  0
   -8.8302    2.4659   26.5056 C   0  0  0  0  0  0  0  0  0  0  0  0
   -8.1584    5.0090   27.3234 C   0  0  0  0  0  0  0  0  0  0  0  0
   -9.3788    4.7965   26.7695 C   0  0  0  0  0  0  0  0  0  0  0  0
   -9.7028    3.5649   26.3276 C   0  0  0  0  0  0  0  0  0  0  0  0
   -6.8003    1.6684   27.3622 F   0  0  0  0  0  0  0  0  0  0  0  0
   -7.7380    6.2294   27.7219 F   0  0  0  0  0  0  0  0  0  0  0  0
  -11.0226    3.3679   25.6699 C   0  0  0  0  0  0  0  0  0  0  0  0
  -11.3254    2.2314   24.9617 C   0  0  0  0  0  0  0  0  0  0  0  0
  -10.3366    1.2440   24.9009 C   0  0  0  0  0  0  0  0  0  0  0  0
   -9.1379    1.2871   25.7100 C   0  0  0  0  0  0  0  0  0  0  0  0
  -10.6310   -0.0766   24.2833 C   0  0  0  0  0  0  0  0  0  0  0  0
  -11.0978    0.0781   23.2491 F   0  0  0  0  0  0  0  0  0  0  0  0
   -9.4636   -0.7106   24.2114 F   0  0  0  0  0  0  0  0  0  0  0  0
  -11.3950   -0.7804   25.0780 F   0  0  0  0  0  0  0  0  0  0  0  0
  2  7  1  0
  4  8  1  0
 11 13  1  0
 13 14  1  0
 13 15  1  0
 13 16  1  0
  1  2  2  0
  2  3  1  0
  6  5  1  0
  5  4  2  0
  4  1  1  0
  3  6  2  0
  6  9  1  0
  9 10  2  0
 10 11  1  0
 11 12  2  0
 12  3  1  0
M  END
$$$$
