No_6283-complexes_sdf/6BKW-FPZ/2024-09-17-14-21-01/
     RDKit          3D

 24 26  0  0  0  0  0  0  0  0999 V2000
   -7.9040    3.9820   27.1177 C   0  0  0  0  0  0  0  0  0  0  0  0
   -8.2057    2.8231   26.8733 C   0  0  0  0  0  0  0  0  0  0  0  0
   -8.7695    5.0740   26.7916 C   0  0  0  0  0  0  0  0  0  0  0  0
   -9.9618    4.7598   26.1630 C   0  0  0  0  0  0  0  0  0  0  0  0
   -9.4200    2.4524   26.2849 C   0  0  0  0  0  0  0  0  0  0  0  0
  -10.2590    3.4815   25.9250 C   0  0  0  0  0  0  0  0  0  0  0  0
   -8.1837    6.4186   27.1101 C   0  0  0  0  0  0  0  0  0  0  0  0
   -8.9628    7.5319   26.8417 N   0  0  0  0  0  0  0  0  0  0  0  0
   -7.1002    6.4915   27.7339 O   0  0  0  0  0  0  0  0  0  0  0  0
   -7.2894    1.6445   27.2639 C   0  0  0  0  0  0  0  0  0  0  0  0
   -7.6052    0.3085   27.1288 C   0  0  0  0  0  0  0  0  0  0  0  0
   -6.6661   -0.6067   27.4308 C   0  0  0  0  0  0  0  0  0  0  0  0
   -5.4119   -0.2138   27.9724 C   0  0  0  0  0  0  0  0  0  0  0  0
   -5.1275    1.1375   28.1528 C   0  0  0  0  0  0  0  0  0  0  0  0
   -5.9700    2.0458   27.7866 C   0  0  0  0  0  0  0  0  0  0  0  0
   -4.4285   -1.2652   28.3973 C   0  0  0  0  0  0  0  0  0  0  0  0
   -3.3291   -1.2213   27.9102 C   0  0  0  0  0  0  0  0  0  0  0  0
   -2.2307   -2.1558   28.3099 C   0  0  0  0  0  0  0  0  0  0  0  0
   -2.5636   -3.0740   29.2704 C   0  0  0  0  0  0  0  0  0  0  0  0
   -4.6733   -2.1606   29.4552 C   0  0  0  0  0  0  0  0  0  0  0  0
   -3.7976   -3.0413   29.9008 C   0  0  0  0  0  0  0  0  0  0  0  0
  -11.5123    3.1868   25.1840 C   0  0  0  0  0  0  0  0  0  0  0  0
  -12.6292    2.9657   25.8441 C   0  0  0  0  0  0  0  0  0  0  0  0
  -13.8616    2.7347   25.1714 C   0  0  0  0  0  0  0  0  0  0  0  0
  3  7  1  0
  7  8  1  0
  7  9  2  0
  2 10  1  0
 13 16  1  0
  6 22  1  0
 22 23  2  3
 23 24  1  0
  1  2  2  0
  2  5  1  0
  5  6  2  0
  6  4  1  0
  4  3  2  0
  3  1  1  0
 10 11  2  0
 11 12  1  0
 12 13  2  0
 13 14  1  0
 14 15  2  0
 15 10  1  0
 16 17  2  0
 17 18  1  0
 18 19  2  0
 19 21  1  0
 21 20  2  0
 20 16  1  0
M  END
$$$$
