No_6868-complexes_sdf/6BKW-FPZ/2024-09-17-14-21-01/
     RDKit          3D

 33 36  0  0  0  0  0  0  0  0999 V2000
   -7.2496    3.8871   27.4508 C   0  0  0  0  0  0  0  0  0  0  0  0
   -8.5096    4.0291   27.2770 C   0  0  0  0  0  0  0  0  0  0  0  0
   -9.2669    5.1645   27.5845 C   0  0  0  0  0  0  0  0  0  0  0  0
   -8.4566    6.3212   27.8001 C   0  0  0  0  0  0  0  0  0  0  0  0
   -6.4921    5.0197   27.7961 C   0  0  0  0  0  0  0  0  0  0  0  0
   -7.1702    6.2351   27.9936 C   0  0  0  0  0  0  0  0  0  0  0  0
   -9.4921    2.9050   27.0139 C   0  0  0  0  0  0  0  0  0  0  0  0
  -10.4566    2.5117   27.7613 C   0  0  0  0  0  0  0  0  0  0  0  0
  -11.1527    1.3185   27.6633 C   0  0  0  0  0  0  0  0  0  0  0  0
  -10.6861    0.4336   26.6922 C   0  0  0  0  0  0  0  0  0  0  0  0
   -8.8638    1.7831   26.3051 C   0  0  0  0  0  0  0  0  0  0  0  0
   -9.5172    0.6728   26.0462 C   0  0  0  0  0  0  0  0  0  0  0  0
   -8.9759   -0.3126   25.0608 C   0  0  0  0  0  0  0  0  0  0  0  0
   -8.9936    0.0893   23.7733 C   0  0  0  0  0  0  0  0  0  0  0  0
   -8.4269   -0.7583   22.7213 C   0  0  0  0  0  0  0  0  0  0  0  0
   -7.7883   -1.9250   23.0685 C   0  0  0  0  0  0  0  0  0  0  0  0
   -8.3183   -1.4675   25.4144 C   0  0  0  0  0  0  0  0  0  0  0  0
   -7.7679   -2.2754   24.4341 C   0  0  0  0  0  0  0  0  0  0  0  0
   -9.5417    1.3832   23.2262 C   0  0  0  0  0  0  0  0  0  0  0  0
  -10.0056    2.3906   24.0357 C   0  0  0  0  0  0  0  0  0  0  0  0
  -10.5294    3.5679   23.2910 C   0  0  0  0  0  0  0  0  0  0  0  0
  -10.5677    3.6474   21.9827 C   0  0  0  0  0  0  0  0  0  0  0  0
   -9.5140    1.4701   21.8169 C   0  0  0  0  0  0  0  0  0  0  0  0
  -10.0420    2.6498   21.2151 C   0  0  0  0  0  0  0  0  0  0  0  0
  -11.1004    4.7231   24.1512 C   0  0  0  0  0  0  0  0  0  0  0  0
  -12.4208    1.0344   28.3830 C   0  0  0  0  0  0  0  0  0  0  0  0
  -13.4484    0.9628   27.8015 N   0  0  0  0  0  0  0  0  0  0  0  0
  -14.4368    1.4495   27.7757 C   0  0  0  0  0  0  0  0  0  0  0  0
  -14.7413    2.2794   28.7561 C   0  0  0  0  0  0  0  0  0  0  0  0
  -15.5198    3.4143   28.8312 C   0  0  0  0  0  0  0  0  0  0  0  0
  -15.6316    4.3109   29.9515 C   0  0  0  0  0  0  0  0  0  0  0  0
  -14.8206    4.0157   31.0978 C   0  0  0  0  0  0  0  0  0  0  0  0
  -13.9650    2.9215   31.0741 C   0  0  0  0  0  0  0  0  0  0  0  0
  2  7  1  0
 12 13  1  0
 14 19  1  0
 21 25  1  0
  9 26  1  0
 26 27  1  0
 27 28  1  0
 28 29  2  3
 29 30  1  0
 30 31  2  3
 31 32  1  0
 32 33  2  0
  7  8  2  0
  8  9  1  0
  9 10  2  0
 10 12  1  0
 12 11  2  0
 11  7  1  0
  1  2  2  0
  2  3  1  0
  3  4  2  0
  4  6  1  0
  6  5  2  0
  5  1  1  0
 13 14  1  0
 14 15  2  0
 15 16  1  0
 16 18  2  0
 18 17  1  0
 17 13  2  0
 19 20  2  0
 20 21  1  0
 21 22  2  0
 22 24  1  0
 24 23  2  0
 23 19  1  0
M  END
$$$$
