No_6477-complexes_sdf/6BKW-FPZ/2024-09-17-14-21-01/
     RDKit          3D

 28 31  0  0  0  0  0  0  0  0999 V2000
   -7.2496    3.8871   27.4508 C   0  0  0  0  0  0  0  0  0  0  0  0
   -7.6161    2.7143   27.1523 C   0  0  0  0  0  0  0  0  0  0  0  0
   -7.1619    1.8631   27.5232 C   0  0  0  0  0  0  0  0  0  0  0  0
   -8.0384    5.0867   27.3232 C   0  0  0  0  0  0  0  0  0  0  0  0
   -9.1223    5.1097   26.4856 C   0  0  0  0  0  0  0  0  0  0  0  0
   -8.8783    2.5973   26.4116 C   0  0  0  0  0  0  0  0  0  0  0  0
   -9.5900    3.8078   26.0949 C   0  0  0  0  0  0  0  0  0  0  0  0
   -5.7266    1.8526   28.0341 C   0  0  0  0  0  0  0  0  0  0  0  0
   -5.0644    0.5725   28.3727 C   0  0  0  0  0  0  0  0  0  0  0  0
   -5.7310   -0.5768   28.2789 C   0  0  0  0  0  0  0  0  0  0  0  0
   -7.3964    0.3623   27.5110 C   0  0  0  0  0  0  0  0  0  0  0  0
   -6.9263   -0.6713   27.8786 C   0  0  0  0  0  0  0  0  0  0  0  0
   -7.4935    6.4317   27.7949 C   0  0  0  0  0  0  0  0  0  0  0  0
   -3.6385    0.7925   28.9292 C   0  0  0  0  0  0  0  0  0  0  0  0
   -2.8680   -0.4836   28.8770 C   0  0  0  0  0  0  0  0  0  0  0  0
   -3.3676   -1.4877   29.1098 C   0  0  0  0  0  0  0  0  0  0  0  0
   -4.6380   -1.6675   28.6903 C   0  0  0  0  0  0  0  0  0  0  0  0
  -10.7764    3.7424   25.2056 C   0  0  1  0  0  0  0  0  0  0  0  0
  -10.7250    3.9372   23.8428 C   0  0  0  0  0  0  0  0  0  0  0  0
   -9.7443    3.9780   23.1057 C   0  0  0  0  0  0  0  0  0  0  0  0
   -9.8494    4.1332   21.6707 C   0  0  0  0  0  0  0  0  0  0  0  0
  -11.8909    4.5126   23.2387 C   0  0  0  0  0  0  0  0  0  0  0  0
  -12.1274    4.2218   22.1313 C   0  0  0  0  0  0  0  0  0  0  0  0
  -11.0536    4.3074   21.1389 C   0  0  0  0  0  0  0  0  0  0  0  0
  -11.9189    3.1790   25.8898 C   0  0  0  0  0  0  0  0  0  0  0  0
  -12.6972    4.1273   26.4252 C   0  0  0  0  0  0  0  0  0  0  0  0
  -13.8975    3.7864   27.2068 C   0  0  0  0  0  0  0  0  0  0  0  0
  -14.2193    2.4913   27.1877 C   0  0  0  0  0  0  0  0  0  0  0  0
  2  3  1  0
  4 13  1  0
 18  7  1  6
 18 19  1  0
 18 25  1  0
 25 26  2  3
 26 27  1  0
 27 28  2  0
 19 20  2  0
 20 21  1  0
 21 24  2  0
 24 23  1  0
 23 22  2  0
 22 19  1  0
  3  8  2  0
  8  9  1  0
 10 12  1  0
 12 11  2  0
 11  3  1  0
  1  2  2  0
  2  6  1  0
  6  7  2  0
  7  5  1  0
  5  4  2  0
  4  1  1  0
  9 10  2  0
 10 17  1  0
 17 16  2  0
 16 15  1  0
 15 14  2  0
 14  9  1  0
M  END
$$$$
