No_6245-complexes_sdf/6BKW-FPZ/2024-09-17-14-21-01/
     RDKit          3D

 31 35  0  0  0  0  0  0  0  0999 V2000
   -7.9040    3.9820   27.1177 C   0  0  0  0  0  0  0  0  0  0  0  0
   -7.8663    4.8694   27.9238 C   0  0  0  0  0  0  0  0  0  0  0  0
   -7.4547    2.7080   27.4594 C   0  0  0  0  0  0  0  0  0  0  0  0
   -8.7044    6.0412   27.8492 C   0  0  0  0  0  0  0  0  0  0  0  0
   -7.9501    1.5743   26.8848 C   0  0  1  0  0  0  0  0  0  0  0  0
   -8.8773    1.7289   25.8707 C   0  0  0  0  0  0  0  0  0  0  0  0
   -9.3953    2.9512   25.5360 C   0  0  0  0  0  0  0  0  0  0  0  0
   -8.9468    4.1059   26.2110 C   0  0  0  0  0  0  0  0  0  0  0  0
   -9.5724    5.3382   26.1918 C   0  0  0  0  0  0  0  0  0  0  0  0
   -9.3757    6.3661   26.9182 N   0  0  0  0  0  0  0  0  0  0  0  0
   -7.3364    0.2684   27.1358 C   0  0  0  0  0  0  0  0  0  0  0  0
   -6.0141    0.1818   27.5969 C   0  0  0  0  0  0  0  0  0  0  0  0
   -5.4051   -0.9233   27.9023 C   0  0  0  0  0  0  0  0  0  0  0  0
   -6.1373   -2.1057   27.8316 C   0  0  0  0  0  0  0  0  0  0  0  0
   -7.9021   -0.9722   27.1529 C   0  0  0  0  0  0  0  0  0  0  0  0
   -7.4008   -2.1042   27.4763 C   0  0  0  0  0  0  0  0  0  0  0  0
  -10.3533    3.0597   24.4554 C   0  0  0  0  0  0  0  0  0  0  0  0
  -10.3230    2.3696   23.4173 C   0  0  0  0  0  0  0  0  0  0  0  0
  -11.1947    2.4874   22.3348 C   0  0  0  0  0  0  0  0  0  0  0  0
  -12.0417    3.5747   22.2799 C   0  0  0  0  0  0  0  0  0  0  0  0
  -12.0469    4.4424   23.3493 C   0  0  0  0  0  0  0  0  0  0  0  0
  -11.2136    4.2908   24.4095 C   0  0  0  0  0  0  0  0  0  0  0  0
   -3.9739   -0.8890   28.4216 C   0  0  1  0  0  0  0  0  0  0  0  0
   -2.9847   -1.2555   27.5194 C   0  0  0  0  0  0  0  0  0  0  0  0
   -3.6569   -0.4217   29.7636 C   0  0  0  0  0  0  0  0  0  0  0  0
   -2.8624   -1.2941   30.5573 C   0  0  0  0  0  0  0  0  0  0  0  0
   -2.7651   -0.8275   31.9187 C   0  0  0  0  0  0  0  0  0  0  0  0
   -2.0326   -1.6249   32.8702 C   0  0  0  0  0  0  0  0  0  0  0  0
   -1.2797   -2.6638   32.3914 C   0  0  0  0  0  0  0  0  0  0  0  0
   -1.3355   -2.9895   31.0561 C   0  0  0  0  0  0  0  0  0  0  0  0
   -2.0594   -2.2697   30.1660 C   0  0  0  0  0  0  0  0  0  0  0  0
  1  3  1  0
  3  5  1  0
  5  6  1  0
  6  7  1  0
  7  8  1  0
  5 11  1  6
  7 17  1  0
 13 23  1  0
 23 24  1  6
 23 25  1  0
 25 26  1  0
  1  2  2  0
  2  4  1  0
  4 10  2  0
 10  9  1  0
  9  8  2  0
  8  1  1  0
 11 12  2  0
 12 13  1  0
 13 14  2  0
 14 16  1  0
 16 15  2  0
 15 11  1  0
 26 27  2  0
 27 28  1  0
 28 29  2  0
 29 30  1  0
 30 31  2  0
 31 26  1  0
 17 18  2  0
 18 19  1  0
 19 20  2  0
 20 21  1  0
 21 22  2  0
 22 17  1  0
M  END
$$$$
