No_6239-complexes_sdf/6BKW-FPZ/2024-09-17-14-21-01/
     RDKit          3D

 22 23  0  0  0  0  0  0  0  0999 V2000
   -7.2496    3.8871   27.4508 C   0  0  0  0  0  0  0  0  0  0  0  0
   -7.9379    4.9063   27.8518 C   0  0  0  0  0  0  0  0  0  0  0  0
   -9.3376    4.8647   27.7795 C   0  0  0  0  0  0  0  0  0  0  0  0
   -7.8544    2.6294   27.0414 C   0  0  0  0  0  0  0  0  0  0  0  0
   -9.2852    2.6570   27.0666 C   0  0  0  0  0  0  0  0  0  0  0  0
  -10.0126    3.7528   27.4890 C   0  0  0  0  0  0  0  0  0  0  0  0
   -9.9609    1.3640   26.7239 C   0  0  0  0  0  0  0  0  0  0  0  0
  -10.7586    0.8639   27.5578 C   0  0  0  0  0  0  0  0  0  0  0  0
  -11.2814   -0.4340   27.5091 C   0  0  0  0  0  0  0  0  0  0  0  0
  -10.9059   -1.1595   26.4078 C   0  0  0  0  0  0  0  0  0  0  0  0
   -9.4071    0.5835   25.6899 C   0  0  0  0  0  0  0  0  0  0  0  0
   -9.9588   -0.6711   25.5003 C   0  0  0  0  0  0  0  0  0  0  0  0
   -7.3202    6.0857   28.1589 O   0  0  0  0  0  0  0  0  0  0  0  0
  -11.7209    3.6885   27.5588 Cl  0  0  0  0  0  0  0  0  0  0  0  0
  -11.3964   -2.3629   26.1934 F   0  0  0  0  0  0  0  0  0  0  0  0
  -12.1751   -0.9280   28.3855 O   0  0  0  0  0  0  0  0  0  0  0  0
  -12.9134   -0.0948   29.1709 C   0  0  1  0  0  0  0  0  0  0  0  0
  -14.3246   -0.1470   28.9655 C   0  0  0  0  0  0  0  0  0  0  0  0
  -14.9048    0.6742   29.1663 F   0  0  0  0  0  0  0  0  0  0  0  0
  -14.6310   -1.2963   29.7411 F   0  0  0  0  0  0  0  0  0  0  0  0
  -14.5189   -0.6142   27.6416 F   0  0  0  0  0  0  0  0  0  0  0  0
  -12.5228   -0.3296   30.5227 F   0  0  0  0  0  0  0  0  0  0  0  0
  5  7  1  0
  2 13  1  0
  6 14  1  0
 10 15  1  0
  9 16  1  0
 16 17  1  0
 17 18  1  0
 18 19  1  0
 18 20  1  0
 18 21  1  0
 17 22  1  1
  7  8  2  0
  8  9  1  0
  9 10  2  0
 10 12  1  0
 12 11  2  0
 11  7  1  0
  1  2  2  0
  2  3  1  0
  3  6  2  0
  6  5  1  0
  5  4  2  0
  4  1  1  0
M  END
$$$$
