No_6461-complexes_sdf/6BKW-FPZ/2024-09-17-14-21-01/
     RDKit          3D

 26 28  0  0  0  0  0  0  0  0999 V2000
   -7.7129    4.2099   27.0854 C   0  0  0  0  0  0  0  0  0  0  0  0
   -7.7814    5.1722   27.8972 C   0  0  0  0  0  0  0  0  0  0  0  0
   -8.8776    3.8408   26.3416 C   0  0  0  0  0  0  0  0  0  0  0  0
   -9.9844    4.6492   26.4743 C   0  0  0  0  0  0  0  0  0  0  0  0
   -8.8033    6.1375   27.8728 C   0  0  0  0  0  0  0  0  0  0  0  0
   -9.9554    5.8280   27.1736 C   0  0  0  0  0  0  0  0  0  0  0  0
   -8.8752    2.6155   25.5663 C   0  0  0  0  0  0  0  0  0  0  0  0
   -9.7674    2.4672   24.5176 C   0  0  0  0  0  0  0  0  0  0  0  0
   -9.7868    1.3139   23.7963 C   0  0  0  0  0  0  0  0  0  0  0  0
   -8.8124    0.2939   24.0686 C   0  0  0  0  0  0  0  0  0  0  0  0
   -7.9672    0.4354   25.1370 C   0  0  0  0  0  0  0  0  0  0  0  0
   -7.9674    1.5907   25.9153 C   0  0  0  0  0  0  0  0  0  0  0  0
   -8.8174   -0.9309   23.2438 C   0  0  0  0  0  0  0  0  0  0  0  0
   -9.5571   -1.0575   22.2035 C   0  0  0  0  0  0  0  0  0  0  0  0
   -9.5324   -2.2171   21.4018 C   0  0  0  0  0  0  0  0  0  0  0  0
   -8.5668   -3.1828   21.6641 C   0  0  0  0  0  0  0  0  0  0  0  0
   -7.7033   -3.0168   22.6906 C   0  0  0  0  0  0  0  0  0  0  0  0
   -7.7526   -1.9066   23.5043 C   0  0  0  0  0  0  0  0  0  0  0  0
   -6.6587    5.6040   28.6049 O   0  0  0  0  0  0  0  0  0  0  0  0
  -10.4308   -2.3932   20.2313 C   0  0  0  0  0  0  0  0  0  0  0  0
  -10.2116   -2.7788   19.2294 O   0  0  0  0  0  0  0  0  0  0  0  0
  -11.6260   -1.8852   20.3699 O   0  0  0  0  0  0  0  0  0  0  0  0
  -12.4987   -1.7574   19.5725 C   0  0  0  0  0  0  0  0  0  0  0  0
  -13.8656   -1.3681   19.9555 C   0  0  0  0  0  0  0  0  0  0  0  0
  -14.1340   -1.0277   21.5944 Br  0  0  0  0  0  0  0  0  0  0  0  0
  -14.8904   -1.3570   19.1426 O   0  0  0  0  0  0  0  0  0  0  0  0
  3  7  1  0
 10 13  1  0
  2 19  1  0
 15 20  1  0
 20 21  2  0
 20 22  1  0
 22 23  1  0
 23 24  1  0
 24 25  1  0
 24 26  2  0
 13 14  2  0
 14 15  1  0
 15 16  2  0
 16 17  1  0
 17 18  2  0
 18 13  1  0
  1  2  2  0
  2  5  1  0
  5  6  2  0
  6  4  1  0
  4  3  2  0
  3  1  1  0
  7  8  2  0
  8  9  1  0
  9 10  2  0
 10 11  1  0
 11 12  2  0
 12  7  1  0
M  END
$$$$
