No_6188-complexes_sdf/6BKW-FPZ/2024-09-17-14-21-01/
     RDKit          3D

  6  5  0  0  0  0  0  0  0  0999 V2000
   -7.7129    4.2099   27.0854 C   0  0  0  0  0  0  0  0  0  0  0  0
   -7.7814    5.1722   27.8972 C   0  0  0  0  0  0  0  0  0  0  0  0
   -7.1384    2.9342   27.3973 C   0  0  0  0  0  0  0  0  0  0  0  0
   -7.5934    1.7723   26.9427 C   0  0  0  0  0  0  0  0  0  0  0  0
   -7.0327    0.5716   27.3126 C   0  0  0  0  0  0  0  0  0  0  0  0
   -7.5918   -0.6728   26.9776 C   0  0  0  0  0  0  0  0  0  0  0  0
  1  2  3  0
  1  3  1  0
  3  4  1  0
  4  5  2  3
  5  6  1  0
M  END
$$$$
