No_6378-complexes_sdf/6BKW-FPZ/2024-09-17-14-21-01/
     RDKit          3D

 19 21  0  0  0  0  0  0  0  0999 V2000
   -7.7129    4.2099   27.0854 C   0  0  0  0  0  0  0  0  0  0  0  0
   -7.7814    5.1722   27.8972 C   0  0  0  0  0  0  0  0  0  0  0  0
   -8.8776    3.8408   26.3416 C   0  0  0  0  0  0  0  0  0  0  0  0
   -9.9844    4.6492   26.4743 C   0  0  0  0  0  0  0  0  0  0  0  0
   -8.8033    6.1375   27.8728 C   0  0  0  0  0  0  0  0  0  0  0  0
   -9.9554    5.8280   27.1737 C   0  0  0  0  0  0  0  0  0  0  0  0
   -8.8740    2.6184   25.5584 C   0  0  0  0  0  0  0  0  0  0  0  0
   -8.2513    1.5373   26.0855 N   0  0  0  0  0  0  0  0  0  0  0  0
   -8.1045    0.3937   25.4062 C   0  0  0  0  0  0  0  0  0  0  0  0
   -8.5816    0.3348   24.2730 C   0  0  0  0  0  0  0  0  0  0  0  0
   -9.3966    2.5213   24.3424 C   0  0  0  0  0  0  0  0  0  0  0  0
   -9.2413    1.3815   23.6342 C   0  0  0  0  0  0  0  0  0  0  0  0
   -9.7834    1.3150   22.2680 C   0  0  0  0  0  0  0  0  0  0  0  0
   -9.8421    0.1822   21.5792 C   0  0  0  0  0  0  0  0  0  0  0  0
  -10.3189   -0.5375   21.0249 C   0  0  0  0  0  0  0  0  0  0  0  0
   -9.9412   -1.7657   20.2920 C   0  0  0  0  0  0  0  0  0  0  0  0
   -9.0105   -2.1379   20.4788 C   0  0  0  0  0  0  0  0  0  0  0  0
   -7.9457   -1.5654   21.2860 C   0  0  0  0  0  0  0  0  0  0  0  0
   -8.2827   -0.3419   21.8398 C   0  0  0  0  0  0  0  0  0  0  0  0
  3  7  1  0
 12 13  1  0
 13 14  1  0
  7  8  2  0
  8  9  1  0
  9 10  2  0
 10 12  1  0
 12 11  2  0
 11  7  1  0
 14 15  2  0
 15 16  1  0
 16 17  2  0
 17 18  1  0
 18 19  2  0
 19 14  1  0
  1  2  2  0
  2  5  1  0
  5  6  2  0
  6  4  1  0
  4  3  2  0
  3  1  1  0
M  END
$$$$
