No_6719-complexes_sdf/6BKW-FPZ/2024-09-17-14-21-01/
     RDKit          3D

 20 23  0  0  0  0  0  0  0  0999 V2000
   -7.7129    4.2099   27.0854 C   0  0  0  0  0  0  0  0  0  0  0  0
   -8.9133    4.4736   27.0998 C   0  0  2  0  0  0  0  0  0  0  0  0
   -9.7135    3.9633   26.0300 C   0  0  0  0  0  0  0  0  0  0  0  0
   -6.8420    4.9760   28.0851 C   0  0  0  0  0  0  0  0  0  0  0  0
  -10.9164    3.4776   26.1172 C   0  0  0  0  0  0  0  0  0  0  0  0
  -11.6177    2.9631   24.9548 C   0  0  0  0  0  0  0  0  0  0  0  0
  -11.0306    3.1350   23.7073 C   0  0  0  0  0  0  0  0  0  0  0  0
   -9.8361    3.8101   23.5777 C   0  0  0  0  0  0  0  0  0  0  0  0
   -9.1538    4.2829   24.6900 C   0  0  0  0  0  0  0  0  0  0  0  0
   -7.7171    5.7528   28.7937 N   0  0  0  0  0  0  0  0  0  0  0  0
   -9.1327    5.5257   28.0597 C   0  0  0  0  0  0  0  0  0  0  0  0
  -11.7365    2.7336   22.4718 C   0  0  0  0  0  0  0  0  0  0  0  0
  -11.8452    3.4204   21.4794 C   0  0  0  0  0  0  0  0  0  0  0  0
  -12.3082    1.4151   22.4737 C   0  0  0  0  0  0  0  0  0  0  0  0
  -12.2563    0.5777   23.3199 C   0  0  0  0  0  0  0  0  0  0  0  0
  -12.3383   -0.5051   23.6171 C   0  0  0  0  0  0  0  0  0  0  0  0
  -12.2985   -1.2530   24.8655 C   0  0  0  0  0  0  0  0  0  0  0  0
  -11.9935   -0.4783   25.9606 C   0  0  0  0  0  0  0  0  0  0  0  0
  -11.7636    0.8404   25.8910 C   0  0  0  0  0  0  0  0  0  0  0  0
  -11.8159    1.4598   24.7052 C   0  0  0  0  0  0  0  0  0  0  0  0
  1  2  1  0
  2  3  1  6
  1  4  1  0
  4 10  2  0
  2 11  1  0
 10 11  1  0
 12 13  1  0
 15 16  2  0
 16 17  1  0
 17 18  2  0
 18 19  1  0
 19 20  2  0
  3  5  2  0
  5  6  1  0
  7  8  1  0
  8  9  2  0
  9  3  1  0
  6  7  2  0
  7 12  1  0
 12 14  2  0
 14 15  1  0
 15 20  1  0
 20  6  1  0
M  END
$$$$
