No_6555-complexes_sdf/6BKW-FPZ/2024-09-17-14-21-01/
     RDKit          3D

 30 34  0  0  0  0  0  0  0  0999 V2000
   -7.9040    3.9820   27.1177 C   0  0  0  0  0  0  0  0  0  0  0  0
   -7.8663    4.8694   27.9238 C   0  0  0  0  0  0  0  0  0  0  0  0
   -7.4698    2.6989   27.4277 C   0  0  0  0  0  0  0  0  0  0  0  0
   -7.9683    1.5964   26.8266 C   0  0  0  0  0  0  0  0  0  0  0  0
   -8.9447    1.7923   25.8533 C   0  0  0  0  0  0  0  0  0  0  0  0
   -9.4405    2.9988   25.5757 C   0  0  0  0  0  0  0  0  0  0  0  0
   -8.9424    4.1117   26.2388 C   0  0  0  0  0  0  0  0  0  0  0  0
   -8.3103    6.1970   27.6444 N   0  0  0  0  0  0  0  0  0  0  0  0
   -9.1782    6.4963   26.6776 C   0  0  0  0  0  0  0  0  0  0  0  0
   -9.5449    5.3904   25.9238 C   0  0  0  0  0  0  0  0  0  0  0  0
   -7.3881    0.2591   27.0923 C   0  0  0  0  0  0  0  0  0  0  0  0
   -6.0878    0.1334   27.5415 C   0  0  0  0  0  0  0  0  0  0  0  0
   -5.5489   -1.0968   27.8750 C   0  0  0  0  0  0  0  0  0  0  0  0
   -6.3693   -2.1921   27.7605 C   0  0  0  0  0  0  0  0  0  0  0  0
   -7.9373   -1.0334   27.1213 C   0  0  0  0  0  0  0  0  0  0  0  0
   -9.4501   -0.8532   26.6676 C   0  0  0  0  0  0  0  0  0  0  0  0
   -7.5452   -2.1503   27.4684 C   0  0  0  0  0  0  0  0  0  0  0  0
  -10.0345   -0.1284   27.5022 C   0  0  0  0  0  0  0  0  0  0  0  0
  -11.5470   -0.0785   27.5264 C   0  0  0  0  0  0  0  0  0  0  0  0
  -12.1217   -0.9896   26.8419 C   0  0  0  0  0  0  0  0  0  0  0  0
   -9.9628   -1.5398   25.6885 C   0  0  0  0  0  0  0  0  0  0  0  0
  -11.0952   -1.4817   25.5721 C   0  0  0  0  0  0  0  0  0  0  0  0
   -9.1230   -2.2297   24.7386 C   0  0  0  0  0  0  0  0  0  0  0  0
   -8.5162   -1.9240   23.8084 C   0  0  0  0  0  0  0  0  0  0  0  0
   -7.8185   -2.2892   22.9970 C   0  0  0  0  0  0  0  0  0  0  0  0
   -9.0845   -3.7151   24.9854 C   0  0  0  0  0  0  0  0  0  0  0  0
   -8.3274   -4.4518   24.0821 C   0  0  0  0  0  0  0  0  0  0  0  0
   -7.6471   -3.7704   23.0546 C   0  0  0  0  0  0  0  0  0  0  0  0
  -11.9989   -1.9134   24.4391 C   0  0  0  0  0  0  0  0  0  0  0  0
  -12.3653   -0.9052   23.5718 C   0  0  0  0  0  0  0  0  0  0  0  0
  4 11  1  0
 15 16  1  0
 21 23  1  0
 22 29  1  0
 29 30  1  0
  1  2  2  0
  2  8  1  0
  8  9  2  0
  9 10  1  0
 10  7  2  0
 16 18  2  0
 18 19  1  0
 19 20  2  0
 20 22  1  0
 22 21  2  0
 21 16  1  0
  1  3  1  0
  3  4  2  0
  4  5  1  0
  5  6  2  0
  6  7  1  0
  7  1  1  0
 23 24  2  0
 24 25  1  0
 25 28  2  0
 28 27  1  0
 27 26  2  0
 26 23  1  0
 11 12  2  0
 12 13  1  0
 13 14  2  0
 14 17  1  0
 17 15  2  0
 15 11  1  0
M  END
$$$$
