No_6816-complexes_sdf/6BKW-FPZ/2024-09-17-14-21-01/
     RDKit          3D

 14 15  0  0  0  0  0  0  0  0999 V2000
   -7.9040    3.9820   27.1177 C   0  0  0  0  0  0  0  0  0  0  0  0
   -9.0711    4.3164   27.0630 C   0  0  0  0  0  0  0  0  0  0  0  0
   -9.9692    3.7224   26.1073 C   0  0  0  0  0  0  0  0  0  0  0  0
   -6.9787    4.6761   28.1003 C   0  0  0  0  0  0  0  0  0  0  0  0
   -9.4538    2.6801   25.3673 C   0  0  0  0  0  0  0  0  0  0  0  0
   -8.1927    2.1957   25.6621 C   0  0  0  0  0  0  0  0  0  0  0  0
   -7.4333    2.8255   26.6299 C   0  0  0  0  0  0  0  0  0  0  0  0
  -10.4304    2.1414   24.3951 C   0  0  0  0  0  0  0  0  0  0  0  0
  -10.9296    2.8709   23.4536 C   0  0  0  0  0  0  0  0  0  0  0  0
  -11.7440    2.3648   22.3836 C   0  0  0  0  0  0  0  0  0  0  0  0
  -12.3283    3.1633   21.4476 C   0  0  0  0  0  0  0  0  0  0  0  0
  -12.0757    4.6039   21.4959 C   0  0  0  0  0  0  0  0  0  0  0  0
  -11.2631    5.1079   22.4682 C   0  0  0  0  0  0  0  0  0  0  0  0
  -10.6944    4.3648   23.4180 C   0  0  0  0  0  0  0  0  0  0  0  0
  1  4  1  0
  5  8  1  0
  8  9  1  0
  9 10  2  0
 10 11  1  0
 11 12  2  0
 12 13  1  0
 13 14  2  0
 14  9  1  0
  1  2  2  0
  2  3  1  0
  3  5  2  0
  5  6  1  0
  6  7  2  0
  7  1  1  0
M  END
$$$$
