No_6822-complexes_sdf/6BKW-FPZ/2024-09-17-14-21-01/
     RDKit          3D

 40 45  0  0  0  0  0  0  0  0999 V2000
   -7.7129    4.2099   27.0854 C   0  0  0  0  0  0  0  0  0  0  0  0
   -8.9133    4.4736   27.0998 C   0  0  0  0  0  0  0  0  0  0  0  0
   -9.4643    5.5426   27.7628 C   0  0  0  0  0  0  0  0  0  0  0  0
   -6.8373    4.9942   27.9785 C   0  0  0  0  0  0  0  0  0  0  0  0
   -7.3717    6.0428   28.6744 C   0  0  0  0  0  0  0  0  0  0  0  0
   -8.6869    6.3937   28.5345 C   0  0  0  0  0  0  0  0  0  0  0  0
   -9.8029    3.6153   26.2122 C   0  0  0  0  0  0  0  0  0  0  0  0
  -10.1002    2.3701   26.5024 C   0  0  0  0  0  0  0  0  0  0  0  0
  -10.8218    1.5251   25.6423 C   0  0  0  0  0  0  0  0  0  0  0  0
  -11.3643    2.0969   24.4882 C   0  0  0  0  0  0  0  0  0  0  0  0
  -11.0766    3.4459   24.1676 C   0  0  0  0  0  0  0  0  0  0  0  0
  -10.3063    4.2543   25.0134 C   0  0  0  0  0  0  0  0  0  0  0  0
  -11.6441    4.0557   22.9420 C   0  0  0  0  0  0  0  0  0  0  0  0
  -11.1103    5.0148   22.4248 C   0  0  0  0  0  0  0  0  0  0  0  0
  -12.7677    3.4111   22.3660 C   0  0  0  0  0  0  0  0  0  0  0  0
  -13.4152    2.3734   22.9054 C   0  0  0  0  0  0  0  0  0  0  0  0
  -12.5904    1.5785   23.9153 C   0  0  0  0  0  0  0  0  0  0  0  0
  -13.1246    0.3238   24.3834 C   0  0  0  0  0  0  0  0  0  0  0  0
  -13.6432    0.2745   25.6283 C   0  0  0  0  0  0  0  0  0  0  0  0
  -14.0696   -0.9438   26.1728 C   0  0  0  0  0  0  0  0  0  0  0  0
  -13.0169   -0.7325   23.5649 C   0  0  0  0  0  0  0  0  0  0  0  0
  -13.4938   -1.9855   24.0225 C   0  0  0  0  0  0  0  0  0  0  0  0
  -14.0090   -2.0586   25.3248 C   0  0  0  0  0  0  0  0  0  0  0  0
  -14.4668   -3.2660   25.7472 O   0  0  0  0  0  0  0  0  0  0  0  0
  -15.0269   -4.1036   25.2503 C   0  0  0  0  0  0  0  0  0  0  0  0
  -15.9631   -4.3860   24.6340 C   0  0  0  0  0  0  0  0  0  0  0  0
  -14.0400   -5.3669   25.2150 C   0  0  0  0  0  0  0  0  0  0  0  0
  -14.3964   -6.5386   24.5819 C   0  0  0  0  0  0  0  0  0  0  0  0
  -16.4905   -5.4526   23.9400 C   0  0  0  0  0  0  0  0  0  0  0  0
  -15.6249   -6.5830   23.9909 C   0  0  0  0  0  0  0  0  0  0  0  0
  -16.0975   -7.8222   23.3399 C   0  0  0  0  0  0  0  0  0  0  0  0
  -15.5089   -8.8595   23.6106 N   0  0  0  0  0  0  0  0  0  0  0  0
  -17.2281   -7.8713   22.8407 O   0  0  0  0  0  0  0  0  0  0  0  0
  -15.6432  -10.0471   23.1893 C   0  0  0  0  0  0  0  0  0  0  0  0
  -15.9994  -10.7077   22.4806 C   0  0  0  0  0  0  0  0  0  0  0  0
  -16.0237  -12.1283   22.3502 C   0  0  0  0  0  0  0  0  0  0  0  0
  -15.3375  -12.7951   23.3386 C   0  0  0  0  0  0  0  0  0  0  0  0
  -14.7609  -12.1523   24.3744 C   0  0  0  0  0  0  0  0  0  0  0  0
  -14.8117  -10.7845   24.4606 C   0  0  0  0  0  0  0  0  0  0  0  0
  -15.2975  -14.2779   23.2561 C   0  0  0  0  0  0  0  0  0  0  0  0
  2  7  1  0
 17 18  1  0
 23 24  1  0
 24 25  1  0
 30 31  1  0
 31 32  1  0
 31 33  2  0
 32 34  1  0
 37 40  1  0
 14 13  1  0
  1  2  2  0
  2  3  1  0
  3  6  2  0
  6  5  1  0
  5  4  2  0
  4  1  1  0
  7  8  2  0
  8  9  1  0
  9 10  2  0
 11 12  2  0
 12  7  1  0
 34 35  2  0
 35 36  1  0
 36 37  2  0
 37 38  1  0
 38 39  2  0
 39 34  1  0
 10 11  1  0
 11 13  1  0
 13 15  2  0
 15 16  1  0
 16 17  2  0
 17 10  1  0
 25 26  2  0
 26 29  1  0
 29 30  2  0
 30 28  1  0
 28 27  2  0
 27 25  1  0
 18 19  2  0
 19 20  1  0
 20 23  2  0
 23 22  1  0
 22 21  2  0
 21 18  1  0
M  END
$$$$
