No_6573-complexes_sdf/6BKW-FPZ/2024-09-17-14-21-01/
     RDKit          3D

  6  6  0  0  0  0  0  0  0  0999 V2000
   -7.2496    3.8871   27.4508 C   0  0  0  0  0  0  0  0  0  0  0  0
   -7.6161    2.7143   27.1523 C   0  0  0  0  0  0  0  0  0  0  0  0
   -6.9719    1.5838   27.5324 C   0  0  0  0  0  0  0  0  0  0  0  0
   -5.6316    1.7305   27.9933 C   0  0  0  0  0  0  0  0  0  0  0  0
   -5.0832    3.0244   28.1417 C   0  0  0  0  0  0  0  0  0  0  0  0
   -5.9102    4.1106   27.9328 C   0  0  0  0  0  0  0  0  0  0  0  0
  1  2  2  0
  2  3  1  0
  3  4  2  0
  4  5  1  0
  5  6  2  0
  6  1  1  0
M  END
$$$$
