No_6101-complexes_sdf/6BKW-FPZ/2024-09-17-14-21-01/
     RDKit          3D

 27 30  0  0  0  0  0  0  0  0999 V2000
   -7.7129    4.2099   27.0854 C   0  0  0  0  0  0  0  0  0  0  0  0
   -7.7814    5.1722   27.8972 C   0  0  0  0  0  0  0  0  0  0  0  0
   -8.8776    3.8408   26.3416 C   0  0  0  0  0  0  0  0  0  0  0  0
   -9.9844    4.6492   26.4743 C   0  0  0  0  0  0  0  0  0  0  0  0
   -8.8033    6.1375   27.8728 C   0  0  0  0  0  0  0  0  0  0  0  0
   -9.9554    5.8280   27.1737 C   0  0  0  0  0  0  0  0  0  0  0  0
   -8.8752    2.6155   25.5663 C   0  0  0  0  0  0  0  0  0  0  0  0
   -9.7674    2.4672   24.5176 C   0  0  0  0  0  0  0  0  0  0  0  0
   -9.7868    1.3139   23.7963 C   0  0  0  0  0  0  0  0  0  0  0  0
   -8.8124    0.2939   24.0686 C   0  0  0  0  0  0  0  0  0  0  0  0
   -7.9672    0.4354   25.1371 C   0  0  0  0  0  0  0  0  0  0  0  0
   -7.9674    1.5907   25.9153 C   0  0  0  0  0  0  0  0  0  0  0  0
  -10.6039    1.1529   22.7401 O   0  0  0  0  0  0  0  0  0  0  0  0
  -10.9575    2.1642   22.0506 C   0  0  0  0  0  0  0  0  0  0  0  0
  -11.9290    2.9508   22.4077 C   0  0  0  0  0  0  0  0  0  0  0  0
  -12.5129    2.8160   23.5173 C   0  0  0  0  0  0  0  0  0  0  0  0
  -13.5611    3.7394   23.9725 C   0  0  0  0  0  0  0  0  0  0  0  0
  -13.8593    4.7943   23.0549 C   0  0  0  0  0  0  0  0  0  0  0  0
  -12.2738    4.1055   21.6212 C   0  0  0  0  0  0  0  0  0  0  0  0
  -13.1950    4.9900   21.9869 C   0  0  0  0  0  0  0  0  0  0  0  0
  -10.3132    2.2780   20.8646 O   0  0  0  0  0  0  0  0  0  0  0  0
  -14.2525    3.5549   25.2925 C   0  0  0  0  0  0  0  0  0  0  0  0
  -15.0634    2.5693   25.4495 C   0  0  0  0  0  0  0  0  0  0  0  0
  -15.6792    2.3658   26.6963 C   0  0  0  0  0  0  0  0  0  0  0  0
  -15.4086    3.2784   27.7595 C   0  0  0  0  0  0  0  0  0  0  0  0
  -14.5407    4.3783   27.5800 C   0  0  0  0  0  0  0  0  0  0  0  0
  -13.9420    4.5504   26.3673 C   0  0  0  0  0  0  0  0  0  0  0  0
  3  7  1  0
  9 13  1  0
 13 14  1  0
 14 15  1  0
 14 21  2  0
 17 22  1  0
 15 16  2  0
 16 17  1  0
 17 18  2  0
 18 20  1  0
 20 19  2  0
 19 15  1  0
 22 23  2  0
 23 24  1  0
 24 25  2  0
 25 26  1  0
 26 27  2  0
 27 22  1  0
  1  2  2  0
  2  5  1  0
  5  6  2  0
  6  4  1  0
  4  3  2  0
  3  1  1  0
  7  8  2  0
  8  9  1  0
  9 10  2  0
 10 11  1  0
 11 12  2  0
 12  7  1  0
M  END
$$$$
