No_6207-complexes_sdf/6BKW-FPZ/2024-09-17-14-21-01/
     RDKit          3D

 22 24  0  0  0  0  0  0  0  0999 V2000
   -7.9040    3.9820   27.1177 C   0  0  0  0  0  0  0  0  0  0  0  0
   -7.8663    4.8694   27.9238 C   0  0  0  0  0  0  0  0  0  0  0  0
   -9.0953    3.1697   27.0532 C   0  0  0  0  0  0  0  0  0  0  0  0
  -10.1313    3.4052   27.8871 C   0  0  0  0  0  0  0  0  0  0  0  0
  -10.3799    4.3455   28.1576 C   0  0  0  0  0  0  0  0  0  0  0  0
   -9.2014    5.3681   28.4511 C   0  0  0  0  0  0  0  0  0  0  0  0
   -8.8788    1.7888   26.3461 C   0  0  0  0  0  0  0  0  0  0  0  0
   -9.4648    1.7848   25.1124 C   0  0  0  0  0  0  0  0  0  0  0  0
   -9.3499    0.6720   24.2787 C   0  0  0  0  0  0  0  0  0  0  0  0
   -8.5415   -0.4169   24.7309 C   0  0  0  0  0  0  0  0  0  0  0  0
   -8.0753    0.7443   26.7975 C   0  0  0  0  0  0  0  0  0  0  0  0
   -7.9095   -0.3530   26.0394 C   0  0  0  0  0  0  0  0  0  0  0  0
  -10.9132    2.2288   28.1537 C   0  0  0  0  0  0  0  0  0  0  0  0
  -12.2841    2.3895   28.7217 C   0  0  0  0  0  0  0  0  0  0  0  0
  -13.0792    1.2970   29.0374 C   0  0  0  0  0  0  0  0  0  0  0  0
  -12.5776    0.0222   28.7499 C   0  0  0  0  0  0  0  0  0  0  0  0
  -11.3060   -0.1924   28.1787 C   0  0  0  0  0  0  0  0  0  0  0  0
  -10.5538    0.9068   27.9086 C   0  0  0  0  0  0  0  0  0  0  0  0
  -10.2185    2.9299   24.5220 C   0  0  0  0  0  0  0  0  0  0  0  0
  -11.3964    3.0729   24.3040 C   0  0  0  0  0  0  0  0  0  0  0  0
  -11.9798    4.2201   23.7960 C   0  0  0  0  0  0  0  0  0  0  0  0
  -13.3805    4.3597   23.6622 C   0  0  0  0  0  0  0  0  0  0  0  0
  3  7  1  0
  4 13  1  0
  8 19  1  0
 19 20  2  3
 20 21  1  0
 21 22  2  0
  7  8  2  0
  8  9  1  0
  9 10  2  0
 10 12  1  0
 12 11  2  0
 11  7  1  0
  1  2  2  0
  2  6  1  0
  6  5  2  0
  5  4  1  0
  4  3  2  0
  3  1  1  0
 13 14  2  0
 14 15  1  0
 15 16  2  0
 16 17  1  0
 17 18  2  0
 18 13  1  0
M  END
$$$$
