No_6499-complexes_sdf/6BKW-FPZ/2024-09-17-14-21-01/
     RDKit          3D

 28 32  0  0  0  0  0  0  0  0999 V2000
   -7.9040    3.9820   27.1177 C   0  0  0  0  0  0  0  0  0  0  0  0
   -7.8663    4.8694   27.9238 C   0  0  0  0  0  0  0  0  0  0  0  0
   -9.0501    3.8017   26.2617 C   0  0  0  0  0  0  0  0  0  0  0  0
   -9.1826    2.7026   25.3575 C   0  0  0  0  0  0  0  0  0  0  0  0
   -8.6940    6.0131   27.8614 C   0  0  0  0  0  0  0  0  0  0  0  0
   -9.9755    4.8547   26.2361 C   0  0  0  0  0  0  0  0  0  0  0  0
   -9.7463    5.9398   27.0364 C   0  0  0  0  0  0  0  0  0  0  0  0
   -8.7094    1.4766   25.7702 C   0  0  0  0  0  0  0  0  0  0  0  0
   -9.8701    2.8497   24.1394 C   0  0  0  0  0  0  0  0  0  0  0  0
   -8.8286    0.4017   24.9127 C   0  0  0  0  0  0  0  0  0  0  0  0
   -9.9524    1.7536   23.3054 C   0  0  0  0  0  0  0  0  0  0  0  0
   -9.4143    0.5348   23.6888 C   0  0  0  0  0  0  0  0  0  0  0  0
   -9.5580   -0.6210   22.7482 C   0  0  0  0  0  0  0  0  0  0  0  0
  -10.2061   -0.5024   21.6149 C   0  0  0  0  0  0  0  0  0  0  0  0
  -10.7156    0.8326   21.2297 C   0  0  0  0  0  0  0  0  0  0  0  0
  -10.6140    1.9247   22.0460 C   0  0  0  0  0  0  0  0  0  0  0  0
   -8.1868   -0.8690   25.3208 C   0  0  0  0  0  0  0  0  0  0  0  0
   -7.3354   -0.8805   26.4216 C   0  0  0  0  0  0  0  0  0  0  0  0
   -6.7730   -2.0497   26.9340 C   0  0  0  0  0  0  0  0  0  0  0  0
   -6.0512   -1.9369   28.1274 C   0  0  0  0  0  0  0  0  0  0  0  0
   -5.7687   -0.6988   28.7839 C   0  0  0  0  0  0  0  0  0  0  0  0
   -6.2123    0.4757   28.1178 C   0  0  0  0  0  0  0  0  0  0  0  0
   -6.9929    0.3841   27.0448 C   0  0  0  0  0  0  0  0  0  0  0  0
   -7.7351    1.5058   26.6804 N   0  0  0  0  0  0  0  0  0  0  0  0
   -4.7989   -0.5826   29.9010 C   0  0  1  0  0  0  0  0  0  0  0  0
   -3.8207    0.4011   29.8915 C   0  0  0  0  0  0  0  0  0  0  0  0
   -5.0658   -1.3347   31.0644 C   0  0  0  0  0  0  0  0  0  0  0  0
   -5.8665   -2.0341   31.3727 N   0  0  0  0  0  0  0  0  0  0  0  0
  3  4  1  0
 21 25  1  0
 25 26  1  1
 25 27  1  0
 27 28  2  0
 18 19  1  0
 19 20  2  0
 20 21  1  0
 21 22  2  0
 22 23  1  0
 10 17  1  0
 17 18  2  0
 18 23  1  0
 23 24  2  0
 24  8  1  0
  4  8  2  0
  8 10  1  0
 10 12  2  0
 11  9  2  0
  9  4  1  0
 11 12  1  0
 12 13  1  0
 13 14  2  0
 14 15  1  0
 15 16  2  0
 16 11  1  0
  1  2  2  0
  2  5  1  0
  5  7  2  0
  7  6  1  0
  6  3  2  0
  3  1  1  0
M  END
$$$$
