No_6762-complexes_sdf/6BKW-FPZ/2024-09-17-14-21-01/
     RDKit          3D

 16 17  0  0  0  0  0  0  0  0999 V2000
   -7.7129    4.2099   27.0854 C   0  0  0  0  0  0  0  0  0  0  0  0
   -8.2112    3.0637   26.9225 C   0  0  0  0  0  0  0  0  0  0  0  0
   -9.4446    2.8304   26.1868 C   0  0  0  0  0  0  0  0  0  0  0  0
   -8.6179    5.2785   27.1142 C   0  0  0  0  0  0  0  0  0  0  0  0
   -9.7822    5.1737   26.3761 C   0  0  0  0  0  0  0  0  0  0  0  0
  -10.2109    3.9567   26.0349 C   0  0  0  0  0  0  0  0  0  0  0  0
   -8.0180    6.6366   27.4045 C   0  0  0  0  0  0  0  0  0  0  0  0
   -7.3220    1.7966   27.0803 C   0  0  0  0  0  0  0  0  0  0  0  0
   -6.2016    1.9487   27.7886 N   0  0  0  0  0  0  0  0  0  0  0  0
   -5.4252    0.8003   28.0288 C   0  0  0  0  0  0  0  0  0  0  0  0
   -5.9361   -0.4069   27.7687 C   0  0  0  0  0  0  0  0  0  0  0  0
   -7.7013    0.4916   26.9043 C   0  0  0  0  0  0  0  0  0  0  0  0
   -7.0723   -0.5559   27.2080 C   0  0  0  0  0  0  0  0  0  0  0  0
   -4.1994    1.1103   28.6765 N   0  0  0  0  0  0  0  0  0  0  0  0
   -8.6871    7.7538   27.0006 N   0  0  0  0  0  0  0  0  0  0  0  0
   -7.2216    6.7237   28.3685 O   0  0  0  0  0  0  0  0  0  0  0  0
  4  7  1  0
  2  8  1  0
 10 14  1  0
  7 15  1  0
  7 16  2  0
  1  2  2  0
  2  3  1  0
  3  6  2  0
  6  5  1  0
  5  4  2  0
  4  1  1  0
  8  9  2  0
  9 10  1  0
 10 11  2  0
 11 13  1  0
 13 12  2  0
 12  8  1  0
M  END
$$$$
