No_6972-complexes_sdf/6BKW-FPZ/2024-09-17-14-21-01/
     RDKit          3D

 22 24  0  0  0  0  0  0  0  0999 V2000
   -7.9040    3.9820   27.1177 C   0  0  0  0  0  0  0  0  0  0  0  0
   -9.0711    4.3164   27.0630 C   0  0  1  0  0  0  0  0  0  0  0  0
   -9.8698    3.9665   25.9495 C   0  0  0  0  0  0  0  0  0  0  0  0
   -6.9515    4.6878   28.0207 C   0  0  0  0  0  0  0  0  0  0  0  0
  -11.1591    3.4833   26.0876 C   0  0  0  0  0  0  0  0  0  0  0  0
  -11.2310    2.4524   26.8006 C   0  0  2  0  0  0  0  0  0  0  0  0
  -11.2452    2.7913   28.2804 C   0  0  1  0  0  0  0  0  0  0  0  0
  -11.3476    4.0412   28.7372 C   0  0  0  0  0  0  0  0  0  0  0  0
   -9.9290    3.9547   28.4258 C   0  0  2  0  0  0  0  0  0  0  0  0
   -9.2089    3.9375   29.3823 F   0  0  0  0  0  0  0  0  0  0  0  0
  -12.3554    2.1989   28.9639 C   0  0  0  0  0  0  0  0  0  0  0  0
  -10.2435    1.3682   26.5240 C   0  0  2  0  0  0  0  0  0  0  0  0
  -10.4876    0.4086   25.6523 C   0  0  0  0  0  0  0  0  0  0  0  0
   -9.4056   -0.2833   25.1288 C   0  0  0  0  0  0  0  0  0  0  0  0
   -9.4669   -0.8615   23.8749 C   0  0  0  0  0  0  0  0  0  0  0  0
  -12.7774    0.9079   28.7234 C   0  0  0  0  0  0  0  0  0  0  0  0
  -13.8019    0.3363   29.4084 C   0  0  0  0  0  0  0  0  0  0  0  0
  -14.1595   -1.0065   29.1183 C   0  0  0  0  0  0  0  0  0  0  0  0
  -13.4199   -1.6164   28.1463 C   0  0  0  0  0  0  0  0  0  0  0  0
  -12.3522   -1.0627   27.5043 C   0  0  0  0  0  0  0  0  0  0  0  0
  -11.9843    0.2300   27.8640 C   0  0  0  0  0  0  0  0  0  0  0  0
  -10.9675    0.7833   27.1297 N   0  0  0  0  0  0  0  0  0  0  0  0
  2  1  1  1
  2  3  1  0
  1  4  1  0
  3  5  1  0
  6  5  1  6
  6  7  1  0
  7  8  1  6
  2  9  1  0
  8  9  1  0
  9 10  1  1
  7 11  1  0
  6 12  1  0
 12 13  1  0
 13 14  2  3
 14 15  1  0
 12 22  1  1
 21 22  1  0
 11 16  1  0
 16 17  2  0
 17 18  1  0
 18 19  2  0
 19 20  1  0
 20 21  2  0
 21 16  1  0
M  END
$$$$
