No_6025-complexes_sdf/6BKW-FPZ/2024-09-17-14-21-01/
     RDKit          3D

 10 11  0  0  0  0  0  0  0  0999 V2000
   -7.9040    3.9820   27.1177 C   0  0  0  0  0  0  0  0  0  0  0  0
   -7.8663    4.8694   27.9238 C   0  0  0  0  0  0  0  0  0  0  0  0
   -7.4547    2.7080   27.4594 C   0  0  0  0  0  0  0  0  0  0  0  0
   -8.7044    6.0412   27.8492 C   0  0  0  0  0  0  0  0  0  0  0  0
   -8.0057    1.5433   26.9789 C   0  0  0  0  0  0  0  0  0  0  0  0
   -8.9888    1.7287   25.9879 C   0  0  0  0  0  0  0  0  0  0  0  0
   -9.4294    2.9493   25.5775 C   0  0  0  0  0  0  0  0  0  0  0  0
   -8.8903    4.1109   26.1952 C   0  0  0  0  0  0  0  0  0  0  0  0
   -9.5068    5.3428   26.0586 C   0  0  0  0  0  0  0  0  0  0  0  0
   -9.1815    6.1071   26.7804 C   0  0  0  0  0  0  0  0  0  0  0  0
  1  3  1  0
  3  5  2  0
  5  6  1  0
  6  7  2  0
  7  8  1  0
  1  2  2  0
  2  4  1  0
  4 10  2  0
 10  9  1  0
  9  8  2  0
  8  1  1  0
M  END
$$$$
