No_6650-complexes_sdf/6BKW-FPZ/2024-09-17-14-21-01/
     RDKit          3D

 28 30  0  0  0  0  0  0  0  0999 V2000
   -7.2496    3.8871   27.4508 C   0  0  0  0  0  0  0  0  0  0  0  0
   -7.9379    4.9063   27.8518 C   0  0  0  0  0  0  0  0  0  0  0  0
   -7.4895    6.2027   27.7481 C   0  0  0  0  0  0  0  0  0  0  0  0
   -7.8057    2.6324   27.3137 C   0  0  0  0  0  0  0  0  0  0  0  0
   -9.1872    2.4678   27.5434 C   0  0  0  0  0  0  0  0  0  0  0  0
   -9.9237    3.5447   27.9999 C   0  0  0  0  0  0  0  0  0  0  0  0
   -9.3832    4.8080   28.1012 C   0  0  0  0  0  0  0  0  0  0  0  0
  -11.3761    3.3018   28.3126 C   0  0  0  0  0  0  0  0  0  0  0  0
  -12.2410    3.1455   27.4378 C   0  0  0  0  0  0  0  0  0  0  0  0
  -12.2394    3.0051   26.3069 C   0  0  0  0  0  0  0  0  0  0  0  0
  -13.3445    3.0211   25.4033 C   0  0  0  0  0  0  0  0  0  0  0  0
  -14.6096    3.1499   25.9801 C   0  0  0  0  0  0  0  0  0  0  0  0
  -13.7142    3.3767   27.9988 C   0  0  0  0  0  0  0  0  0  0  0  0
  -14.8020    3.3326   27.2512 C   0  0  0  0  0  0  0  0  0  0  0  0
   -7.0217    1.4370   26.9375 C   0  0  0  0  0  0  0  0  0  0  0  0
   -7.5097    0.5884   26.0835 N   0  0  0  0  0  0  0  0  0  0  0  0
   -6.9729   -0.6168   25.8744 C   0  0  0  0  0  0  0  0  0  0  0  0
   -5.8492    1.4284   27.4167 O   0  0  0  0  0  0  0  0  0  0  0  0
   -7.0020   -0.9912   24.5770 C   0  0  0  0  0  0  0  0  0  0  0  0
  -13.7596    3.5716   29.5291 C   0  0  0  0  0  0  0  0  0  0  0  0
  -14.6277    2.7971   30.2089 C   0  0  1  0  0  0  0  0  0  0  0  0
  -14.5734    2.8192   31.5501 C   0  0  0  0  0  0  0  0  0  0  0  0
  -15.3519    2.0386   32.4034 C   0  0  0  0  0  0  0  0  0  0  0  0
  -15.2146    2.1023   33.8078 C   0  0  0  0  0  0  0  0  0  0  0  0
  -14.2489    2.9724   34.3921 C   0  0  0  0  0  0  0  0  0  0  0  0
  -13.4292    3.7567   33.5870 C   0  0  0  0  0  0  0  0  0  0  0  0
  -13.5727    3.7018   32.1865 C   0  0  0  0  0  0  0  0  0  0  0  0
  -15.8548    3.2492   29.7700 F   0  0  0  0  0  0  0  0  0  0  0  0
  2  3  1  0
  6  8  1  0
  8  9  1  0
  4 15  1  0
 15 16  1  0
 16 17  1  0
 15 18  2  0
 17 19  1  0
 13 20  1  0
 20 21  1  0
 21 28  1  1
 21 22  1  0
 22 23  2  0
 23 24  1  0
 24 25  2  0
 25 26  1  0
 26 27  2  0
 27 22  1  0
  1  2  2  0
  2  7  1  0
  7  6  2  0
  6  5  1  0
  5  4  2  0
  4  1  1  0
  9 10  2  0
 10 11  1  0
 11 12  2  0
 12 14  1  0
 14 13  2  0
 13  9  1  0
M  END
$$$$
