No_6882-complexes_sdf/6BKW-FPZ/2024-09-17-14-21-01/
     RDKit          3D

 40 44  0  0  0  0  0  0  0  0999 V2000
   -7.7129    4.2099   27.0854 C   0  0  0  0  0  0  0  0  0  0  0  0
   -7.7814    5.1722   27.8972 C   0  0  0  0  0  0  0  0  0  0  0  0
   -7.3155    2.9700   27.6145 C   0  0  0  0  0  0  0  0  0  0  0  0
   -7.9010    1.7962   27.2023 C   0  0  0  0  0  0  0  0  0  0  0  0
   -8.9847    1.8780   26.3510 C   0  0  0  0  0  0  0  0  0  0  0  0
   -9.4383    3.0861   25.8930 C   0  0  0  0  0  0  0  0  0  0  0  0
   -8.9232    4.1639   26.3688 C   0  0  0  0  0  0  0  0  0  0  0  0
   -8.2137    6.4719   27.5430 N   0  0  0  0  0  0  0  0  0  0  0  0
   -9.0837    6.6455   26.5405 C   0  0  0  0  0  0  0  0  0  0  0  0
   -9.5319    5.4775   25.9830 C   0  0  0  0  0  0  0  0  0  0  0  0
   -7.2603    0.5034   27.5549 C   0  0  0  0  0  0  0  0  0  0  0  0
   -5.9149    0.4142   27.9481 C   0  0  0  0  0  0  0  0  0  0  0  0
   -4.9629    1.3981   27.6535 C   0  0  0  0  0  0  0  0  0  0  0  0
   -3.6528    1.1853   28.1629 C   0  0  0  0  0  0  0  0  0  0  0  0
   -3.3290    0.0174   28.8285 C   0  0  0  0  0  0  0  0  0  0  0  0
   -5.4806   -0.7017   28.6817 C   0  0  0  0  0  0  0  0  0  0  0  0
   -4.2399   -0.8541   29.1575 C   0  0  0  0  0  0  0  0  0  0  0  0
   -8.0177   -0.5446   27.5046 O   0  0  0  0  0  0  0  0  0  0  0  0
   -3.9167   -2.0518   29.9975 C   0  0  0  0  0  0  0  0  0  0  0  0
   -3.0057   -1.8928   30.8583 O   0  0  0  0  0  0  0  0  0  0  0  0
   -4.5355   -3.0565   29.8402 F   0  0  0  0  0  0  0  0  0  0  0  0
  -10.5024    3.0268   24.8817 C   0  0  1  0  0  0  0  0  0  0  0  0
  -10.2905    2.3168   23.7448 C   0  0  0  0  0  0  0  0  0  0  0  0
  -10.9722    2.5202   22.5716 C   0  0  0  0  0  0  0  0  0  0  0  0
  -10.6429    1.7242   21.4045 C   0  0  0  0  0  0  0  0  0  0  0  0
   -9.6852    0.6787   21.5328 C   0  0  0  0  0  0  0  0  0  0  0  0
   -8.9893    0.5008   22.7244 C   0  0  0  0  0  0  0  0  0  0  0  0
   -9.2232    1.2723   23.7763 C   0  0  0  0  0  0  0  0  0  0  0  0
   -7.9684   -0.5799   22.7116 C   0  0  0  0  0  0  0  0  0  0  0  0
   -8.2077   -1.7429   23.3804 C   0  0  0  0  0  0  0  0  0  0  0  0
   -7.2436   -2.6502   23.5159 C   0  0  0  0  0  0  0  0  0  0  0  0
   -7.4023   -3.8754   24.2412 C   0  0  0  0  0  0  0  0  0  0  0  0
   -8.6706   -4.0406   24.8481 C   0  0  0  0  0  0  0  0  0  0  0  0
   -9.6576   -3.0996   24.7539 C   0  0  0  0  0  0  0  0  0  0  0  0
   -9.4341   -1.9359   24.0805 C   0  0  0  0  0  0  0  0  0  0  0  0
   -6.8555   -0.2974   22.1826 O   0  0  0  0  0  0  0  0  0  0  0  0
  -11.7943    2.6835   25.6004 C   0  0  0  0  0  0  0  0  0  0  0  0
  -11.9461    2.1898   26.6147 C   0  0  0  0  0  0  0  0  0  0  0  0
  -13.1809    1.8848   27.3027 C   0  0  0  0  0  0  0  0  0  0  0  0
  -14.3033    2.3203   26.7039 C   0  0  0  0  0  0  0  0  0  0  0  0
  4 11  1  0
 11 12  1  0
 11 18  2  0
 17 19  1  0
 19 20  2  0
 19 21  1  0
  6 22  1  0
 22 23  1  0
 27 29  1  0
 29 30  1  0
 29 36  2  0
 22 37  1  1
 37 38  1  0
 38 39  2  3
 39 40  1  0
  1  2  2  0
  2  8  1  0
  8  9  2  0
  9 10  1  0
 10  7  2  0
 23 24  2  0
 24 25  1  0
 25 26  2  0
 26 27  1  0
 27 28  2  0
 28 23  1  0
  1  3  1  0
  3  4  2  0
  4  5  1  0
  5  6  2  0
  6  7  1  0
  7  1  1  0
 30 31  2  0
 31 32  1  0
 32 33  2  0
 33 34  1  0
 34 35  2  0
 35 30  1  0
 12 13  2  0
 13 14  1  0
 14 15  2  0
 15 17  1  0
 17 16  2  0
 16 12  1  0
M  END
$$$$
