No_6799-complexes_sdf/6BKW-FPZ/2024-09-17-14-21-01/
     RDKit          3D

 27 30  0  0  0  0  0  0  0  0999 V2000
   -7.2496    3.8871   27.4508 C   0  0  0  0  0  0  0  0  0  0  0  0
   -7.9379    4.9063   27.8518 C   0  0  0  0  0  0  0  0  0  0  0  0
   -9.3460    4.8223   27.8695 C   0  0  0  0  0  0  0  0  0  0  0  0
   -7.8628    2.6163   27.1065 C   0  0  0  0  0  0  0  0  0  0  0  0
   -9.2787    2.5744   27.1970 C   0  0  0  0  0  0  0  0  0  0  0  0
  -10.0108    3.6770   27.6340 C   0  0  0  0  0  0  0  0  0  0  0  0
  -11.5178    3.7574   27.7698 C   0  0  0  0  0  0  0  0  0  0  0  0
  -12.2297    4.3986   26.9821 C   0  0  0  0  0  0  0  0  0  0  0  0
  -13.6570    4.5105   27.0489 C   0  0  0  0  0  0  0  0  0  0  0  0
  -12.1091    2.9208   28.7742 C   0  0  0  0  0  0  0  0  0  0  0  0
  -13.5103    2.9904   28.9573 C   0  0  0  0  0  0  0  0  0  0  0  0
  -14.1290    2.1793   29.9809 C   0  0  0  0  0  0  0  0  0  0  0  0
  -14.2505    3.7761   28.0927 C   0  0  0  0  0  0  0  0  0  0  0  0
  -15.7136    1.8656   30.0369 Cl  0  0  0  0  0  0  0  0  0  0  0  0
   -7.1335    1.4548   26.7761 C   0  0  1  0  0  0  0  0  0  0  0  0
   -6.0482    1.0951   27.5053 N   0  0  0  0  0  0  0  0  0  0  0  0
   -5.3651   -0.0423   27.3527 C   0  0  0  0  0  0  0  0  0  0  0  0
   -5.8321   -0.8553   26.4292 C   0  0  0  0  0  0  0  0  0  0  0  0
   -7.5699    0.5603   26.0177 O   0  0  0  0  0  0  0  0  0  0  0  0
   -6.9329   -0.5175   25.7185 C   0  0  0  0  0  0  0  0  0  0  0  0
   -7.1460    6.4029   28.2396 Cl  0  0  0  0  0  0  0  0  0  0  0  0
   -4.1532   -0.1935   28.2094 C   0  0  0  0  0  0  0  0  0  0  0  0
   -3.0028   -0.3074   27.7613 C   0  0  0  0  0  0  0  0  0  0  0  0
   -4.3498   -0.1743   29.6902 C   0  0  0  0  0  0  0  0  0  0  0  0
   -3.2343   -0.3117   30.5566 C   0  0  0  0  0  0  0  0  0  0  0  0
   -1.7940   -0.4774   28.6338 C   0  0  0  0  0  0  0  0  0  0  0  0
   -1.9499   -0.4331   29.9840 C   0  0  0  0  0  0  0  0  0  0  0  0
  6  7  1  0
 11 12  1  0
 12 14  1  0
 15  4  1  1
 15 16  1  0
 16 17  1  0
 17 18  2  0
 15 19  1  0
 18 20  1  0
 19 20  1  0
  2 21  1  0
 17 22  1  0
  1  2  2  0
  2  3  1  0
  3  6  2  0
  6  5  1  0
  5  4  2  0
  4  1  1  0
 22 23  2  0
 23 26  1  0
 26 27  2  0
 27 25  1  0
 25 24  2  0
 24 22  1  0
  7  8  2  0
  8  9  1  0
  9 13  2  0
 13 11  1  0
 11 10  2  0
 10  7  1  0
M  END
$$$$
