No_6202-complexes_sdf/6BKW-FPZ/2024-09-17-14-21-01/
     RDKit          3D

 26 28  0  0  0  0  0  0  0  0999 V2000
   -7.2496    3.8871   27.4508 C   0  0  0  0  0  0  0  0  0  0  0  0
   -7.6161    2.7143   27.1523 C   0  0  0  0  0  0  0  0  0  0  0  0
   -8.8302    2.4659   26.5056 C   0  0  0  0  0  0  0  0  0  0  0  0
   -8.1584    5.0090   27.3234 C   0  0  0  0  0  0  0  0  0  0  0  0
   -9.3788    4.7965   26.7695 C   0  0  0  0  0  0  0  0  0  0  0  0
   -9.7028    3.5649   26.3276 C   0  0  0  0  0  0  0  0  0  0  0  0
   -6.9225    1.4464   27.3142 C   0  0  0  0  0  0  0  0  0  0  0  0
   -5.6363    1.5459   28.0507 C   0  0  0  0  0  0  0  0  0  0  0  0
   -4.8788    0.3796   28.2663 C   0  0  0  0  0  0  0  0  0  0  0  0
   -5.4437   -0.8222   27.9199 C   0  0  0  0  0  0  0  0  0  0  0  0
   -7.2070    0.1311   27.1365 C   0  0  0  0  0  0  0  0  0  0  0  0
   -6.6365   -0.9233   27.4179 C   0  0  0  0  0  0  0  0  0  0  0  0
   -7.6878    6.3513   27.7979 C   0  0  0  0  0  0  0  0  0  0  0  0
   -3.5257    0.5526   28.8892 C   0  0  0  0  0  0  0  0  0  0  0  0
   -2.7078   -0.4341   28.8958 N   0  0  0  0  0  0  0  0  0  0  0  0
   -1.9308   -0.6138   27.8741 C   0  0  0  0  0  0  0  0  0  0  0  0
   -2.6428   -1.3747   29.9017 C   0  0  2  0  0  0  0  0  0  0  0  0
   -3.2029   -1.0773   31.0843 C   0  0  0  0  0  0  0  0  0  0  0  0
   -3.6280   -0.0797   31.5455 C   0  0  0  0  0  0  0  0  0  0  0  0
   -4.2556    0.0673   32.8823 C   0  0  0  0  0  0  0  0  0  0  0  0
   -4.5507   -1.1448   33.5303 C   0  0  0  0  0  0  0  0  0  0  0  0
   -4.1791   -2.3337   33.0354 C   0  0  0  0  0  0  0  0  0  0  0  0
   -3.4831   -2.3970   31.8708 C   0  0  0  0  0  0  0  0  0  0  0  0
   -1.8876   -2.3549   29.7971 F   0  0  0  0  0  0  0  0  0  0  0  0
   -8.4109    7.4026   27.2792 N   0  0  0  0  0  0  0  0  0  0  0  0
   -5.2791   -1.0372   34.7122 F   0  0  0  0  0  0  0  0  0  0  0  0
  2  7  1  0
  4 13  1  0
  9 14  1  0
 14 15  1  0
 15 16  1  0
 15 17  1  0
 17 18  1  0
 17 24  1  1
 13 25  1  0
 21 26  1  0
  7  8  2  0
  8  9  1  0
  9 10  2  0
 10 12  1  0
 12 11  2  0
 11  7  1  0
  1  2  2  0
  2  3  1  0
  3  6  2  0
  6  5  1  0
  5  4  2  0
  4  1  1  0
 18 19  2  0
 19 20  1  0
 20 21  2  0
 21 22  1  0
 22 23  2  0
 23 18  1  0
M  END
$$$$
