No_6854-complexes_sdf/6BKW-FPZ/2024-09-17-14-21-01/
     RDKit          3D

 16 18  0  0  0  0  0  0  0  0999 V2000
   -7.7129    4.2099   27.0854 C   0  0  0  0  0  0  0  0  0  0  0  0
   -7.7814    5.1722   27.8972 C   0  0  0  0  0  0  0  0  0  0  0  0
   -8.7889    3.2468   27.2220 C   0  0  0  0  0  0  0  0  0  0  0  0
   -9.8927    3.4443   27.8449 C   0  0  0  0  0  0  0  0  0  0  0  0
  -10.8361    2.4277   28.1862 C   0  0  0  0  0  0  0  0  0  0  0  0
   -8.9982    5.6862   28.4918 C   0  0  0  0  0  0  0  0  0  0  0  0
  -10.0005    4.6811   28.6207 C   0  0  0  0  0  0  0  0  0  0  0  0
  -10.6424    1.1325   27.7198 C   0  0  0  0  0  0  0  0  0  0  0  0
   -8.3072    1.9715   26.6030 C   0  0  0  0  0  0  0  0  0  0  0  0
   -7.4049    1.6077   26.0113 C   0  0  0  0  0  0  0  0  0  0  0  0
   -9.4475    0.8767   26.9157 C   0  0  0  0  0  0  0  0  0  0  0  0
   -9.1996   -0.4308   26.3840 C   0  0  2  0  0  0  0  0  0  0  0  0
   -9.9724   -1.1909   26.4175 C   0  0  0  0  0  0  0  0  0  0  0  0
   -7.8066   -0.6974   26.5900 C   0  0  0  0  0  0  0  0  0  0  0  0
   -6.8722    0.2226   25.8184 C   0  0  0  0  0  0  0  0  0  0  0  0
   -9.9470   -2.1756   27.3275 C   0  0  0  0  0  0  0  0  0  0  0  0
  1  2  1  0
  1  3  1  0
  2  6  1  0
  4  7  1  0
  6  7  1  0
  9 10  1  0
 11 12  1  0
 12 13  1  1
 12 14  1  0
 10 15  1  0
 14 15  1  0
 13 16  2  0
  3  4  2  0
  4  5  1  0
  5  8  2  0
  8 11  1  0
 11  9  2  0
  9  3  1  0
M  END
$$$$
