No_6559-complexes_sdf/6BKW-FPZ/2024-09-17-14-21-01/
     RDKit          3D

 30 33  0  0  0  0  0  0  0  0999 V2000
   -7.2496    3.8871   27.4508 C   0  0  0  0  0  0  0  0  0  0  0  0
   -7.6161    2.7143   27.1523 C   0  0  0  0  0  0  0  0  0  0  0  0
   -8.8302    2.4659   26.5056 C   0  0  0  0  0  0  0  0  0  0  0  0
   -8.1584    5.0090   27.3234 C   0  0  0  0  0  0  0  0  0  0  0  0
   -9.3788    4.7965   26.7695 C   0  0  0  0  0  0  0  0  0  0  0  0
   -9.7028    3.5649   26.3276 C   0  0  0  0  0  0  0  0  0  0  0  0
   -6.7792    1.6348   27.3517 N   0  0  0  0  0  0  0  0  0  0  0  0
   -5.5975    1.7266   28.0499 C   0  0  0  0  0  0  0  0  0  0  0  0
   -4.8447    0.4564   28.2274 C   0  0  0  0  0  0  0  0  0  0  0  0
   -5.5143   -0.6462   27.8616 C   0  0  0  0  0  0  0  0  0  0  0  0
   -7.0035    0.2276   27.2315 C   0  0  0  0  0  0  0  0  0  0  0  0
   -7.5398    6.1874   27.8014 N   0  0  0  0  0  0  0  0  0  0  0  0
   -3.5315    0.4277   28.8628 C   0  0  0  0  0  0  0  0  0  0  0  0
   -3.5811    0.4884   30.1772 N   0  0  0  0  0  0  0  0  0  0  0  0
   -2.8608   -0.4176   31.0214 C   0  0  0  0  0  0  0  0  0  0  0  0
   -1.9264   -0.9475   30.4912 F   0  0  0  0  0  0  0  0  0  0  0  0
   -3.1912   -0.5627   32.1595 F   0  0  0  0  0  0  0  0  0  0  0  0
  -10.9869    3.3696   25.6277 C   0  0  0  0  0  0  0  0  0  0  0  0
  -11.0678    3.7307   24.3254 C   0  0  0  0  0  0  0  0  0  0  0  0
  -12.2739    3.6403   23.5489 C   0  0  0  0  0  0  0  0  0  0  0  0
  -11.6362    2.1033   25.8165 C   0  0  0  0  0  0  0  0  0  0  0  0
  -12.8770    1.9075   25.1210 C   0  0  0  0  0  0  0  0  0  0  0  0
  -13.0922    2.6086   23.9395 C   0  0  0  0  0  0  0  0  0  0  0  0
   -7.9037   -0.3527   26.8231 O   0  0  0  0  0  0  0  0  0  0  0  0
  -14.2528    2.3343   23.0915 C   0  0  0  0  0  0  0  0  0  0  0  0
  -15.1013    1.5547   23.2391 C   0  0  0  0  0  0  0  0  0  0  0  0
  -16.1984    1.3405   22.3212 C   0  0  0  0  0  0  0  0  0  0  0  0
  -16.1665    1.9832   21.3861 C   0  0  0  0  0  0  0  0  0  0  0  0
  -15.2599    2.9894   20.9751 C   0  0  0  0  0  0  0  0  0  0  0  0
  -14.2142    3.2621   21.8633 C   0  0  0  0  0  0  0  0  0  0  0  0
  2  7  1  0
  7  8  1  0
  8  9  2  0
  9 10  1  0
  7 11  1  0
 10 11  1  0
  4 12  1  0
  9 13  1  0
 13 14  1  0
 14 15  1  0
 15 16  1  0
 15 17  1  0
  6 18  1  0
 11 24  2  0
 23 25  1  0
 25 26  2  0
 26 27  1  0
 27 28  2  0
 28 29  1  0
 29 30  2  0
 30 25  1  0
  1  2  2  0
  2  3  1  0
  3  6  2  0
  6  5  1  0
  5  4  2  0
  4  1  1  0
 18 19  2  0
 19 20  1  0
 20 23  2  0
 23 22  1  0
 22 21  2  0
 21 18  1  0
M  END
$$$$
