No_6267-complexes_sdf/6BKW-FPZ/2024-09-17-14-21-01/
     RDKit          3D

 14 15  0  0  0  0  0  0  0  0999 V2000
   -7.2496    3.8871   27.4508 C   0  0  0  0  0  0  0  0  0  0  0  0
   -7.9379    4.9063   27.8518 C   0  0  0  0  0  0  0  0  0  0  0  0
   -7.5112    6.1898   27.6280 C   0  0  0  0  0  0  0  0  0  0  0  0
   -9.3085    4.6933   28.2930 C   0  0  0  0  0  0  0  0  0  0  0  0
   -7.7803    2.5137   27.6846 C   0  0  0  0  0  0  0  0  0  0  0  0
   -7.0499    1.4112   27.1570 C   0  0  0  0  0  0  0  0  0  0  0  0
   -7.2196    0.1763   27.6296 C   0  0  0  0  0  0  0  0  0  0  0  0
   -6.1689   -0.5747   28.1018 C   0  0  0  0  0  0  0  0  0  0  0  0
   -6.3706   -1.8147   28.7043 C   0  0  0  0  0  0  0  0  0  0  0  0
   -9.9029    3.4490   28.4214 C   0  0  0  0  0  0  0  0  0  0  0  0
   -9.1093    2.3947   28.0187 C   0  0  0  0  0  0  0  0  0  0  0  0
   -7.7076   -2.2783   28.7985 C   0  0  0  0  0  0  0  0  0  0  0  0
   -8.7512   -1.5539   28.2722 C   0  0  0  0  0  0  0  0  0  0  0  0
   -8.5322   -0.3148   27.7584 C   0  0  0  0  0  0  0  0  0  0  0  0
  2  3  1  0
  5  6  1  0
  6  7  1  0
  1  2  2  0
  2  4  1  0
  4 10  2  0
 10 11  1  0
 11  5  2  0
  5  1  1  0
  7  8  2  0
  8  9  1  0
  9 12  2  0
 12 13  1  0
 13 14  2  0
 14  7  1  0
M  END
$$$$
