No_6177-complexes_sdf/6BKW-FPZ/2024-09-17-14-21-01/
     RDKit          3D

 40 44  0  0  0  0  0  0  0  0999 V2000
   -7.2496    3.8871   27.4508 C   0  0  0  0  0  0  0  0  0  0  0  0
   -7.9379    4.9063   27.8518 C   0  0  0  0  0  0  0  0  0  0  0  0
   -9.3376    4.8647   27.7795 C   0  0  0  0  0  0  0  0  0  0  0  0
   -7.8544    2.6294   27.0414 C   0  0  0  0  0  0  0  0  0  0  0  0
   -9.2665    2.6175   27.0340 C   0  0  0  0  0  0  0  0  0  0  0  0
   -9.9836    3.7042   27.4150 C   0  0  0  0  0  0  0  0  0  0  0  0
   -7.0765    1.4847   26.7707 C   0  0  0  0  0  0  0  0  0  0  0  0
   -6.0002    1.1482   27.6822 C   0  0  0  0  0  0  0  0  0  0  0  0
   -5.2492    0.0038   27.5593 C   0  0  0  0  0  0  0  0  0  0  0  0
   -5.6711   -0.9276   26.6649 C   0  0  0  0  0  0  0  0  0  0  0  0
   -7.4498    0.4080   26.0375 C   0  0  0  0  0  0  0  0  0  0  0  0
   -6.8083   -0.7279   25.9264 C   0  0  0  0  0  0  0  0  0  0  0  0
  -11.4611    3.6307   27.4245 C   0  0  0  0  0  0  0  0  0  0  0  0
  -11.9960    2.6792   28.1760 C   0  0  0  0  0  0  0  0  0  0  0  0
  -13.4253    2.5163   28.3845 C   0  0  0  0  0  0  0  0  0  0  0  0
  -14.2054    3.4957   27.7952 C   0  0  0  0  0  0  0  0  0  0  0  0
  -13.6537    4.5191   27.0618 C   0  0  0  0  0  0  0  0  0  0  0  0
  -12.2719    4.6724   26.9174 C   0  0  0  0  0  0  0  0  0  0  0  0
   -7.2515    6.1693   28.2436 C   0  0  0  0  0  0  0  0  0  0  0  0
   -4.0382   -0.1558   28.4240 C   0  0  1  0  0  0  0  0  0  0  0  0
   -4.0600   -1.2715   29.2561 C   0  0  0  0  0  0  0  0  0  0  0  0
   -4.4884   -1.1501   30.4026 C   0  0  0  0  0  0  0  0  0  0  0  0
   -4.8235   -2.2219   31.3009 C   0  0  0  0  0  0  0  0  0  0  0  0
   -4.3190   -3.4376   30.8942 C   0  0  0  0  0  0  0  0  0  0  0  0
   -3.7211   -3.5599   29.7033 C   0  0  0  0  0  0  0  0  0  0  0  0
   -3.5189   -2.4598   28.8135 C   0  0  0  0  0  0  0  0  0  0  0  0
   -2.9103    0.7516   28.2707 C   0  0  0  0  0  0  0  0  0  0  0  0
   -5.4547   -1.9615   32.6619 C   0  0  0  0  0  0  0  0  0  0  0  0
   -6.6391   -1.6614   32.5774 O   0  0  0  0  0  0  0  0  0  0  0  0
   -4.8322   -2.0976   33.8059 N   0  0  0  0  0  0  0  0  0  0  0  0
   -5.2356   -1.8923   34.9395 C   0  0  0  0  0  0  0  0  0  0  0  0
   -4.9345   -2.8059   35.9510 C   0  0  0  0  0  0  0  0  0  0  0  0
   -5.6193   -2.7446   37.1903 C   0  0  0  0  0  0  0  0  0  0  0  0
   -6.3658   -1.5758   37.5856 C   0  0  0  0  0  0  0  0  0  0  0  0
   -6.3484   -0.5122   36.6650 C   0  0  0  0  0  0  0  0  0  0  0  0
   -5.7583   -0.6294   35.3963 C   0  0  0  0  0  0  0  0  0  0  0  0
   -6.9269   -1.3078   39.1551 Cl  0  0  0  0  0  0  0  0  0  0  0  0
  -13.9705    1.4077   29.1751 C   0  0  0  0  0  0  0  0  0  0  0  0
  -13.2980    0.7651   29.5827 O   0  0  0  0  0  0  0  0  0  0  0  0
  -15.2443    1.3960   29.2426 O   0  0  0  0  0  0  0  0  0  0  0  0
  4  7  1  0
  6 13  1  0
  2 19  1  0
  9 20  1  0
 20 21  1  0
 20 27  1  6
 23 28  1  0
 28 29  2  0
 28 30  1  0
 30 31  1  0
 34 37  1  0
 15 38  1  0
 38 39  1  0
 38 40  2  0
  1  2  2  0
  2  3  1  0
  3  6  2  0
  6  5  1  0
  5  4  2  0
  4  1  1  0
 31 32  2  0
 32 33  1  0
 33 34  2  0
 34 35  1  0
 35 36  2  0
 36 31  1  0
  7  8  2  0
  8  9  1  0
  9 10  2  0
 10 12  1  0
 12 11  2  0
 11  7  1  0
 13 14  2  0
 14 15  1  0
 15 16  2  0
 16 17  1  0
 17 18  2  0
 18 13  1  0
 21 22  2  0
 22 23  1  0
 23 24  2  0
 24 25  1  0
 25 26  2  0
 26 21  1  0
M  END
$$$$
