No_6654-complexes_sdf/6BKW-FPZ/2024-09-17-14-21-01/
     RDKit          3D

 20 23  0  0  0  0  0  0  0  0999 V2000
   -7.9040    3.9820   27.1177 C   0  0  0  0  0  0  0  0  0  0  0  0
   -7.8663    4.8694   27.9238 C   0  0  0  0  0  0  0  0  0  0  0  0
   -9.0491    3.8523   26.2542 C   0  0  0  0  0  0  0  0  0  0  0  0
   -9.7161    4.8785   25.9890 C   0  0  0  0  0  0  0  0  0  0  0  0
   -8.5086    6.0982   27.7096 C   0  0  0  0  0  0  0  0  0  0  0  0
   -9.5239    6.1123   26.7949 C   0  0  0  0  0  0  0  0  0  0  0  0
   -7.1895    2.7399   27.3941 N   0  0  0  0  0  0  0  0  0  0  0  0
   -7.4077    1.5019   26.9160 C   0  0  0  0  0  0  0  0  0  0  0  0
   -6.4784    0.5441   27.3042 C   0  0  0  0  0  0  0  0  0  0  0  0
   -6.6301   -0.7965   27.1357 C   0  0  0  0  0  0  0  0  0  0  0  0
   -7.8736   -1.1549   26.5375 C   0  0  0  0  0  0  0  0  0  0  0  0
   -8.8360   -0.2495   26.2177 C   0  0  0  0  0  0  0  0  0  0  0  0
   -8.6272    1.0898   26.5182 C   0  0  0  0  0  0  0  0  0  0  0  0
   -9.1957    2.3962   25.7756 C   0  0  0  0  0  0  0  0  0  0  0  0
  -10.2032    2.1654   24.7505 C   0  0  0  0  0  0  0  0  0  0  0  0
   -9.6135    1.9960   23.4823 C   0  0  0  0  0  0  0  0  0  0  0  0
  -11.5107    2.1479   24.9693 C   0  0  0  0  0  0  0  0  0  0  0  0
  -10.3423    1.9642   22.3120 C   0  0  0  0  0  0  0  0  0  0  0  0
  -12.3465    2.1241   23.7757 C   0  0  0  0  0  0  0  0  0  0  0  0
  -11.7401    1.9832   22.5011 C   0  0  0  0  0  0  0  0  0  0  0  0
  1  7  1  0
  7  8  1  0
  3 14  1  0
 13 14  1  0
 14 15  1  0
 15 16  2  0
 16 18  1  0
 18 20  2  0
 20 19  1  0
 19 17  2  0
 17 15  1  0
  8  9  2  0
  9 10  1  0
 10 11  2  0
 11 12  1  0
 12 13  2  0
 13  8  1  0
  1  2  2  0
  2  5  1  0
  5  6  2  0
  6  4  1  0
  4  3  2  0
  3  1  1  0
M  END
$$$$
