No_6688-complexes_sdf/6BKW-FPZ/2024-09-17-14-21-01/
     RDKit          3D

 15 16  0  0  0  0  0  0  0  0999 V2000
   -7.9040    3.9820   27.1177 C   0  0  0  0  0  0  0  0  0  0  0  0
   -8.2057    2.8231   26.8733 C   0  0  0  0  0  0  0  0  0  0  0  0
   -7.0130    4.3706   28.1140 C   0  0  0  0  0  0  0  0  0  0  0  0
   -7.3740    1.7588   27.2586 C   0  0  0  0  0  0  0  0  0  0  0  0
   -6.1366    2.1529   27.9510 C   0  0  0  0  0  0  0  0  0  0  0  0
   -5.9453    3.4605   28.2895 C   0  0  0  0  0  0  0  0  0  0  0  0
   -8.9372    5.0925   26.7853 C   0  0  0  0  0  0  0  0  0  0  0  0
   -9.0368    6.2259   27.5837 C   0  0  0  0  0  0  0  0  0  0  0  0
   -9.5466    4.9873   25.5146 C   0  0  0  0  0  0  0  0  0  0  0  0
   -5.1756    1.1067   28.2852 C   0  0  0  0  0  0  0  0  0  0  0  0
   -3.9157    1.3622   28.7014 C   0  0  0  0  0  0  0  0  0  0  0  0
   -5.5812   -0.2687   28.2265 C   0  0  0  0  0  0  0  0  0  0  0  0
   -4.7017   -1.2613   28.6535 C   0  0  0  0  0  0  0  0  0  0  0  0
   -3.0214    0.3685   29.0967 C   0  0  0  0  0  0  0  0  0  0  0  0
   -3.4512   -0.9678   29.0637 C   0  0  0  0  0  0  0  0  0  0  0  0
  1  7  1  0
  7  8  2  0
  7  9  1  0
  5 10  1  0
  1  2  2  0
  2  4  1  0
  4  5  2  0
  5  6  1  0
  6  3  2  0
  3  1  1  0
 10 11  2  0
 11 14  1  0
 14 15  2  0
 15 13  1  0
 13 12  2  0
 12 10  1  0
M  END
$$$$
