No_6067-complexes_sdf/6BKW-FPZ/2024-09-17-14-21-01/
     RDKit          3D

 39 44  0  0  0  0  0  0  0  0999 V2000
   -7.7129    4.2099   27.0854 C   0  0  0  0  0  0  0  0  0  0  0  0
   -8.2112    3.0637   26.9225 C   0  0  0  0  0  0  0  0  0  0  0  0
   -9.4446    2.8304   26.1868 C   0  0  0  0  0  0  0  0  0  0  0  0
   -8.4697    5.3956   26.7238 C   0  0  0  0  0  0  0  0  0  0  0  0
   -9.6172    5.2111   25.9513 C   0  0  0  0  0  0  0  0  0  0  0  0
  -10.0424    3.9782   25.6873 C   0  0  0  0  0  0  0  0  0  0  0  0
   -7.9172    6.7181   27.0124 C   0  0  0  0  0  0  0  0  0  0  0  0
   -8.2161    7.6478   26.4377 F   0  0  0  0  0  0  0  0  0  0  0  0
   -8.2442    6.8573   28.4874 F   0  0  0  0  0  0  0  0  0  0  0  0
   -7.3776    1.6181   27.5019 Cl  0  0  0  0  0  0  0  0  0  0  0  0
  -11.2788    3.8472   24.8743 C   0  0  0  0  0  0  0  0  0  0  0  0
  -11.0941    3.2662   23.6067 C   0  0  0  0  0  0  0  0  0  0  0  0
   -9.8912    2.7060   23.1981 C   0  0  0  0  0  0  0  0  0  0  0  0
   -9.7134    2.0765   21.9531 C   0  0  0  0  0  0  0  0  0  0  0  0
  -10.6717    2.2514   20.9883 C   0  0  0  0  0  0  0  0  0  0  0  0
  -11.8505    2.9589   21.2595 C   0  0  0  0  0  0  0  0  0  0  0  0
  -12.0505    3.4754   22.5161 C   0  0  0  0  0  0  0  0  0  0  0  0
   -6.5615    6.6490   27.1486 F   0  0  0  0  0  0  0  0  0  0  0  0
  -12.5781    4.2429   25.3493 C   0  0  0  0  0  0  0  0  0  0  0  0
  -13.6915    4.1073   24.6604 C   0  0  0  0  0  0  0  0  0  0  0  0
  -13.8433    3.8464   23.5489 C   0  0  0  0  0  0  0  0  0  0  0  0
  -13.3995    3.9820   22.5146 N   0  0  0  0  0  0  0  0  0  0  0  0
  -15.1029    3.1305   23.3616 N   0  0  0  0  0  0  0  0  0  0  0  0
  -15.9965    3.2132   24.2530 C   0  0  0  0  0  0  0  0  0  0  0  0
  -14.9077    3.8950   25.4769 N   0  0  0  0  0  0  0  0  0  0  0  0
  -15.3342    4.1142   26.7863 C   0  0  0  0  0  0  0  0  0  0  0  0
  -14.5155    4.9670   27.5018 C   0  0  0  0  0  0  0  0  0  0  0  0
  -14.8832    5.2838   28.9030 C   0  0  0  0  0  0  0  0  0  0  0  0
  -15.9524    4.6733   29.4519 C   0  0  0  0  0  0  0  0  0  0  0  0
  -16.4282    3.6684   27.3283 C   0  0  0  0  0  0  0  0  0  0  0  0
  -16.7808    3.8962   28.6506 C   0  0  0  0  0  0  0  0  0  0  0  0
  -16.2720    5.0360   30.8679 C   0  0  0  0  0  0  0  0  0  0  0  0
  -16.9750    5.8704   31.1479 O   0  0  0  0  0  0  0  0  0  0  0  0
  -15.8610    4.0042   31.8066 N   0  0  0  0  0  0  0  0  0  0  0  0
  -16.0657    4.2760   33.2415 C   0  0  0  0  0  0  0  0  0  0  0  0
  -15.8005    3.2017   33.9081 C   0  0  0  0  0  0  0  0  0  0  0  0
  -15.2188    2.8630   31.5347 C   0  0  0  0  0  0  0  0  0  0  0  0
  -14.8869    1.9000   32.4598 C   0  0  0  0  0  0  0  0  0  0  0  0
  -15.1487    2.1137   33.7350 C   0  0  0  0  0  0  0  0  0  0  0  0
  4  7  1  0
  7  8  1  0
  7  9  1  0
  2 10  1  0
  6 11  1  0
  7 18  1  0
 11 19  1  0
 19 20  2  0
 20 21  1  0
 17 22  1  0
 21 22  1  0
 21 23  1  0
 23 24  2  0
 20 25  1  0
 24 25  1  0
 25 26  1  0
 29 32  1  0
 32 33  2  0
 32 34  1  0
 34 35  1  0
 34 37  1  0
 36 39  1  0
 38 39  1  0
 11 12  1  0
 35 36  1  0
 38 37  1  0
 12 13  2  0
 13 14  1  0
 14 15  2  0
 15 16  1  0
 16 17  2  0
 17 12  1  0
 26 27  2  0
 27 28  1  0
 28 29  2  0
 29 31  1  0
 31 30  2  0
 30 26  1  0
  1  2  2  0
  2  3  1  0
  3  6  2  0
  6  5  1  0
  5  4  2  0
  4  1  1  0
M  END
$$$$
