No_6962-complexes_sdf/6BKW-FPZ/2024-09-17-14-21-01/
     RDKit          3D

 16 17  0  0  0  0  0  0  0  0999 V2000
   -7.7129    4.2099   27.0854 C   0  0  0  0  0  0  0  0  0  0  0  0
   -8.9133    4.4736   27.0998 C   0  0  0  0  0  0  0  0  0  0  0  0
   -9.4616    5.6470   27.6290 C   0  0  0  0  0  0  0  0  0  0  0  0
   -6.8722    5.1130   27.9248 C   0  0  0  0  0  0  0  0  0  0  0  0
   -7.3801    6.2535   28.4126 C   0  0  0  0  0  0  0  0  0  0  0  0
   -8.6734    6.5530   28.2150 C   0  0  0  0  0  0  0  0  0  0  0  0
   -9.8157    3.4887   26.3527 C   0  0  0  0  0  0  0  0  0  0  0  0
  -10.8123    3.4526   26.2613 C   0  0  0  0  0  0  0  0  0  0  0  0
  -11.6340    2.5208   25.4165 C   0  0  0  0  0  0  0  0  0  0  0  0
  -10.8791    1.5901   24.7382 C   0  0  0  0  0  0  0  0  0  0  0  0
   -9.5141    1.6182   24.7950 C   0  0  0  0  0  0  0  0  0  0  0  0
   -8.8646    2.5393   25.5881 C   0  0  0  0  0  0  0  0  0  0  0  0
   -8.7007    0.5959   24.0852 C   0  0  0  0  0  0  0  0  0  0  0  0
   -9.0172   -0.5557   24.1569 F   0  0  0  0  0  0  0  0  0  0  0  0
   -7.3670    0.6092   24.5582 F   0  0  0  0  0  0  0  0  0  0  0  0
   -8.5652    0.9810   22.7456 F   0  0  0  0  0  0  0  0  0  0  0  0
  2  7  1  0
 11 13  1  0
 13 14  1  0
 13 15  1  0
 13 16  1  0
  1  2  2  0
  2  3  1  0
  3  6  2  0
  6  5  1  0
  5  4  2  0
  4  1  1  0
  7  8  2  0
  8  9  1  0
  9 10  2  0
 10 11  1  0
 11 12  2  0
 12  7  1  0
M  END
$$$$
