No_6308-complexes_sdf/6BKW-FPZ/2024-09-17-14-21-01/
     RDKit          3D

 23 25  0  0  0  0  0  0  0  0999 V2000
   -7.7129    4.2099   27.0854 C   0  0  0  0  0  0  0  0  0  0  0  0
   -7.7814    5.1722   27.8972 C   0  0  0  0  0  0  0  0  0  0  0  0
   -8.8998    3.8713   26.3707 C   0  0  0  0  0  0  0  0  0  0  0  0
   -9.9938    4.6774   26.5446 C   0  0  0  0  0  0  0  0  0  0  0  0
   -8.7789    6.1536   27.9256 C   0  0  0  0  0  0  0  0  0  0  0  0
   -9.9428    5.8398   27.2296 C   0  0  0  0  0  0  0  0  0  0  0  0
   -9.1381    2.6848   25.5884 C   0  0  0  0  0  0  0  0  0  0  0  0
   -9.9226    2.6572   24.4766 C   0  0  0  0  0  0  0  0  0  0  0  0
  -10.8505    3.7500   24.3648 C   0  0  0  0  0  0  0  0  0  0  0  0
  -11.0143    4.6355   25.4469 C   0  0  0  0  0  0  0  0  0  0  0  0
  -11.9167    3.6758   23.3726 C   0  0  0  0  0  0  0  0  0  0  0  0
  -11.6123    4.2406   22.2579 N   0  0  0  0  0  0  0  0  0  0  0  0
  -10.7417    3.6105   21.4705 C   0  0  0  0  0  0  0  0  0  0  0  0
  -10.6545    3.3941   20.4511 C   0  0  0  0  0  0  0  0  0  0  0  0
  -11.7756    3.5805   19.5187 C   0  0  0  0  0  0  0  0  0  0  0  0
  -12.7410    3.0948   19.5552 C   0  0  0  0  0  0  0  0  0  0  0  0
  -12.9648    1.9909   20.4093 C   0  0  0  0  0  0  0  0  0  0  0  0
  -14.2154    1.2761   20.2991 C   0  0  0  0  0  0  0  0  0  0  0  0
  -14.3005    0.1766   21.1496 C   0  0  0  0  0  0  0  0  0  0  0  0
  -13.2876   -0.2116   22.0310 C   0  0  0  0  0  0  0  0  0  0  0  0
  -12.1044    0.4556   22.0319 C   0  0  0  0  0  0  0  0  0  0  0  0
  -11.9002    1.5111   21.2479 C   0  0  0  0  0  0  0  0  0  0  0  0
  -13.0875    3.2829   23.7001 O   0  0  0  0  0  0  0  0  0  0  0  0
  9 11  1  0
 11 12  1  0
 12 13  1  0
 13 14  2  3
 14 15  1  0
 15 16  2  3
 16 17  1  0
 11 23  2  0
 17 18  2  0
 18 19  1  0
 19 20  2  0
 20 21  1  0
 21 22  2  0
 22 17  1  0
  4 10  2  0
 10  9  1  0
  9  8  2  0
  8  7  1  0
  7  3  2  0
  1  2  2  0
  2  5  1  0
  5  6  2  0
  6  4  1  0
  4  3  1  0
  3  1  1  0
M  END
$$$$
