No_6856-complexes_sdf/6BKW-FPZ/2024-09-17-14-21-01/
     RDKit          3D

 16 17  0  0  0  0  0  0  0  0999 V2000
   -7.9040    3.9820   27.1177 C   0  0  0  0  0  0  0  0  0  0  0  0
   -8.2057    2.8231   26.8733 C   0  0  0  0  0  0  0  0  0  0  0  0
   -9.2962    2.4021   26.1155 C   0  0  0  0  0  0  0  0  0  0  0  0
   -8.7358    5.0662   26.5917 C   0  0  0  0  0  0  0  0  0  0  0  0
   -8.4603    6.4492   26.8781 C   0  0  0  0  0  0  0  0  0  0  0  0
  -10.1146    3.3815   25.6105 C   0  0  0  0  0  0  0  0  0  0  0  0
   -9.8194    4.7235   25.8263 C   0  0  0  0  0  0  0  0  0  0  0  0
   -8.5562    7.3988   26.1032 N   0  0  0  0  0  0  0  0  0  0  0  0
   -7.3934    6.5264   27.7647 F   0  0  0  0  0  0  0  0  0  0  0  0
   -7.0852    1.3846   27.6084 Br  0  0  0  0  0  0  0  0  0  0  0  0
  -11.2119    3.0961   24.7133 C   0  0  0  0  0  0  0  0  0  0  0  0
  -12.4026    2.7563   25.2751 C   0  0  0  0  0  0  0  0  0  0  0  0
  -13.5092    2.4971   24.4639 C   0  0  0  0  0  0  0  0  0  0  0  0
  -11.0454    3.1715   23.3510 C   0  0  0  0  0  0  0  0  0  0  0  0
  -12.1160    2.9844   22.4761 C   0  0  0  0  0  0  0  0  0  0  0  0
  -13.3464    2.6406   23.0648 C   0  0  0  0  0  0  0  0  0  0  0  0
  4  5  1  0
  5  8  2  0
  5  9  1  0
  2 10  1  0
  6 11  1  0
  1  2  2  0
  2  3  1  0
  3  6  2  0
  6  7  1  0
  7  4  2  0
  4  1  1  0
 11 12  2  0
 12 13  1  0
 13 16  2  0
 16 15  1  0
 15 14  2  0
 14 11  1  0
M  END
$$$$
