No_6980-complexes_sdf/6BKW-FPZ/2024-09-17-14-21-01/
     RDKit          3D

 21 23  0  0  0  0  0  0  0  0999 V2000
   -7.2496    3.8871   27.4508 C   0  0  0  0  0  0  0  0  0  0  0  0
   -7.6161    2.7143   27.1523 C   0  0  0  0  0  0  0  0  0  0  0  0
   -8.8302    2.4659   26.5056 C   0  0  0  0  0  0  0  0  0  0  0  0
   -8.1584    5.0090   27.3234 C   0  0  0  0  0  0  0  0  0  0  0  0
   -9.3788    4.7965   26.7695 C   0  0  0  0  0  0  0  0  0  0  0  0
   -9.7028    3.5649   26.3276 C   0  0  0  0  0  0  0  0  0  0  0  0
   -6.7182    1.5519   27.3631 C   0  0  0  0  0  0  0  0  0  0  0  0
   -7.0500    0.2083   27.2450 C   0  0  0  0  0  0  0  0  0  0  0  0
   -6.2063   -0.7601   27.5521 C   0  0  0  0  0  0  0  0  0  0  0  0
   -4.9394   -0.4352   28.1041 C   0  0  0  0  0  0  0  0  0  0  0  0
   -4.5672    0.8802   28.2862 C   0  0  0  0  0  0  0  0  0  0  0  0
   -5.4068    1.8597   27.9844 C   0  0  0  0  0  0  0  0  0  0  0  0
   -7.7181    6.2604   27.7511 N   0  0  0  0  0  0  0  0  0  0  0  0
   -4.0136   -1.5635   28.5255 C   0  0  0  0  0  0  0  0  0  0  0  0
   -2.9198   -1.3424   28.7269 C   0  0  0  0  0  0  0  0  0  0  0  0
   -2.3894    0.0860   28.8939 C   0  0  0  0  0  0  0  0  0  0  0  0
   -3.1946    1.1031   28.6829 C   0  0  0  0  0  0  0  0  0  0  0  0
  -11.0046    3.3499   25.6477 C   0  0  0  0  0  0  0  0  0  0  0  0
  -11.0917    3.7548   24.3504 C   0  0  0  0  0  0  0  0  0  0  0  0
  -10.1558    4.2173   23.6007 C   0  0  0  0  0  0  0  0  0  0  0  0
  -10.3204    4.6847   22.2391 C   0  0  0  0  0  0  0  0  0  0  0  0
  2  7  1  0
  4 13  1  0
  6 18  1  0
 18 19  1  0
 19 20  2  3
 20 21  1  0
 11 17  1  0
 17 16  2  0
 16 15  1  0
 15 14  2  0
 14 10  1  0
  1  2  2  0
  2  3  1  0
  3  6  2  0
  6  5  1  0
  5  4  2  0
  4  1  1  0
  7  8  2  0
  8  9  1  0
  9 10  2  0
 10 11  1  0
 11 12  2  0
 12  7  1  0
M  END
$$$$
