No_6765-complexes_sdf/6BKW-FPZ/2024-09-17-14-21-01/
     RDKit          3D

 39 42  0  0  0  0  0  0  0  0999 V2000
   -7.2496    3.8871   27.4508 C   0  0  0  0  0  0  0  0  0  0  0  0
   -8.5096    4.0291   27.2770 C   0  0  0  0  0  0  0  0  0  0  0  0
   -9.3451    2.8786   26.9046 C   0  0  0  0  0  0  0  0  0  0  0  0
   -6.6065    2.5680   27.5073 C   0  0  0  0  0  0  0  0  0  0  0  0
   -7.4233    1.4858   27.2402 C   0  0  0  0  0  0  0  0  0  0  0  0
   -8.7362    1.6525   26.9989 C   0  0  0  0  0  0  0  0  0  0  0  0
   -9.1023    5.3710   27.2131 C   0  0  0  0  0  0  0  0  0  0  0  0
  -10.3176    5.4276   27.6392 F   0  0  0  0  0  0  0  0  0  0  0  0
   -8.3884    6.2664   28.0320 F   0  0  0  0  0  0  0  0  0  0  0  0
   -9.1125    5.9055   25.9675 F   0  0  0  0  0  0  0  0  0  0  0  0
   -6.7694    0.2033   27.2413 C   0  0  0  0  0  0  0  0  0  0  0  0
   -7.3835   -0.9276   27.1373 C   0  0  0  0  0  0  0  0  0  0  0  0
   -6.7256   -2.1927   27.1711 C   0  0  0  0  0  0  0  0  0  0  0  0
   -5.3257    0.1338   27.3553 C   0  0  0  0  0  0  0  0  0  0  0  0
   -4.6461   -1.0778   27.4071 C   0  0  0  0  0  0  0  0  0  0  0  0
   -5.3571   -2.2291   27.2779 C   0  0  0  0  0  0  0  0  0  0  0  0
   -3.1578   -1.0465   27.5213 C   0  0  0  0  0  0  0  0  0  0  0  0
   -2.4617   -0.0244   27.1315 N   0  0  0  0  0  0  0  0  0  0  0  0
   -2.5430   -2.0373   27.9606 O   0  0  0  0  0  0  0  0  0  0  0  0
   -0.9835    0.1561   27.3133 C   0  0  0  0  0  0  0  0  0  0  0  0
   -3.0138    1.1871   26.4500 C   0  0  0  0  0  0  0  0  0  0  0  0
   -7.5139   -3.4255   27.1156 C   0  0  0  0  0  0  0  0  0  0  0  0
   -8.6559   -3.4031   26.6603 C   0  0  0  0  0  0  0  0  0  0  0  0
   -9.4702   -4.6096   26.6148 C   0  0  0  0  0  0  0  0  0  0  0  0
   -8.8536   -5.7583   27.0528 C   0  0  0  0  0  0  0  0  0  0  0  0
   -7.6041   -5.7696   27.5367 C   0  0  0  0  0  0  0  0  0  0  0  0
   -6.8534   -4.5878   27.6258 C   0  0  0  0  0  0  0  0  0  0  0  0
   -6.9714   -7.0150   28.0262 C   0  0  0  0  0  0  0  0  0  0  0  0
   -6.4403   -7.0476   29.1401 N   0  0  0  0  0  0  0  0  0  0  0  0
   -6.5399   -6.3469   30.0847 C   0  0  0  0  0  0  0  0  0  0  0  0
   -7.5473   -5.7852   30.5979 C   0  0  0  0  0  0  0  0  0  0  0  0
   -7.7611   -5.1709   31.3599 C   0  0  0  0  0  0  0  0  0  0  0  0
   -6.6254   -4.6672   32.1981 C   0  0  0  0  0  0  0  0  0  0  0  0
   -5.2567   -6.0029   30.8196 C   0  0  0  0  0  0  0  0  0  0  0  0
   -5.3960   -5.1423   31.9265 C   0  0  0  0  0  0  0  0  0  0  0  0
   -7.0658   -7.9363   27.2125 O   0  0  0  0  0  0  0  0  0  0  0  0
   -3.9737   -6.4570   30.4375 C   0  0  0  0  0  0  0  0  0  0  0  0
   -3.5151   -7.5217   30.7808 C   0  0  0  0  0  0  0  0  0  0  0  0
   -2.1965   -7.9745   30.3730 C   0  0  0  0  0  0  0  0  0  0  0  0
  2  7  1  0
  7  8  1  0
  7  9  1  0
  7 10  1  0
  5 11  1  0
 15 17  1  0
 17 18  1  0
 17 19  2  0
 18 20  1  0
 18 21  1  0
 13 22  1  0
 26 28  1  0
 28 29  1  0
 29 30  1  0
 28 36  2  0
 34 37  1  0
 37 38  2  3
 38 39  1  0
 22 23  2  0
 23 24  1  0
 24 25  2  0
 25 26  1  0
 26 27  2  0
 27 22  1  0
  1  2  2  0
  2  3  1  0
  3  6  2  0
  6  5  1  0
  5  4  2  0
  4  1  1  0
 30 31  2  0
 31 32  1  0
 32 33  2  0
 33 35  1  0
 35 34  2  0
 34 30  1  0
 11 12  2  0
 12 13  1  0
 13 16  2  0
 16 15  1  0
 15 14  2  0
 14 11  1  0
M  END
$$$$
