No_6370-complexes_sdf/6BKW-FPZ/2024-09-17-14-21-01/
     RDKit          3D

 18 19  0  0  0  0  0  0  0  0999 V2000
   -7.9040    3.9820   27.1177 C   0  0  0  0  0  0  0  0  0  0  0  0
   -7.8663    4.8694   27.9238 C   0  0  0  0  0  0  0  0  0  0  0  0
   -9.0501    3.8017   26.2617 C   0  0  0  0  0  0  0  0  0  0  0  0
   -9.1826    2.7026   25.3575 C   0  0  0  0  0  0  0  0  0  0  0  0
   -8.6241    6.0053   27.5974 C   0  0  0  0  0  0  0  0  0  0  0  0
   -9.6577    6.0523   26.7101 C   0  0  0  0  0  0  0  0  0  0  0  0
   -9.7428    4.9359   25.9518 C   0  0  0  0  0  0  0  0  0  0  0  0
  -10.0705    1.8663   25.7848 C   0  0  0  0  0  0  0  0  0  0  0  0
  -10.8132    1.7504   26.6431 C   0  0  0  0  0  0  0  0  0  0  0  0
  -11.6958    0.5736   27.0204 C   0  0  0  0  0  0  0  0  0  0  0  0
  -11.5859   -0.4617   26.1598 C   0  0  0  0  0  0  0  0  0  0  0  0
  -10.1064    0.5182   24.9021 C   0  0  0  0  0  0  0  0  0  0  0  0
  -10.8821   -0.4916   25.1286 C   0  0  0  0  0  0  0  0  0  0  0  0
   -7.1945    2.8293   27.3901 F   0  0  0  0  0  0  0  0  0  0  0  0
  -12.5388   -1.6654   26.4841 C   0  0  0  0  0  0  0  0  0  0  0  0
  -13.6333   -1.5229   26.3037 F   0  0  0  0  0  0  0  0  0  0  0  0
  -11.9873   -2.7031   25.7282 F   0  0  0  0  0  0  0  0  0  0  0  0
  -12.2491   -2.0164   27.7902 F   0  0  0  0  0  0  0  0  0  0  0  0
  3  4  1  0
  4  8  1  0
  1 14  1  0
 11 15  1  0
 15 16  1  0
 15 17  1  0
 15 18  1  0
  1  2  2  0
  2  5  1  0
  5  6  2  0
  6  7  1  0
  7  3  2  0
  3  1  1  0
  8  9  2  0
  9 10  1  0
 10 11  2  0
 11 13  1  0
 13 12  2  0
 12  8  1  0
M  END
$$$$
