No_6669-complexes_sdf/6BKW-FPZ/2024-09-17-14-21-01/
     RDKit          3D

 14 16  0  0  0  0  0  0  0  0999 V2000
   -7.9040    3.9820   27.1177 C   0  0  0  0  0  0  0  0  0  0  0  0
   -7.8663    4.8694   27.9238 C   0  0  0  0  0  0  0  0  0  0  0  0
   -9.0501    3.8017   26.2617 C   0  0  0  0  0  0  0  0  0  0  0  0
  -10.0189    4.7608   26.3707 C   0  0  0  0  0  0  0  0  0  0  0  0
   -8.6770    5.9780   27.9222 C   0  0  0  0  0  0  0  0  0  0  0  0
   -9.8040    5.8752   27.0958 C   0  0  0  0  0  0  0  0  0  0  0  0
   -9.1434    2.6226   25.4210 C   0  0  0  0  0  0  0  0  0  0  0  0
  -10.0013    2.6971   24.3228 C   0  0  0  0  0  0  0  0  0  0  0  0
  -10.0948    1.5756   23.4600 C   0  0  0  0  0  0  0  0  0  0  0  0
  -10.8592    1.6325   22.2627 C   0  0  0  0  0  0  0  0  0  0  0  0
  -11.5542    2.8513   22.0179 C   0  0  0  0  0  0  0  0  0  0  0  0
  -11.4543    3.9331   22.8524 C   0  0  0  0  0  0  0  0  0  0  0  0
  -10.6143    3.8819   23.9902 C   0  0  0  0  0  0  0  0  0  0  0  0
  -10.6508    5.0348   24.9503 C   0  0  0  0  0  0  0  0  0  0  0  0
  4 14  2  0
 14 13  1  0
  8  7  1  0
  7  3  2  0
  8  9  2  0
  9 10  1  0
 10 11  2  0
 11 12  1  0
 12 13  2  0
 13  8  1  0
  1  2  2  0
  2  5  1  0
  5  6  2  0
  6  4  1  0
  4  3  1  0
  3  1  1  0
M  END
$$$$
