No_6766-complexes_sdf/6BKW-FPZ/2024-09-17-14-21-01/
     RDKit          3D

 22 25  0  0  0  0  0  0  0  0999 V2000
   -7.7129    4.2099   27.0854 C   0  0  0  0  0  0  0  0  0  0  0  0
   -7.7814    5.1722   27.8972 C   0  0  0  0  0  0  0  0  0  0  0  0
   -8.8776    3.8408   26.3416 C   0  0  0  0  0  0  0  0  0  0  0  0
   -8.9136    2.6330   25.5655 C   0  0  0  0  0  0  0  0  0  0  0  0
   -8.8361    6.1389   27.9032 C   0  0  0  0  0  0  0  0  0  0  0  0
   -9.9718    4.7048   26.3433 C   0  0  0  0  0  0  0  0  0  0  0  0
   -9.9205    5.8499   27.1013 C   0  0  0  0  0  0  0  0  0  0  0  0
   -8.3041    1.4977   26.1841 C   0  0  0  0  0  0  0  0  0  0  0  0
   -7.9910    1.5219   27.5022 C   0  0  0  0  0  0  0  0  0  0  0  0
   -8.1696    0.3368   25.3484 C   0  0  0  0  0  0  0  0  0  0  0  0
   -7.4170    0.2069   28.0260 C   0  0  0  0  0  0  0  0  0  0  0  0
   -7.5889   -0.7993   25.8778 C   0  0  0  0  0  0  0  0  0  0  0  0
   -7.1934   -0.8465   27.2205 C   0  0  0  0  0  0  0  0  0  0  0  0
   -9.7460    2.5761   24.6609 O   0  0  0  0  0  0  0  0  0  0  0  0
   -6.6515   -2.0669   27.8222 C   0  0  0  0  0  0  0  0  0  0  0  0
   -5.5069   -2.1235   28.1223 N   0  0  0  0  0  0  0  0  0  0  0  0
   -4.9009   -2.9557   28.6794 C   0  0  0  0  0  0  0  0  0  0  0  0
   -3.5838   -2.6566   29.1085 C   0  0  0  0  0  0  0  0  0  0  0  0
   -3.1474   -1.3497   28.7002 C   0  0  0  0  0  0  0  0  0  0  0  0
   -3.8416   -0.3837   28.1115 C   0  0  0  0  0  0  0  0  0  0  0  0
   -5.1200   -0.7374   27.8096 C   0  0  2  0  0  0  0  0  0  0  0  0
   -5.6929    0.4112   27.3436 C   0  0  0  0  0  0  0  0  0  0  0  0
  3  4  1  0
  4  8  1  0
  4 14  2  0
 13 15  1  0
 15 16  1  0
 16 17  1  0
 18 19  1  0
 16 21  1  0
 21 20  1  1
 11 22  1  0
 21 22  1  0
 17 18  1  0
 19 20  1  0
  8  9  2  0
  9 11  1  0
 11 13  2  0
 13 12  1  0
 12 10  2  0
 10  8  1  0
  1  2  2  0
  2  5  1  0
  5  7  2  0
  7  6  1  0
  6  3  2  0
  3  1  1  0
M  END
$$$$
