No_6826-complexes_sdf/6BKW-FPZ/2024-09-17-14-21-01/
     RDKit          3D

 30 33  0  0  0  0  0  0  0  0999 V2000
   -7.9040    3.9820   27.1177 C   0  0  0  0  0  0  0  0  0  0  0  0
   -9.0711    4.3164   27.0630 C   0  0  0  0  0  0  0  0  0  0  0  0
   -9.9692    3.7224   26.1073 C   0  0  0  0  0  0  0  0  0  0  0  0
   -6.9787    4.6761   28.1003 C   0  0  0  0  0  0  0  0  0  0  0  0
   -9.4538    2.6801   25.3673 C   0  0  0  0  0  0  0  0  0  0  0  0
   -8.1927    2.1957   25.6621 C   0  0  0  0  0  0  0  0  0  0  0  0
   -7.4333    2.8255   26.6299 C   0  0  0  0  0  0  0  0  0  0  0  0
  -10.1852    1.8711   24.3912 C   0  0  0  0  0  0  0  0  0  0  0  0
  -10.6396    2.5639   23.2792 C   0  0  0  0  0  0  0  0  0  0  0  0
  -11.2890    1.8722   22.1870 C   0  0  0  0  0  0  0  0  0  0  0  0
  -11.3780    0.4622   22.3055 C   0  0  0  0  0  0  0  0  0  0  0  0
  -10.2666    0.5293   24.2888 C   0  0  0  0  0  0  0  0  0  0  0  0
  -10.8282   -0.1638   23.3277 C   0  0  0  0  0  0  0  0  0  0  0  0
   -7.4910    5.7972   28.6615 N   0  0  0  0  0  0  0  0  0  0  0  0
   -5.7418    4.3055   28.2785 N   0  0  0  0  0  0  0  0  0  0  0  0
  -10.4449    3.9349   23.2309 O   0  0  0  0  0  0  0  0  0  0  0  0
  -10.8961    4.5670   22.0423 C   0  0  0  0  0  0  0  0  0  0  0  0
  -12.2356   -0.4153   20.8598 Br  0  0  0  0  0  0  0  0  0  0  0  0
  -10.9891   -1.6790   23.3936 C   0  0  0  0  0  0  0  0  0  0  0  0
  -10.0586   -2.2362   24.1072 C   0  0  0  0  0  0  0  0  0  0  0  0
   -9.4889   -1.6556   25.3079 C   0  0  0  0  0  0  0  0  0  0  0  0
   -9.5318   -0.2890   25.3907 C   0  0  0  0  0  0  0  0  0  0  0  0
   -8.8178   -2.4730   26.2415 C   0  0  2  0  0  0  0  0  0  0  0  0
   -8.8188   -1.9541   27.5648 C   0  0  0  0  0  0  0  0  0  0  0  0
   -7.7591   -2.2896   28.4477 C   0  0  0  0  0  0  0  0  0  0  0  0
   -6.9468   -3.2950   28.1596 C   0  0  0  0  0  0  0  0  0  0  0  0
   -6.9877   -3.8154   26.8760 C   0  0  0  0  0  0  0  0  0  0  0  0
   -7.8116   -3.3221   25.9163 C   0  0  0  0  0  0  0  0  0  0  0  0
   -5.8614   -3.8512   29.3603 Cl  0  0  0  0  0  0  0  0  0  0  0  0
   -7.7605   -3.8281   24.7106 O   0  0  0  0  0  0  0  0  0  0  0  0
  1  4  1  0
  5  8  1  0
  4 14  1  0
  4 15  1  0
  9 16  1  0
 16 17  1  0
 11 18  1  0
 23 21  1  6
 23 24  1  0
 25 26  1  0
 23 28  1  0
 27 28  1  0
 26 29  1  0
 28 30  2  0
 24 25  1  0
 26 27  1  0
 13 19  2  0
 19 20  1  0
 20 21  2  0
 21 22  1  0
 22 12  2  0
  8  9  2  0
  9 10  1  0
 10 11  2  0
 11 13  1  0
 13 12  1  0
 12  8  1  0
  1  2  2  0
  2  3  1  0
  3  5  2  0
  5  6  1  0
  6  7  2  0
  7  1  1  0
M  END
$$$$
