No_6317-complexes_sdf/6BKW-FPZ/2024-09-17-14-21-01/
     RDKit          3D

 22 24  0  0  0  0  0  0  0  0999 V2000
   -7.9040    3.9820   27.1177 C   0  0  0  0  0  0  0  0  0  0  0  0
   -9.0711    4.3164   27.0630 C   0  0  0  0  0  0  0  0  0  0  0  0
   -9.5294    5.4517   27.7215 C   0  0  0  0  0  0  0  0  0  0  0  0
   -6.9328    4.7309   27.8881 C   0  0  0  0  0  0  0  0  0  0  0  0
   -7.3377    5.8421   28.5537 C   0  0  0  0  0  0  0  0  0  0  0  0
   -8.6411    6.2609   28.3972 C   0  0  0  0  0  0  0  0  0  0  0  0
  -10.0467    3.4917   26.2630 C   0  0  0  0  0  0  0  0  0  0  0  0
   -9.5472    2.5898   25.4413 C   0  0  0  0  0  0  0  0  0  0  0  0
  -10.4174    1.8980   24.6013 C   0  0  0  0  0  0  0  0  0  0  0  0
  -11.7396    2.2647   24.5006 C   0  0  0  0  0  0  0  0  0  0  0  0
  -11.3141    3.7917   25.8916 C   0  0  0  0  0  0  0  0  0  0  0  0
  -12.1712    3.2781   25.1744 C   0  0  0  0  0  0  0  0  0  0  0  0
   -9.8856    0.6897   23.7998 C   0  0  0  0  0  0  0  0  0  0  0  0
   -9.8984    0.7460   22.5327 C   0  0  0  0  0  0  0  0  0  0  0  0
  -10.1782    1.7681   21.7320 C   0  0  0  0  0  0  0  0  0  0  0  0
  -10.3304    3.0453   22.2634 C   0  0  0  0  0  0  0  0  0  0  0  0
  -10.4841    4.1582   21.2154 C   0  0  0  0  0  0  0  0  0  0  0  0
  -10.6066    5.4931   21.7195 C   0  0  0  0  0  0  0  0  0  0  0  0
  -10.5909    5.6561   23.1717 C   0  0  0  0  0  0  0  0  0  0  0  0
  -10.3123    3.6982   23.4342 N   0  0  0  0  0  0  0  0  0  0  0  0
   -9.9169    5.3296   23.4997 C   0  0  0  0  0  0  0  0  0  0  0  0
   -9.4610    5.4438   24.6478 O   0  0  0  0  0  0  0  0  0  0  0  0
  2  7  1  0
  9 13  1  0
 13 14  1  0
 14 15  2  3
 15 16  1  0
 16 17  2  0
 17 18  1  0
 18 19  2  0
 16 20  1  0
 19 20  1  0
 19 21  1  0
 21 22  1  0
  7  8  2  0
  8  9  1  0
  9 10  2  0
 10 12  1  0
 12 11  2  0
 11  7  1  0
  1  2  2  0
  2  3  1  0
  3  6  2  0
  6  5  1  0
  5  4  2  0
  4  1  1  0
M  END
$$$$
