No_6958-complexes_sdf/6BKW-FPZ/2024-09-17-14-21-01/
     RDKit          3D

 40 45  0  0  0  0  0  0  0  0999 V2000
   -7.7129    4.2099   27.0854 C   0  0  0  0  0  0  0  0  0  0  0  0
   -7.7814    5.1722   27.8972 C   0  0  0  0  0  0  0  0  0  0  0  0
   -8.7889    3.2468   27.2220 C   0  0  0  0  0  0  0  0  0  0  0  0
   -8.5940    1.9755   26.6525 C   0  0  0  0  0  0  0  0  0  0  0  0
   -9.4990    1.3567   25.9026 C   0  0  0  0  0  0  0  0  0  0  0  0
   -8.9326    5.8778   28.0043 C   0  0  0  0  0  0  0  0  0  0  0  0
   -9.9466    3.8809   27.5976 C   0  0  0  0  0  0  0  0  0  0  0  0
  -11.0926    2.9249   27.6987 C   0  0  0  0  0  0  0  0  0  0  0  0
  -10.0935    5.1132   28.0874 C   0  0  0  0  0  0  0  0  0  0  0  0
   -9.0835    0.1868   25.2649 C   0  0  2  0  0  0  0  0  0  0  0  0
  -12.3213    3.2532   28.1553 C   0  0  0  0  0  0  0  0  0  0  0  0
  -11.0616    1.8642   26.5154 C   0  0  0  0  0  0  0  0  0  0  0  0
   -9.5060    0.2749   23.9279 C   0  0  0  0  0  0  0  0  0  0  0  0
  -12.6203    2.5485   29.4033 C   0  0  0  0  0  0  0  0  0  0  0  0
  -13.1852    4.1035   27.5850 C   0  0  0  0  0  0  0  0  0  0  0  0
  -10.4858   -0.1418   23.5113 C   0  0  0  0  0  0  0  0  0  0  0  0
  -10.9325    0.1849   22.1525 C   0  0  0  0  0  0  0  0  0  0  0  0
  -10.4691    1.1594   21.6405 C   0  0  0  0  0  0  0  0  0  0  0  0
   -9.2780    1.8148   21.9739 C   0  0  0  0  0  0  0  0  0  0  0  0
   -8.8299    1.4270   23.2424 C   0  0  0  0  0  0  0  0  0  0  0  0
  -13.1517    1.4389   29.5152 C   0  0  0  0  0  0  0  0  0  0  0  0
  -14.0481    1.0320   30.4826 C   0  0  0  0  0  0  0  0  0  0  0  0
  -14.2509    1.8714   31.6052 C   0  0  0  0  0  0  0  0  0  0  0  0
  -13.7454    3.2175   31.5332 C   0  0  0  0  0  0  0  0  0  0  0  0
  -13.0687    3.5971   30.4772 C   0  0  0  0  0  0  0  0  0  0  0  0
   -9.2690   -1.0829   25.9867 C   0  0  2  0  0  0  0  0  0  0  0  0
   -8.1410   -1.5898   26.5364 C   0  0  0  0  0  0  0  0  0  0  0  0
   -6.8933   -1.1453   26.2018 C   0  0  0  0  0  0  0  0  0  0  0  0
   -5.9416   -1.1183   27.3033 C   0  0  0  0  0  0  0  0  0  0  0  0
   -4.8311   -0.1674   27.3192 C   0  0  0  0  0  0  0  0  0  0  0  0
   -4.9739    1.0200   28.0171 C   0  0  0  0  0  0  0  0  0  0  0  0
   -4.0602    2.0689   27.9451 C   0  0  0  0  0  0  0  0  0  0  0  0
   -2.9604    1.7846   27.1873 N   0  0  0  0  0  0  0  0  0  0  0  0
   -3.7062   -0.1283   26.5143 C   0  0  0  0  0  0  0  0  0  0  0  0
   -2.8054    0.7928   26.4898 N   0  0  0  0  0  0  0  0  0  0  0  0
   -6.0397   -1.9593   28.3945 C   0  0  0  0  0  0  0  0  0  0  0  0
   -7.3092   -2.5579   28.6280 C   0  0  0  0  0  0  0  0  0  0  0  0
   -8.3552   -2.3216   27.7351 C   0  0  0  0  0  0  0  0  0  0  0  0
  -10.4184   -1.8055   25.8188 C   0  0  0  0  0  0  0  0  0  0  0  0
  -10.1881   -3.1205   25.8122 C   0  0  0  0  0  0  0  0  0  0  0  0
 10  5  1  1
  8 11  1  0
 10 13  1  0
 11 14  1  0
 11 15  1  0
 10 26  1  0
 26 27  1  0
 29 30  1  0
 26 39  1  6
 39 40  1  0
 30 31  2  0
 31 32  1  0
 32 33  2  0
 33 35  1  0
 35 34  2  0
 34 30  1  0
 27 28  2  0
 28 29  1  0
 29 36  2  0
 36 37  1  0
 37 38  2  0
 38 27  1  0
  1  2  2  0
  2  6  1  0
  6  9  2  0
  9  7  1  0
  3  1  1  0
  3  4  2  0
  4  5  1  0
  5 12  2  0
 12  8  1  0
  8  7  2  0
  7  3  1  0
 13 16  2  0
 16 17  1  0
 17 18  2  0
 18 19  1  0
 19 20  2  0
 20 13  1  0
 14 21  2  0
 21 22  1  0
 22 23  2  0
 23 24  1  0
 24 25  2  0
 25 14  1  0
M  END
$$$$
