No_6917-complexes_sdf/6BKW-FPZ/2024-09-17-14-21-01/
     RDKit          3D

 16 16  0  0  0  0  0  0  0  0999 V2000
   -7.9040    3.9820   27.1177 C   0  0  0  0  0  0  0  0  0  0  0  0
   -9.0711    4.3164   27.0630 C   0  0  1  0  0  0  0  0  0  0  0  0
   -9.5294    5.4517   27.7215 C   0  0  0  0  0  0  0  0  0  0  0  0
   -9.9845    3.5634   26.2189 C   0  0  0  0  0  0  0  0  0  0  0  0
  -10.7684    4.0785   25.5182 C   0  0  1  0  0  0  0  0  0  0  0  0
   -7.3640    3.5171   28.2133 N   0  0  0  0  0  0  0  0  0  0  0  0
  -10.2252    4.7694   24.4759 C   0  0  0  0  0  0  0  0  0  0  0  0
   -6.0525    2.8913   28.0832 C   0  0  0  0  0  0  0  0  0  0  0  0
   -5.9321    1.5112   28.1000 C   0  0  0  0  0  0  0  0  0  0  0  0
   -4.6199    0.9267   28.1553 C   0  0  0  0  0  0  0  0  0  0  0  0
   -4.5748   -0.2799   28.8176 C   0  0  0  0  0  0  0  0  0  0  0  0
   -5.7066   -1.1015   28.9261 C   0  0  0  0  0  0  0  0  0  0  0  0
   -6.9211   -0.6125   28.4309 C   0  0  0  0  0  0  0  0  0  0  0  0
   -7.0154    0.7164   28.1366 C   0  0  0  0  0  0  0  0  0  0  0  0
  -11.9507    3.2517   24.9424 C   0  0  0  0  0  0  0  0  0  0  0  0
  -12.8100    2.7524   25.6045 C   0  0  0  0  0  0  0  0  0  0  0  0
  1  2  1  0
  2  3  1  6
  2  4  1  0
  4  5  1  0
  1  6  1  0
  5  7  1  6
  6  8  1  0
  8  9  1  0
  5 15  1  0
 15 16  2  0
  9 10  2  0
 10 11  1  0
 11 12  2  0
 12 13  1  0
 13 14  2  0
 14  9  1  0
M  END
$$$$
