No_6029-complexes_sdf/6BKW-FPZ/2024-09-17-14-21-01/
     RDKit          3D

 24 26  0  0  0  0  0  0  0  0999 V2000
   -7.7129    4.2099   27.0854 C   0  0  0  0  0  0  0  0  0  0  0  0
   -8.9133    4.4736   27.0998 C   0  0  0  0  0  0  0  0  0  0  0  0
   -9.4643    5.5426   27.7628 C   0  0  0  0  0  0  0  0  0  0  0  0
   -7.2009    2.9448   26.6134 C   0  0  0  0  0  0  0  0  0  0  0  0
   -8.1365    1.9533   26.2981 C   0  0  0  0  0  0  0  0  0  0  0  0
   -9.4501    2.2651   26.2497 C   0  0  0  0  0  0  0  0  0  0  0  0
   -9.8615    3.4703   26.6763 C   0  0  0  0  0  0  0  0  0  0  0  0
   -7.5839    0.6450   25.9087 C   0  0  0  0  0  0  0  0  0  0  0  0
   -6.7946   -0.0476   26.8775 C   0  0  0  0  0  0  0  0  0  0  0  0
   -6.6471    0.3751   28.0456 C   0  0  0  0  0  0  0  0  0  0  0  0
   -5.7442   -0.2765   29.0227 C   0  0  0  0  0  0  0  0  0  0  0  0
   -5.1123   -1.4175   28.6061 C   0  0  0  0  0  0  0  0  0  0  0  0
   -5.3067   -1.8502   27.3025 C   0  0  0  0  0  0  0  0  0  0  0  0
   -6.1316   -1.1792   26.4364 C   0  0  0  0  0  0  0  0  0  0  0  0
   -4.1671   -2.0700   29.5382 C   0  0  0  0  0  0  0  0  0  0  0  0
   -3.8576   -1.6351   30.6056 C   0  0  0  0  0  0  0  0  0  0  0  0
   -3.0314   -2.2722   31.6017 C   0  0  0  0  0  0  0  0  0  0  0  0
   -2.4180   -3.4247   31.1947 C   0  0  0  0  0  0  0  0  0  0  0  0
   -3.6464   -3.3458   29.1760 C   0  0  0  0  0  0  0  0  0  0  0  0
   -2.7906   -3.9757   30.0253 C   0  0  0  0  0  0  0  0  0  0  0  0
   -7.8761    0.1899   24.7994 O   0  0  0  0  0  0  0  0  0  0  0  0
   -2.2217   -5.2768   29.6407 C   0  0  0  0  0  0  0  0  0  0  0  0
   -2.4943   -5.8308   28.7050 N   0  0  0  0  0  0  0  0  0  0  0  0
   -1.9479   -7.0573   28.3631 C   0  0  0  0  0  0  0  0  0  0  0  0
  1  2  1  0
  2  3  2  0
  1  4  1  0
  4  5  1  0
  5  6  1  0
  2  7  1  0
  6  7  1  0
  5  8  1  0
  8  9  1  0
 12 15  1  0
  8 21  2  0
 20 22  1  0
 22 23  2  3
 23 24  1  0
 15 16  2  0
 16 17  1  0
 17 18  2  0
 18 20  1  0
 20 19  2  0
 19 15  1  0
  9 10  2  0
 10 11  1  0
 11 12  2  0
 12 13  1  0
 13 14  2  0
 14  9  1  0
M  END
$$$$
