No_6824-complexes_sdf/6BKW-FPZ/2024-09-17-14-21-01/
     RDKit          3D

 35 38  0  0  0  0  0  0  0  0999 V2000
   -7.2496    3.8871   27.4508 C   0  0  0  0  0  0  0  0  0  0  0  0
   -8.5096    4.0291   27.2770 C   0  0  0  0  0  0  0  0  0  0  0  0
   -9.2669    5.1645   27.5845 C   0  0  0  0  0  0  0  0  0  0  0  0
   -8.4566    6.3212   27.8001 C   0  0  0  0  0  0  0  0  0  0  0  0
   -6.6044    2.5801   27.2072 C   0  0  0  0  0  0  0  0  0  0  0  0
   -7.3819    1.4822   27.0097 C   0  0  0  0  0  0  0  0  0  0  0  0
   -6.7983    0.2818   26.8400 C   0  0  0  0  0  0  0  0  0  0  0  0
   -8.7959    1.7008   26.9343 C   0  0  0  0  0  0  0  0  0  0  0  0
   -9.3944    2.8866   27.1297 C   0  0  0  0  0  0  0  0  0  0  0  0
   -6.9203   -0.4448   25.9707 O   0  0  0  0  0  0  0  0  0  0  0  0
   -6.1752   -0.2225   27.9613 O   0  0  0  0  0  0  0  0  0  0  0  0
  -10.1725    5.1273   28.8052 C   0  0  0  0  0  0  0  0  0  0  0  0
  -10.1225    5.5228   26.2901 C   0  0  0  0  0  0  0  0  0  0  0  0
   -5.9492   -1.4803   28.2983 C   0  0  0  0  0  0  0  0  0  0  0  0
   -4.9449   -1.5796   29.1197 C   0  0  0  0  0  0  0  0  0  0  0  0
   -4.8600   -2.4482   29.8675 C   0  0  0  0  0  0  0  0  0  0  0  0
   -3.7904   -2.4573   30.9590 C   0  0  0  0  0  0  0  0  0  0  0  0
   -2.8755   -1.4081   31.0438 C   0  0  0  0  0  0  0  0  0  0  0  0
   -3.0623   -0.3300   30.1326 C   0  0  0  0  0  0  0  0  0  0  0  0
   -4.0808   -0.3525   29.2575 C   0  0  0  0  0  0  0  0  0  0  0  0
   -1.8335   -1.3595   32.0848 C   0  0  0  0  0  0  0  0  0  0  0  0
   -2.1248   -2.0231   33.0712 O   0  0  0  0  0  0  0  0  0  0  0  0
   -0.9048   -0.5841   31.9841 O   0  0  0  0  0  0  0  0  0  0  0  0
  -10.9282    4.5218   25.8630 C   0  0  0  0  0  0  0  0  0  0  0  0
  -10.1411    3.1718   25.7018 C   0  0  1  0  0  0  0  0  0  0  0  0
   -9.1319    3.1412   24.6310 C   0  0  0  0  0  0  0  0  0  0  0  0
  -11.1112    2.0097   25.4596 C   0  0  0  0  0  0  0  0  0  0  0  0
  -12.0495    1.8407   26.2428 C   0  0  0  0  0  0  0  0  0  0  0  0
  -10.8705    1.1941   24.3380 C   0  0  0  0  0  0  0  0  0  0  0  0
  -11.5942    0.0760   24.2709 C   0  0  0  0  0  0  0  0  0  0  0  0
  -12.8678    0.6955   26.1869 C   0  0  0  0  0  0  0  0  0  0  0  0
  -12.6497   -0.1353   25.1246 C   0  0  0  0  0  0  0  0  0  0  0  0
  -13.4728   -1.3362   24.9378 C   0  0  0  0  0  0  0  0  0  0  0  0
  -13.4715   -2.0841   24.2143 N   0  0  0  0  0  0  0  0  0  0  0  0
  -14.3294   -3.1672   24.1427 C   0  0  0  0  0  0  0  0  0  0  0  0
  2  3  1  0
  3  4  1  0
  6  7  1  0
  7 10  2  0
  7 11  1  0
  3 12  1  0
  3 13  1  0
 11 14  1  0
 14 15  1  0
 18 21  1  0
 21 22  2  0
 21 23  1  0
 13 24  1  0
  9 25  1  0
 24 25  1  0
 25 26  1  6
 25 27  1  0
 32 33  1  0
 33 34  2  3
 34 35  1  0
 15 16  2  0
 16 17  1  0
 17 18  2  0
 18 19  1  0
 19 20  2  0
 20 15  1  0
 27 28  2  0
 28 31  1  0
 31 32  2  0
 32 30  1  0
 30 29  2  0
 29 27  1  0
  1  2  2  0
  2  9  1  0
  9  8  2  0
  8  6  1  0
  6  5  2  0
  5  1  1  0
M  END
$$$$
