No_6334-complexes_sdf/6BKW-FPZ/2024-09-17-14-21-01/
     RDKit          3D

 14 15  0  0  0  0  0  0  0  0999 V2000
   -7.7129    4.2099   27.0854 C   0  0  0  0  0  0  0  0  0  0  0  0
   -7.7814    5.1722   27.8972 C   0  0  0  0  0  0  0  0  0  0  0  0
   -7.2983    2.9533   27.5684 C   0  0  0  0  0  0  0  0  0  0  0  0
   -7.6908    1.8111   26.9553 C   0  0  1  0  0  0  0  0  0  0  0  0
   -8.6533    1.9165   25.9430 C   0  0  0  0  0  0  0  0  0  0  0  0
   -9.2376    3.0581   25.6387 C   0  0  0  0  0  0  0  0  0  0  0  0
   -8.8901    4.1760   26.2867 C   0  0  0  0  0  0  0  0  0  0  0  0
   -8.3432    6.4292   27.5920 N   0  0  0  0  0  0  0  0  0  0  0  0
  -10.2443    3.1171   24.5317 C   0  0  0  0  0  0  0  0  0  0  0  0
   -9.5754    5.3603   25.9168 C   0  0  0  0  0  0  0  0  0  0  0  0
   -9.2953    6.5700   26.6523 C   0  0  0  0  0  0  0  0  0  0  0  0
   -7.0263    0.5162   27.2494 C   0  0  0  0  0  0  0  0  0  0  0  0
   -7.5784   -0.6692   26.9434 C   0  0  0  0  0  0  0  0  0  0  0  0
   -6.9443   -1.8140   27.3291 C   0  0  0  0  0  0  0  0  0  0  0  0
  1  3  1  0
  4  3  1  6
  4  5  1  0
  5  6  1  0
  6  7  1  0
  6  9  1  0
  4 12  1  0
 12 13  2  3
 13 14  1  0
  1  2  2  0
  2  8  1  0
  8 11  2  0
 11 10  1  0
 10  7  2  0
  7  1  1  0
M  END
$$$$
