No_6660-complexes_sdf/6BKW-FPZ/2024-09-17-14-21-01/
     RDKit          3D

 17 18  0  0  0  0  0  0  0  0999 V2000
   -7.9040    3.9820   27.1177 C   0  0  0  0  0  0  0  0  0  0  0  0
   -7.8663    4.8694   27.9238 C   0  0  1  0  0  0  0  0  0  0  0  0
   -7.4547    2.7080   27.4594 C   0  0  0  0  0  0  0  0  0  0  0  0
   -7.9337    1.5946   26.8372 C   0  0  0  0  0  0  0  0  0  0  0  0
   -8.9032    1.7881   25.8510 C   0  0  0  0  0  0  0  0  0  0  0  0
   -9.3787    2.9871   25.5530 C   0  0  0  0  0  0  0  0  0  0  0  0
   -8.9781    4.0300   26.2200 C   0  0  0  0  0  0  0  0  0  0  0  0
   -7.0697    4.8849   28.9766 F   0  0  0  0  0  0  0  0  0  0  0  0
   -8.4034    6.2587   27.6886 C   0  0  0  0  0  0  0  0  0  0  0  0
   -8.3913    6.9653   26.8765 C   0  0  0  0  0  0  0  0  0  0  0  0
   -7.5149    6.8042   25.7435 C   0  0  0  0  0  0  0  0  0  0  0  0
   -7.3588    0.2675   27.1433 C   0  0  0  0  0  0  0  0  0  0  0  0
   -8.0874   -0.8157   27.3097 C   0  0  0  0  0  0  0  0  0  0  0  0
   -7.5419   -2.0387   27.7490 C   0  0  0  0  0  0  0  0  0  0  0  0
   -5.9885    0.1731   27.4842 C   0  0  0  0  0  0  0  0  0  0  0  0
   -5.4132   -0.9759   27.9798 C   0  0  0  0  0  0  0  0  0  0  0  0
   -6.2195   -2.0861   28.1100 C   0  0  0  0  0  0  0  0  0  0  0  0
  1  2  1  0
  2  8  1  6
  2  9  1  0
  9 10  2  3
 10 11  1  0
  4 12  1  0
 12 13  2  0
 13 14  1  0
 14 17  2  0
 17 16  1  0
 16 15  2  0
 15 12  1  0
  1  3  2  0
  3  4  1  0
  4  5  2  0
  5  6  1  0
  6  7  2  0
  7  1  1  0
M  END
$$$$
