No_6233-complexes_sdf/6BKW-FPZ/2024-09-17-14-21-01/
     RDKit          3D

 28 31  0  0  0  0  0  0  0  0999 V2000
   -7.7129    4.2099   27.0854 C   0  0  0  0  0  0  0  0  0  0  0  0
   -7.7814    5.1722   27.8972 C   0  0  0  0  0  0  0  0  0  0  0  0
   -8.8998    3.8713   26.3707 C   0  0  0  0  0  0  0  0  0  0  0  0
   -9.9938    4.6774   26.5446 C   0  0  0  0  0  0  0  0  0  0  0  0
   -8.7789    6.1536   27.9256 C   0  0  0  0  0  0  0  0  0  0  0  0
   -9.9428    5.8398   27.2296 C   0  0  0  0  0  0  0  0  0  0  0  0
   -8.9208    2.6404   25.5721 C   0  0  0  0  0  0  0  0  0  0  0  0
   -8.3122    1.5527   26.0757 N   0  0  0  0  0  0  0  0  0  0  0  0
   -7.7366    1.5386   27.2045 C   0  0  0  0  0  0  0  0  0  0  0  0
   -7.0809    0.2883   27.5168 C   0  0  0  0  0  0  0  0  0  0  0  0
   -8.4289    0.4814   25.2254 C   0  0  0  0  0  0  0  0  0  0  0  0
   -7.7602   -0.7099   25.5237 C   0  0  0  0  0  0  0  0  0  0  0  0
   -7.0672   -0.7794   26.7408 C   0  0  0  0  0  0  0  0  0  0  0  0
   -9.5446    2.7223   24.4868 O   0  0  0  0  0  0  0  0  0  0  0  0
   -6.6580    5.5712   28.5895 F   0  0  0  0  0  0  0  0  0  0  0  0
   -6.3953   -2.0165   27.1331 C   0  0  1  0  0  0  0  0  0  0  0  0
   -5.9861   -2.1280   28.3706 C   0  0  0  0  0  0  0  0  0  0  0  0
   -6.5439   -2.5575   29.4201 C   0  0  0  0  0  0  0  0  0  0  0  0
   -6.0705   -2.5327   30.8238 C   0  0  0  0  0  0  0  0  0  0  0  0
   -4.8622   -1.8505   31.0558 C   0  0  0  0  0  0  0  0  0  0  0  0
   -4.1783   -1.2868   29.9687 C   0  0  0  0  0  0  0  0  0  0  0  0
   -4.7276   -1.3304   28.7068 C   0  0  0  0  0  0  0  0  0  0  0  0
   -6.2993   -3.1069   26.3524 C   0  0  0  0  0  0  0  0  0  0  0  0
   -4.3258   -1.7425   32.4481 C   0  0  0  0  0  0  0  0  0  0  0  0
   -5.1624   -1.4296   33.4168 C   0  0  0  0  0  0  0  0  0  0  0  0
   -6.4973   -1.2531   33.3440 C   0  0  0  0  0  0  0  0  0  0  0  0
   -7.3384   -1.9980   32.5280 C   0  0  0  0  0  0  0  0  0  0  0  0
   -7.2264   -2.2233   31.2714 C   0  0  0  0  0  0  0  0  0  0  0  0
  3  7  1  0
  7  8  1  0
  8  9  1  0
  8 11  1  0
 10 13  1  0
 12 13  1  0
  7 14  2  0
  2 15  1  0
 13 16  1  0
 16 17  1  0
 16 23  1  1
 20 24  1  0
 24 25  2  0
 25 26  1  0
 26 27  2  0
 19 28  1  0
 27 28  1  0
  9 10  1  0
 12 11  1  0
 17 18  2  0
 18 19  1  0
 19 20  2  0
 20 21  1  0
 21 22  2  0
 22 17  1  0
  1  2  2  0
  2  5  1  0
  5  6  2  0
  6  4  1  0
  4  3  2  0
  3  1  1  0
M  END
$$$$
