No_6698-complexes_sdf/6BKW-FPZ/2024-09-17-14-21-01/
     RDKit          3D

 32 35  0  0  0  0  0  0  0  0999 V2000
   -7.2496    3.8871   27.4508 C   0  0  0  0  0  0  0  0  0  0  0  0
   -7.6161    2.7143   27.1523 C   0  0  0  0  0  0  0  0  0  0  0  0
   -7.1618    1.8631   27.5232 C   0  0  0  0  0  0  0  0  0  0  0  0
   -7.7575    4.8848   27.9618 C   0  0  0  0  0  0  0  0  0  0  0  0
   -5.7237    1.9137   27.8973 C   0  0  0  0  0  0  0  0  0  0  0  0
   -4.9896    0.6634   28.2417 C   0  0  0  0  0  0  0  0  0  0  0  0
   -5.6455   -0.4521   28.4435 C   0  0  0  0  0  0  0  0  0  0  0  0
   -7.3816    0.3976   27.6975 C   0  0  0  0  0  0  0  0  0  0  0  0
   -6.8887   -0.5775   28.1307 C   0  0  0  0  0  0  0  0  0  0  0  0
   -9.1874    4.8838   28.2302 C   0  0  0  0  0  0  0  0  0  0  0  0
   -9.9082    3.6837   27.7999 C   0  0  0  0  0  0  0  0  0  0  0  0
   -8.8890    2.8184   26.2225 C   0  0  0  0  0  0  0  0  0  0  0  0
  -10.0364    3.1053   26.7746 C   0  0  1  0  0  0  0  0  0  0  0  0
  -11.2103    2.5877   26.1543 C   0  0  0  0  0  0  0  0  0  0  0  0
  -11.5876    3.2241   24.9901 C   0  0  0  0  0  0  0  0  0  0  0  0
  -10.9297    4.1194   24.4658 C   0  0  0  0  0  0  0  0  0  0  0  0
  -11.2118    4.7923   23.1682 C   0  0  0  0  0  0  0  0  0  0  0  0
  -12.3623    4.4216   22.5261 C   0  0  0  0  0  0  0  0  0  0  0  0
  -13.1472    3.4748   23.1141 C   0  0  0  0  0  0  0  0  0  0  0  0
  -12.8110    2.8887   24.3320 C   0  0  0  0  0  0  0  0  0  0  0  0
  -11.9292    1.7135   26.7433 O   0  0  0  0  0  0  0  0  0  0  0  0
   -4.8376   -1.6196   29.0322 C   0  0  0  0  0  0  0  0  0  0  0  0
   -3.5644   -1.5602   29.0955 C   0  0  0  0  0  0  0  0  0  0  0  0
   -2.8684   -0.2485   28.9026 C   0  0  0  0  0  0  0  0  0  0  0  0
   -3.5371    0.8137   28.5572 C   0  0  0  0  0  0  0  0  0  0  0  0
   -2.7257   -2.6255   29.6769 C   0  0  2  0  0  0  0  0  0  0  0  0
   -1.7462   -2.9877   29.1264 C   0  0  0  0  0  0  0  0  0  0  0  0
   -3.2449   -3.2555   30.8544 C   0  0  0  0  0  0  0  0  0  0  0  0
   -4.0303   -2.8299   31.6450 C   0  0  0  0  0  0  0  0  0  0  0  0
   -4.4935   -3.5378   32.8593 C   0  0  0  0  0  0  0  0  0  0  0  0
   -4.0927   -4.7417   33.0085 C   0  0  0  0  0  0  0  0  0  0  0  0
   -3.1896   -5.2972   32.1448 C   0  0  0  0  0  0  0  0  0  0  0  0
  1  2  1  0
  2  3  1  0
  1  4  2  0
  4 10  1  0
 10 11  2  0
  2 12  1  0
 11 13  1  0
 12 13  1  0
 13 14  1  1
 14 15  1  0
 14 21  2  0
 23 26  1  0
 26 27  1  6
 26 28  1  0
 28 29  2  3
 29 30  1  0
 30 31  2  3
 31 32  1  0
 15 16  2  0
 16 17  1  0
 17 18  2  0
 18 19  1  0
 19 20  2  0
 20 15  1  0
  7 22  2  0
 22 23  1  0
 23 24  2  0
 24 25  1  0
 25  6  2  0
  3  5  2  0
  5  6  1  0
  6  7  1  0
  7  9  1  0
  9  8  2  0
  8  3  1  0
M  END
$$$$
