No_6214-complexes_sdf/6BKW-FPZ/2024-09-17-14-21-01/
     RDKit          3D

 33 38  0  0  0  0  0  0  0  0999 V2000
   -7.9040    3.9820   27.1177 C   0  0  0  0  0  0  0  0  0  0  0  0
   -8.2057    2.8231   26.8733 C   0  0  0  0  0  0  0  0  0  0  0  0
   -8.7695    5.0740   26.7916 C   0  0  0  0  0  0  0  0  0  0  0  0
   -9.9618    4.7598   26.1630 C   0  0  0  0  0  0  0  0  0  0  0  0
   -9.4200    2.4524   26.2849 C   0  0  0  0  0  0  0  0  0  0  0  0
  -10.2590    3.4815   25.9250 C   0  0  0  0  0  0  0  0  0  0  0  0
   -8.3837    6.4702   27.0872 C   0  0  0  0  0  0  0  0  0  0  0  0
   -7.9910    7.5367   27.0318 N   0  0  0  0  0  0  0  0  0  0  0  0
   -7.2744    1.6693   27.2989 C   0  0  0  0  0  0  0  0  0  0  0  0
   -6.1775    1.9908   27.8735 O   0  0  0  0  0  0  0  0  0  0  0  0
   -7.6186    0.4117   27.2478 N   0  0  0  0  0  0  0  0  0  0  0  0
   -8.7950   -0.1228   26.7201 C   0  0  0  0  0  0  0  0  0  0  0  0
   -9.7459    1.0051   26.1797 C   0  0  1  0  0  0  0  0  0  0  0  0
  -10.9939    0.5785   25.6126 C   0  0  2  0  0  0  0  0  0  0  0  0
  -10.9302   -0.3559   24.8206 C   0  0  0  0  0  0  0  0  0  0  0  0
  -10.9266   -0.1808   23.6554 C   0  0  0  0  0  0  0  0  0  0  0  0
  -11.1545    1.1130   23.1203 C   0  0  0  0  0  0  0  0  0  0  0  0
  -12.3787    1.7078   23.4208 C   0  0  0  0  0  0  0  0  0  0  0  0
  -12.5367    2.0571   24.8538 C   0  0  0  0  0  0  0  0  0  0  0  0
  -11.9527    1.5572   25.8551 C   0  0  0  0  0  0  0  0  0  0  0  0
   -6.4828   -0.5093   27.4477 C   0  0  0  0  0  0  0  0  0  0  0  0
   -6.2563   -1.3224   26.7164 C   0  0  0  0  0  0  0  0  0  0  0  0
   -5.2185   -2.1645   26.8473 C   0  0  0  0  0  0  0  0  0  0  0  0
   -4.2573   -1.9925   27.8792 C   0  0  0  0  0  0  0  0  0  0  0  0
   -4.5507   -0.9585   28.8277 C   0  0  0  0  0  0  0  0  0  0  0  0
   -5.6405   -0.1777   28.5975 C   0  0  0  0  0  0  0  0  0  0  0  0
   -3.5599   -0.6414   29.9160 C   0  0  0  0  0  0  0  0  0  0  0  0
   -3.9104    0.3060   30.8543 C   0  0  0  0  0  0  0  0  0  0  0  0
   -2.2923   -1.2812   29.9140 C   0  0  0  0  0  0  0  0  0  0  0  0
   -3.1050    0.3787   32.0610 C   0  0  0  0  0  0  0  0  0  0  0  0
   -1.5202   -1.2533   31.1273 C   0  0  0  0  0  0  0  0  0  0  0  0
   -1.9223   -0.3647   32.1837 C   0  0  0  0  0  0  0  0  0  0  0  0
  -11.3549    2.8677   26.7051 C   0  0  0  0  0  0  0  0  0  0  0  0
  3  7  1  0
  7  8  3  0
  2  9  1  0
  9 10  2  0
  9 11  1  0
 11 12  1  0
  5 13  1  0
 13 12  1  1
 13 14  1  0
 14 15  1  6
 15 16  2  0
 16 17  1  0
 17 18  2  0
 18 19  1  0
 14 20  1  0
 19 20  2  0
 11 21  1  0
 25 27  1  0
  6 33  1  0
 20 33  1  0
 27 28  2  0
 28 30  1  0
 30 32  2  0
 32 31  1  0
 31 29  2  0
 29 27  1  0
  1  2  2  0
  2  5  1  0
  5  6  2  0
  6  4  1  0
  4  3  2  0
  3  1  1  0
 21 22  2  0
 22 23  1  0
 23 24  2  0
 24 25  1  0
 25 26  2  0
 26 21  1  0
M  END
$$$$
