No_6311-complexes_sdf/6BKW-FPZ/2024-09-17-14-21-01/
     RDKit          3D

 17 18  0  0  0  0  0  0  0  0999 V2000
   -7.9040    3.9820   27.1177 C   0  0  0  0  0  0  0  0  0  0  0  0
   -7.8663    4.8694   27.9238 C   0  0  0  0  0  0  0  0  0  0  0  0
   -9.0501    3.8017   26.2617 C   0  0  0  0  0  0  0  0  0  0  0  0
   -9.1826    2.7026   25.3575 C   0  0  0  0  0  0  0  0  0  0  0  0
   -8.6940    6.0131   27.8614 C   0  0  0  0  0  0  0  0  0  0  0  0
   -9.9755    4.8547   26.2361 C   0  0  0  0  0  0  0  0  0  0  0  0
   -9.7463    5.9398   27.0364 C   0  0  0  0  0  0  0  0  0  0  0  0
  -10.1187    2.7535   24.3403 C   0  0  0  0  0  0  0  0  0  0  0  0
  -10.3304    1.6199   23.5634 C   0  0  0  0  0  0  0  0  0  0  0  0
   -9.5915    0.7854   23.6061 C   0  0  0  0  0  0  0  0  0  0  0  0
   -8.4258    1.4840   25.3554 C   0  0  0  0  0  0  0  0  0  0  0  0
   -8.5336    0.5278   24.5322 C   0  0  0  0  0  0  0  0  0  0  0  0
   -9.6715   -0.7502   22.5303 Cl  0  0  0  0  0  0  0  0  0  0  0  0
   -6.4079    5.2358   28.8908 Cl  0  0  0  0  0  0  0  0  0  0  0  0
  -11.5442    1.8105   22.2818 Cl  0  0  0  0  0  0  0  0  0  0  0  0
   -7.5536   -0.8554   24.6674 Cl  0  0  0  0  0  0  0  0  0  0  0  0
  -10.9027    3.8435   24.1924 F   0  0  0  0  0  0  0  0  0  0  0  0
  3  4  1  0
 10 13  1  0
  2 14  1  0
  9 15  1  0
 12 16  1  0
  8 17  1  0
  4  8  2  0
  8  9  1  0
  9 10  2  0
 10 12  1  0
 12 11  2  0
 11  4  1  0
  1  2  2  0
  2  5  1  0
  5  7  2  0
  7  6  1  0
  6  3  2  0
  3  1  1  0
M  END
$$$$
