No_6161-complexes_sdf/6BKW-FPZ/2024-09-17-14-21-01/
     RDKit          3D

 37 40  0  0  0  0  0  0  0  0999 V2000
   -7.2496    3.8871   27.4508 C   0  0  0  0  0  0  0  0  0  0  0  0
   -7.9379    4.9063   27.8518 C   0  0  0  0  0  0  0  0  0  0  0  0
   -9.3460    4.8223   27.8695 C   0  0  0  0  0  0  0  0  0  0  0  0
   -7.8628    2.6163   27.1065 C   0  0  0  0  0  0  0  0  0  0  0  0
   -7.1773    1.4959   26.7593 C   0  0  0  0  0  0  0  0  0  0  0  0
   -9.2781    2.5892   27.1482 C   0  0  0  0  0  0  0  0  0  0  0  0
  -10.0064    3.6800   27.5696 C   0  0  0  0  0  0  0  0  0  0  0  0
   -7.6550    0.6788   25.9195 O   0  0  0  0  0  0  0  0  0  0  0  0
   -5.8182    1.3483   27.2656 N   0  0  0  0  0  0  0  0  0  0  0  0
   -5.1129    0.1255   27.1054 C   0  0  0  0  0  0  0  0  0  0  0  0
   -4.9889   -0.5832   28.3454 C   0  0  0  0  0  0  0  0  0  0  0  0
   -4.0872   -1.1732   28.6119 C   0  0  0  0  0  0  0  0  0  0  0  0
   -3.9138   -1.7994   29.9843 C   0  0  0  0  0  0  0  0  0  0  0  0
   -4.9260   -1.6397   30.9567 C   0  0  0  0  0  0  0  0  0  0  0  0
   -6.0605   -0.9656   30.4896 C   0  0  0  0  0  0  0  0  0  0  0  0
   -6.0940   -0.4105   29.3028 C   0  0  0  0  0  0  0  0  0  0  0  0
  -11.4741    3.5609   27.7521 C   0  0  0  0  0  0  0  0  0  0  0  0
  -11.9075    3.2076   28.9967 C   0  0  0  0  0  0  0  0  0  0  0  0
  -13.2554    3.1583   29.4457 C   0  0  0  0  0  0  0  0  0  0  0  0
  -14.1575    3.6814   28.4700 C   0  0  0  0  0  0  0  0  0  0  0  0
  -13.7520    4.1501   27.2512 C   0  0  0  0  0  0  0  0  0  0  0  0
  -12.3896    4.2288   26.9351 C   0  0  0  0  0  0  0  0  0  0  0  0
   -7.3145    6.0591   28.1582 F   0  0  0  0  0  0  0  0  0  0  0  0
  -13.7010    2.5974   30.7140 C   0  0  0  0  0  0  0  0  0  0  0  0
  -13.9931    1.4443   30.7435 O   0  0  0  0  0  0  0  0  0  0  0  0
  -13.6655    3.3806   31.7811 O   0  0  0  0  0  0  0  0  0  0  0  0
   -4.7177   -0.2316   26.0925 O   0  0  0  0  0  0  0  0  0  0  0  0
   -4.8686   -2.2665   32.2848 C   0  0  1  0  0  0  0  0  0  0  0  0
   -4.3838   -1.4719   33.2051 C   0  0  0  0  0  0  0  0  0  0  0  0
   -4.4287   -1.8073   34.6392 C   0  0  0  0  0  0  0  0  0  0  0  0
   -3.9145   -0.9453   35.6809 C   0  0  0  0  0  0  0  0  0  0  0  0
   -2.8792   -0.1320   35.3138 C   0  0  0  0  0  0  0  0  0  0  0  0
   -2.4796   -0.0043   33.9494 C   0  0  0  0  0  0  0  0  0  0  0  0
   -3.2217   -0.5972   32.9252 C   0  0  0  0  0  0  0  0  0  0  0  0
   -5.6387   -3.3786   32.4888 C   0  0  0  0  0  0  0  0  0  0  0  0
   -6.8689   -3.4987   32.6154 C   0  0  0  0  0  0  0  0  0  0  0  0
   -7.5899   -4.7026   32.8470 C   0  0  0  0  0  0  0  0  0  0  0  0
  4  5  1  0
  5  8  2  0
  5  9  1  0
  9 10  1  0
 10 11  1  0
  7 17  1  0
  2 23  1  0
 19 24  1  0
 24 25  2  0
 24 26  1  0
 10 27  2  0
 28 14  1  6
 28 29  1  0
 28 35  1  0
 35 36  2  3
 36 37  1  0
 17 18  2  0
 18 19  1  0
 19 20  2  0
 20 21  1  0
 21 22  2  0
 22 17  1  0
 11 12  2  0
 12 13  1  0
 13 14  2  0
 14 15  1  0
 15 16  2  0
 16 11  1  0
 29 30  2  0
 30 31  1  0
 31 32  2  0
 32 33  1  0
 33 34  2  0
 34 29  1  0
  1  2  2  0
  2  3  1  0
  3  7  2  0
  7  6  1  0
  6  4  2  0
  4  1  1  0
M  END
$$$$
