No_6630-complexes_sdf/6BKW-FPZ/2024-09-17-14-21-01/
     RDKit          3D

 32 35  0  0  0  0  0  0  0  0999 V2000
   -7.2496    3.8871   27.4508 C   0  0  0  0  0  0  0  0  0  0  0  0
   -8.5096    4.0291   27.2770 C   0  0  0  0  0  0  0  0  0  0  0  0
   -9.3451    2.8786   26.9046 C   0  0  0  0  0  0  0  0  0  0  0  0
   -6.6065    2.5680   27.5073 C   0  0  0  0  0  0  0  0  0  0  0  0
   -7.4233    1.4858   27.2402 C   0  0  0  0  0  0  0  0  0  0  0  0
   -6.8482    0.1968   27.2983 C   0  0  0  0  0  0  0  0  0  0  0  0
   -8.7583    1.6535   26.9831 C   0  0  0  0  0  0  0  0  0  0  0  0
   -8.9329    5.4930   27.1839 C   0  0  2  0  0  0  0  0  0  0  0  0
  -10.6614    5.9022   26.8662 Br  0  0  0  0  0  0  0  0  0  0  0  0
   -5.5889    0.0449   27.8089 C   0  0  0  0  0  0  0  0  0  0  0  0
   -5.0322   -1.2232   27.9406 C   0  0  0  0  0  0  0  0  0  0  0  0
   -5.7225   -2.2846   27.4249 C   0  0  0  0  0  0  0  0  0  0  0  0
   -7.1395   -1.1615   26.9642 C   0  0  0  0  0  0  0  0  0  0  0  0
   -8.0217    6.5673   27.2788 C   0  0  0  0  0  0  0  0  0  0  0  0
   -3.6420   -1.4761   28.5296 C   0  0  2  0  0  0  0  0  0  0  0  0
   -3.4943   -1.6129   29.7092 C   0  0  0  0  0  0  0  0  0  0  0  0
   -3.8408   -0.5255   30.5824 C   0  0  0  0  0  0  0  0  0  0  0  0
   -3.6042   -0.5533   32.0507 C   0  0  0  0  0  0  0  0  0  0  0  0
   -2.9304   -1.6232   32.5918 C   0  0  0  0  0  0  0  0  0  0  0  0
   -2.5354   -2.6567   31.7495 C   0  0  0  0  0  0  0  0  0  0  0  0
   -2.7509   -2.6105   30.4192 C   0  0  0  0  0  0  0  0  0  0  0  0
   -2.5945   -1.4579   27.5203 C   0  0  0  0  0  0  0  0  0  0  0  0
   -8.2576   -1.7433   26.3986 C   0  0  0  0  0  0  0  0  0  0  0  0
   -8.4678   -3.0080   26.3459 C   0  0  0  0  0  0  0  0  0  0  0  0
   -9.6524   -3.5132   25.7551 C   0  0  0  0  0  0  0  0  0  0  0  0
  -10.5365   -2.5791   25.2328 C   0  0  0  0  0  0  0  0  0  0  0  0
  -10.3224   -1.2225   25.3031 C   0  0  0  0  0  0  0  0  0  0  0  0
   -9.1310   -0.7662   25.8371 C   0  0  0  0  0  0  0  0  0  0  0  0
   -2.6601   -1.5419   34.0582 C   0  0  0  0  0  0  0  0  0  0  0  0
   -3.7085   -1.3994   34.7399 O   0  0  0  0  0  0  0  0  0  0  0  0
   -1.5640   -1.9910   34.5789 O   0  0  0  0  0  0  0  0  0  0  0  0
   -2.3986   -0.8351   26.5662 C   0  0  0  0  0  0  0  0  0  0  0  0
  5  6  1  0
  2  8  1  0
  8  9  1  0
  6 10  2  0
 10 11  1  0
 11 12  2  0
  6 13  1  0
 12 13  1  0
  8 14  1  6
 11 15  1  0
 15 16  1  0
 15 22  1  1
 13 23  1  0
 19 29  1  0
 29 30  2  0
 29 31  1  0
 22 32  1  0
 23 24  2  0
 24 25  1  0
 25 26  2  0
 26 27  1  0
 27 28  2  0
 28 23  1  0
  1  2  2  0
  2  3  1  0
  3  7  2  0
  7  5  1  0
  5  4  2  0
  4  1  1  0
 16 17  2  0
 17 18  1  0
 18 19  2  0
 19 20  1  0
 20 21  2  0
 21 16  1  0
M  END
$$$$
