No_6687-complexes_sdf/6BKW-FPZ/2024-09-17-14-21-01/
     RDKit          3D

 23 26  0  0  0  0  0  0  0  0999 V2000
   -7.9040    3.9820   27.1177 C   0  0  0  0  0  0  0  0  0  0  0  0
   -9.0711    4.3164   27.0630 C   0  0  0  0  0  0  0  0  0  0  0  0
   -9.5294    5.4517   27.7215 C   0  0  0  0  0  0  0  0  0  0  0  0
   -7.4336    2.7132   26.5681 C   0  0  0  0  0  0  0  0  0  0  0  0
   -8.3353    1.8569   26.0442 C   0  0  0  0  0  0  0  0  0  0  0  0
   -9.6477    2.2853   25.9146 C   0  0  0  0  0  0  0  0  0  0  0  0
  -10.0346    3.4497   26.4483 C   0  0  0  0  0  0  0  0  0  0  0  0
   -7.8608    0.5626   25.5840 C   0  0  0  0  0  0  0  0  0  0  0  0
   -6.9268   -0.1386   26.3326 C   0  0  0  0  0  0  0  0  0  0  0  0
   -6.2588   -1.1805   25.8276 C   0  0  0  0  0  0  0  0  0  0  0  0
   -6.5810   -1.5760   24.5004 C   0  0  0  0  0  0  0  0  0  0  0  0
   -7.4521   -0.8372   23.7052 C   0  0  0  0  0  0  0  0  0  0  0  0
   -8.0517    0.3070   24.2582 C   0  0  0  0  0  0  0  0  0  0  0  0
   -6.9156    4.7057   27.8664 N   0  0  0  0  0  0  0  0  0  0  0  0
   -7.2480    5.8901   28.4419 C   0  0  0  0  0  0  0  0  0  0  0  0
   -8.5703    6.2556   28.3281 N   0  0  0  0  0  0  0  0  0  0  0  0
  -11.4176    3.8721   26.1706 C   0  0  0  0  0  0  0  0  0  0  0  0
  -12.0035    3.8685   25.0545 C   0  0  0  0  0  0  0  0  0  0  0  0
  -13.3758    4.1691   24.9223 C   0  0  0  0  0  0  0  0  0  0  0  0
  -14.0011    4.1867   23.6784 C   0  0  0  0  0  0  0  0  0  0  0  0
  -13.2215    3.7971   22.5753 C   0  0  0  0  0  0  0  0  0  0  0  0
  -11.9356    3.4725   22.6799 C   0  0  0  0  0  0  0  0  0  0  0  0
  -11.2989    3.5719   23.9275 C   0  0  0  0  0  0  0  0  0  0  0  0
  5  8  1  0
  7 17  1  0
 17 18  1  0
 18 19  2  0
 19 20  1  0
 20 21  2  0
 21 22  1  0
 22 23  2  0
 23 18  1  0
  2  3  2  0
  3 16  1  0
 16 15  2  0
 15 14  1  0
 14  1  2  0
  1  2  1  0
  2  7  1  0
  7  6  2  0
  6  5  1  0
  5  4  2  0
  4  1  1  0
  8  9  2  0
  9 10  1  0
 10 11  2  0
 11 12  1  0
 12 13  2  0
 13  8  1  0
M  END
$$$$
