No_6435-complexes_sdf/6BKW-FPZ/2024-09-17-14-21-01/
     RDKit          3D

 18 19  0  0  0  0  0  0  0  0999 V2000
   -7.9040    3.9820   27.1177 C   0  0  0  0  0  0  0  0  0  0  0  0
   -7.8663    4.8694   27.9238 C   0  0  0  0  0  0  0  0  0  0  0  0
   -9.0501    3.8017   26.2617 C   0  0  0  0  0  0  0  0  0  0  0  0
   -9.1826    2.7026   25.3575 C   0  0  0  0  0  0  0  0  0  0  0  0
   -8.6940    6.0131   27.8614 C   0  0  0  0  0  0  0  0  0  0  0  0
   -9.9755    4.8547   26.2361 C   0  0  0  0  0  0  0  0  0  0  0  0
   -9.7463    5.9398   27.0364 C   0  0  0  0  0  0  0  0  0  0  0  0
   -8.6850    1.4682   25.7485 C   0  0  0  0  0  0  0  0  0  0  0  0
   -9.8790    2.8113   24.1394 C   0  0  0  0  0  0  0  0  0  0  0  0
   -8.1242    1.2661   26.9746 C   0  0  0  0  0  0  0  0  0  0  0  0
   -7.5997   -0.0558   27.2991 C   0  0  0  0  0  0  0  0  0  0  0  0
   -7.9335   -1.0857   26.5054 C   0  0  0  0  0  0  0  0  0  0  0  0
   -8.5982   -0.8684   25.2920 C   0  0  0  0  0  0  0  0  0  0  0  0
   -8.9763    0.3964   24.8711 C   0  0  0  0  0  0  0  0  0  0  0  0
  -10.9290    3.0189   24.0420 C   0  0  0  0  0  0  0  0  0  0  0  0
  -11.6436    3.1370   22.7583 C   0  0  0  0  0  0  0  0  0  0  0  0
  -10.8619    2.9830   21.6589 C   0  0  0  0  0  0  0  0  0  0  0  0
   -9.5406    2.5496   21.7435 C   0  0  0  0  0  0  0  0  0  0  0  0
  3  4  1  0
  4  8  1  0
  4  9  1  0
  9 15  2  3
 15 16  1  0
 16 17  2  3
 17 18  1  0
  8 10  2  0
 10 11  1  0
 11 12  2  0
 12 13  1  0
 13 14  2  0
 14  8  1  0
  1  2  2  0
  2  5  1  0
  5  7  2  0
  7  6  1  0
  6  3  2  0
  3  1  1  0
M  END
$$$$
