No_6802-complexes_sdf/6BKW-FPZ/2024-09-17-14-21-01/
     RDKit          3D

 20 22  0  0  0  0  0  0  0  0999 V2000
   -7.9040    3.9820   27.1177 C   0  0  0  0  0  0  0  0  0  0  0  0
   -7.8663    4.8694   27.9238 C   0  0  0  0  0  0  0  0  0  0  0  0
   -7.4547    2.7080   27.4594 C   0  0  0  0  0  0  0  0  0  0  0  0
   -7.9337    1.5946   26.8372 C   0  0  0  0  0  0  0  0  0  0  0  0
   -8.9032    1.7881   25.8510 C   0  0  0  0  0  0  0  0  0  0  0  0
   -9.3787    2.9871   25.5530 C   0  0  0  0  0  0  0  0  0  0  0  0
   -8.9781    4.0300   26.2200 C   0  0  0  0  0  0  0  0  0  0  0  0
   -8.2132    6.2312   27.6173 N   0  0  0  0  0  0  0  0  0  0  0  0
   -9.1014    6.5119   26.6241 C   0  0  0  0  0  0  0  0  0  0  0  0
   -9.5143    5.3947   25.8857 C   0  0  0  0  0  0  0  0  0  0  0  0
   -7.3356    0.2566   27.1267 C   0  0  0  0  0  0  0  0  0  0  0  0
   -8.0642   -0.8626   27.1429 C   0  0  0  0  0  0  0  0  0  0  0  0
   -9.5020   -0.7375   26.9980 C   0  0  0  0  0  0  0  0  0  0  0  0
  -10.2818   -1.6211   27.0596 C   0  0  0  0  0  0  0  0  0  0  0  0
  -11.7530   -1.4584   26.9376 C   0  0  0  0  0  0  0  0  0  0  0  0
  -12.1495   -0.1551   26.7119 C   0  0  0  0  0  0  0  0  0  0  0  0
  -11.3209    0.8757   26.7287 C   0  0  0  0  0  0  0  0  0  0  0  0
   -9.9826    0.6914   26.9615 C   0  0  0  0  0  0  0  0  0  0  0  0
   -9.7663    1.2089   28.3944 N   0  0  0  0  0  0  0  0  0  0  0  0
   -8.7219    0.8725   24.6380 C   0  0  0  0  0  0  0  0  0  0  0  0
  4 11  1  0
 11 12  2  3
 12 13  1  0
 18 19  1  0
  5 20  1  0
  1  2  2  0
  2  8  1  0
  8  9  2  0
  9 10  1  0
 10  7  2  0
 13 14  2  0
 14 15  1  0
 15 16  2  0
 16 17  1  0
 17 18  2  0
 18 13  1  0
  1  3  1  0
  3  4  2  0
  4  5  1  0
  5  6  2  0
  6  7  1  0
  7  1  1  0
M  END
$$$$
