No_6855-complexes_sdf/6BKW-FPZ/2024-09-17-14-21-01/
     RDKit          3D

 12 12  0  0  0  0  0  0  0  0999 V2000
   -7.2496    3.8871   27.4508 C   0  0  0  0  0  0  0  0  0  0  0  0
   -8.5096    4.0291   27.2770 C   0  0  0  0  0  0  0  0  0  0  0  0
   -9.2677    5.1714   27.5773 C   0  0  0  0  0  0  0  0  0  0  0  0
   -6.5711    2.6400   27.2842 C   0  0  0  0  0  0  0  0  0  0  0  0
   -7.2939    1.5094   27.0532 C   0  0  0  0  0  0  0  0  0  0  0  0
   -6.6434    0.3282   26.9215 C   0  0  0  0  0  0  0  0  0  0  0  0
   -8.6735    1.6972   26.8835 C   0  0  0  0  0  0  0  0  0  0  0  0
   -9.3329    2.8695   27.1223 C   0  0  0  0  0  0  0  0  0  0  0  0
   -5.5179    0.0620   27.7525 C   0  0  0  0  0  0  0  0  0  0  0  0
   -5.4268    0.7487   28.9398 C   0  0  0  0  0  0  0  0  0  0  0  0
   -4.3044    0.1415   29.7118 C   0  0  0  0  0  0  0  0  0  0  0  0
   -3.3955   -0.7080   29.2815 C   0  0  0  0  0  0  0  0  0  0  0  0
  6  9  1  0
  9 10  2  3
 10 11  1  0
 11 12  2  0
  3  2  1  0
  6  5  1  0
  1  2  2  0
  2  8  1  0
  8  7  2  0
  7  5  1  0
  5  4  2  0
  4  1  1  0
M  END
$$$$
