No_640-complexes_sdf/6BKW-FPZ/2024-09-17-14-21-01/
     RDKit          3D

 22 25  0  0  0  0  0  0  0  0999 V2000
   -7.9040    3.9820   27.1177 C   0  0  0  0  0  0  0  0  0  0  0  0
   -7.8663    4.8694   27.9238 C   0  0  0  0  0  0  0  0  0  0  0  0
   -9.0501    3.8017   26.2617 C   0  0  0  0  0  0  0  0  0  0  0  0
   -9.1826    2.7026   25.3575 C   0  0  0  0  0  0  0  0  0  0  0  0
   -8.6940    6.0131   27.8614 C   0  0  0  0  0  0  0  0  0  0  0  0
  -10.1138    4.6733   26.4644 C   0  0  0  0  0  0  0  0  0  0  0  0
   -9.8579    5.8496   27.1764 C   0  0  0  0  0  0  0  0  0  0  0  0
  -10.0710    2.8158   24.2972 C   0  0  0  0  0  0  0  0  0  0  0  0
  -10.1829    1.7620   23.3550 C   0  0  0  0  0  0  0  0  0  0  0  0
  -10.9698    1.9014   22.1901 C   0  0  0  0  0  0  0  0  0  0  0  0
  -11.6793    3.1265   22.0592 C   0  0  0  0  0  0  0  0  0  0  0  0
  -11.5567    4.1494   22.9459 C   0  0  0  0  0  0  0  0  0  0  0  0
  -10.6797    4.0324   24.0540 C   0  0  0  0  0  0  0  0  0  0  0  0
  -10.7226    5.0632   25.0954 C   0  0  0  0  0  0  0  0  0  0  0  0
   -7.0057    2.9168   27.2023 O   0  0  0  0  0  0  0  0  0  0  0  0
   -5.9020    2.9784   27.8762 C   0  0  0  0  0  0  0  0  0  0  0  0
   -5.2599    1.6681   28.0249 C   0  0  0  0  0  0  0  0  0  0  0  0
   -5.8835    0.5182   27.6407 C   0  0  0  0  0  0  0  0  0  0  0  0
   -5.5089   -0.4011   27.7895 C   0  0  0  0  0  0  0  0  0  0  0  0
   -4.1819   -0.6547   28.4426 C   0  0  0  0  0  0  0  0  0  0  0  0
   -3.4617    0.4048   28.8259 C   0  0  0  0  0  0  0  0  0  0  0  0
   -3.9935    1.6222   28.7007 C   0  0  0  0  0  0  0  0  0  0  0  0
  1 15  1  0
 15 16  1  0
 16 17  1  0
 17 18  2  0
 18 19  1  0
 19 20  2  0
 20 21  1  0
 21 22  2  0
 22 17  1  0
  3  4  2  0
  4  8  1  0
 13 14  1  0
 14  6  2  0
  8  9  2  0
  9 10  1  0
 10 11  2  0
 11 12  1  0
 12 13  2  0
 13  8  1  0
  1  2  2  0
  2  5  1  0
  5  7  2  0
  7  6  1  0
  6  3  1  0
  3  1  1  0
M  END
$$$$
