No_6086-complexes_sdf/6BKW-FPZ/2024-09-17-14-21-01/
     RDKit          3D

 40 45  0  0  0  0  0  0  0  0999 V2000
   -7.9040    3.9820   27.1177 C   0  0  0  0  0  0  0  0  0  0  0  0
   -7.8663    4.8694   27.9238 C   0  0  0  0  0  0  0  0  0  0  0  0
   -7.4547    2.7080   27.4594 C   0  0  0  0  0  0  0  0  0  0  0  0
   -7.9337    1.5946   26.8372 C   0  0  0  0  0  0  0  0  0  0  0  0
   -7.4947    0.3059   27.1189 C   0  0  0  0  0  0  0  0  0  0  0  0
   -8.6696    6.0289   27.7710 C   0  0  0  0  0  0  0  0  0  0  0  0
   -9.1200    1.7597   26.0575 C   0  0  0  0  0  0  0  0  0  0  0  0
   -9.4646    0.6563   25.3323 C   0  0  0  0  0  0  0  0  0  0  0  0
   -8.0156   -0.7698   26.5415 C   0  0  0  0  0  0  0  0  0  0  0  0
   -9.0498   -0.6026   25.6050 C   0  0  0  0  0  0  0  0  0  0  0  0
   -9.3316    6.2489   26.4957 C   0  0  0  0  0  0  0  0  0  0  0  0
   -8.9065    4.2427   26.0715 C   0  0  2  0  0  0  0  0  0  0  0  0
   -9.4434    5.3768   25.8081 C   0  0  1  0  0  0  0  0  0  0  0  0
   -9.4198    2.9521   25.4254 C   0  0  2  0  0  0  0  0  0  0  0  0
  -10.3935    3.0760   24.4291 C   0  0  0  0  0  0  0  0  0  0  0  0
  -11.3653    4.0270   24.5654 C   0  0  0  0  0  0  0  0  0  0  0  0
  -10.5908    5.2451   24.9568 N   0  0  0  0  0  0  0  0  0  0  0  0
   -9.6131   -1.7845   24.9157 C   0  0  0  0  0  0  0  0  0  0  0  0
  -10.2439   -1.7451   23.9485 O   0  0  0  0  0  0  0  0  0  0  0  0
   -9.4114   -3.0511   25.4085 O   0  0  0  0  0  0  0  0  0  0  0  0
   -6.3708    0.1415   28.1640 C   0  0  0  0  0  0  0  0  0  0  0  0
   -6.1452   -1.1231   28.7114 C   0  0  0  0  0  0  0  0  0  0  0  0
   -5.1123   -1.2141   29.6628 C   0  0  0  0  0  0  0  0  0  0  0  0
   -4.2708   -0.0809   29.9175 C   0  0  0  0  0  0  0  0  0  0  0  0
   -4.4886    1.0851   29.1792 C   0  0  0  0  0  0  0  0  0  0  0  0
   -5.4920    1.1704   28.3134 C   0  0  0  0  0  0  0  0  0  0  0  0
   -2.9896   -0.1878   31.0469 Cl  0  0  0  0  0  0  0  0  0  0  0  0
   -9.9100   -4.0060   25.0506 C   0  0  2  0  0  0  0  0  0  0  0  0
  -11.0687   -4.4202   25.2877 C   0  0  0  0  0  0  0  0  0  0  0  0
  -11.6409   -4.1799   26.4835 C   0  0  0  0  0  0  0  0  0  0  0  0
  -13.0396   -4.5213   26.8581 C   0  0  0  0  0  0  0  0  0  0  0  0
  -13.7509   -5.1424   25.8386 C   0  0  0  0  0  0  0  0  0  0  0  0
  -13.2421   -5.4108   24.6252 C   0  0  0  0  0  0  0  0  0  0  0  0
  -11.9300   -5.0569   24.3557 C   0  0  0  0  0  0  0  0  0  0  0  0
  -15.1673   -5.5507   26.1539 C   0  0  0  0  0  0  0  0  0  0  0  0
  -15.7934   -6.1221   25.3120 F   0  0  0  0  0  0  0  0  0  0  0  0
  -15.7036   -4.4044   26.6534 F   0  0  0  0  0  0  0  0  0  0  0  0
  -15.0321   -6.3854   27.2454 F   0  0  0  0  0  0  0  0  0  0  0  0
   -8.9486   -4.9049   24.3483 C   0  0  0  0  0  0  0  0  0  0  0  0
   -8.8723   -4.8726   23.0349 C   0  0  0  0  0  0  0  0  0  0  0  0
  1  2  1  0
  1  3  2  0
  3  4  1  0
  4  5  2  0
  2  6  1  0
  4  7  1  0
  7  8  2  0
  5  9  1  0
  8 10  1  0
  9 10  2  0
  6 11  2  0
 12  1  1  1
 11 13  1  0
 12 13  1  0
  7 14  1  0
 12 14  1  0
 14 15  1  1
 15 16  2  0
 13 17  1  1
 16 17  1  0
 10 18  1  0
 18 19  2  0
 18 20  1  0
  5 21  1  0
 21 22  2  0
 22 23  1  0
 23 24  2  0
 24 25  1  0
 21 26  1  0
 25 26  2  0
 24 27  1  0
 20 28  1  0
 28 29  1  0
 29 30  2  0
 30 31  1  0
 31 32  2  0
 32 33  1  0
 29 34  1  0
 33 34  2  0
 32 35  1  0
 35 36  1  0
 35 37  1  0
 35 38  1  0
 28 39  1  1
 39 40  1  0
M  END
$$$$
