No_6561-complexes_sdf/6BKW-FPZ/2024-09-17-14-21-01/
     RDKit          3D

 34 38  0  0  0  0  0  0  0  0999 V2000
   -7.2496    3.8871   27.4508 C   0  0  0  0  0  0  0  0  0  0  0  0
   -7.9379    4.9063   27.8518 C   0  0  0  0  0  0  0  0  0  0  0  0
   -9.3460    4.8223   27.8695 C   0  0  0  0  0  0  0  0  0  0  0  0
   -7.8628    2.6163   27.1065 C   0  0  0  0  0  0  0  0  0  0  0  0
   -9.2787    2.5744   27.1970 C   0  0  0  0  0  0  0  0  0  0  0  0
  -10.0108    3.6770   27.6340 C   0  0  0  0  0  0  0  0  0  0  0  0
  -11.4834    3.5674   27.7432 C   0  0  0  0  0  0  0  0  0  0  0  0
  -11.9395    2.6434   28.4995 C   0  0  0  0  0  0  0  0  0  0  0  0
  -13.2991    2.5755   28.9391 C   0  0  0  0  0  0  0  0  0  0  0  0
  -14.1285    3.5751   28.4315 C   0  0  0  0  0  0  0  0  0  0  0  0
  -13.6635    4.5859   27.6241 C   0  0  0  0  0  0  0  0  0  0  0  0
  -12.2733    4.7017   27.3545 C   0  0  0  0  0  0  0  0  0  0  0  0
   -7.1523    1.5998   26.7829 F   0  0  0  0  0  0  0  0  0  0  0  0
   -7.1504    6.4092   28.1404 Cl  0  0  0  0  0  0  0  0  0  0  0  0
  -13.8459    1.4293   29.7023 C   0  0  0  0  0  0  0  0  0  0  0  0
  -13.6481    0.4068   29.6936 O   0  0  0  0  0  0  0  0  0  0  0  0
  -14.7065    1.8726   30.7052 O   0  0  0  0  0  0  0  0  0  0  0  0
  -14.7478    1.4370   31.7419 C   0  0  0  0  0  0  0  0  0  0  0  0
  -15.3397    0.2734   32.0777 C   0  0  0  0  0  0  0  0  0  0  0  0
  -15.2819   -0.2697   33.3606 C   0  0  0  0  0  0  0  0  0  0  0  0
  -14.7137    0.4866   34.4632 C   0  0  0  0  0  0  0  0  0  0  0  0
  -14.1429    1.7582   34.1302 C   0  0  0  0  0  0  0  0  0  0  0  0
  -14.1209    2.2165   32.8966 C   0  0  0  0  0  0  0  0  0  0  0  0
  -13.4629    3.5433   32.6506 C   0  0  0  0  0  0  0  0  0  0  0  0
  -12.9656    4.2448   33.7639 C   0  0  0  0  0  0  0  0  0  0  0  0
  -12.4702    5.5736   33.5561 C   0  0  0  0  0  0  0  0  0  0  0  0
  -12.8659    3.6028   35.0732 C   0  0  0  0  0  0  0  0  0  0  0  0
  -13.4965    2.3946   35.2566 C   0  0  0  0  0  0  0  0  0  0  0  0
  -13.3736    1.8000   36.5886 C   0  0  0  0  0  0  0  0  0  0  0  0
  -12.5261    0.8238   36.8287 C   0  0  0  0  0  0  0  0  0  0  0  0
  -12.3644    0.2884   38.1452 C   0  0  0  0  0  0  0  0  0  0  0  0
  -13.0997    0.8887   39.1600 C   0  0  0  0  0  0  0  0  0  0  0  0
  -13.9884    1.8813   38.9265 C   0  0  0  0  0  0  0  0  0  0  0  0
  -14.0902    2.4314   37.6403 C   0  0  0  0  0  0  0  0  0  0  0  0
  6  7  1  0
  4 13  1  0
  2 14  1  0
  9 15  1  0
 15 16  2  0
 15 17  1  0
 17 18  1  0
 25 26  1  0
 28 29  1  0
 18 19  2  0
 19 20  1  0
 20 21  2  0
 21 22  1  0
 23 18  1  0
  1  2  2  0
  2  3  1  0
  3  6  2  0
  6  5  1  0
  5  4  2  0
  4  1  1  0
 22 23  2  0
 23 24  1  0
 24 25  2  0
 25 27  1  0
 27 28  2  0
 28 22  1  0
  7  8  2  0
  8  9  1  0
  9 10  2  0
 10 11  1  0
 11 12  2  0
 12  7  1  0
 29 30  2  0
 30 31  1  0
 31 32  2  0
 32 33  1  0
 33 34  2  0
 34 29  1  0
M  END
$$$$
