No_6509-complexes_sdf/6BKW-FPZ/2024-09-17-14-21-01/
     RDKit          3D

 17 18  0  0  0  0  0  0  0  0999 V2000
   -7.9040    3.9820   27.1177 C   0  0  0  0  0  0  0  0  0  0  0  0
   -8.2057    2.8231   26.8733 C   0  0  0  0  0  0  0  0  0  0  0  0
   -8.7695    5.0740   26.7916 C   0  0  0  0  0  0  0  0  0  0  0  0
   -9.9618    4.7598   26.1630 C   0  0  0  0  0  0  0  0  0  0  0  0
   -9.4200    2.4524   26.2849 C   0  0  0  0  0  0  0  0  0  0  0  0
  -10.2590    3.4815   25.9250 C   0  0  0  0  0  0  0  0  0  0  0  0
   -8.3840    6.4693   27.0829 C   0  0  0  0  0  0  0  0  0  0  0  0
   -7.3884    6.7399   26.7882 F   0  0  0  0  0  0  0  0  0  0  0  0
   -8.7313    6.6911   28.4751 F   0  0  0  0  0  0  0  0  0  0  0  0
   -9.2867    7.3175   26.4320 F   0  0  0  0  0  0  0  0  0  0  0  0
   -7.1066    1.7993   27.3551 C   0  0  0  0  0  0  0  0  0  0  0  0
   -7.4295    0.3686   27.2806 C   0  0  0  0  0  0  0  0  0  0  0  0
   -6.4563   -0.4947   27.7116 C   0  0  0  0  0  0  0  0  0  0  0  0
   -6.6869   -1.8788   27.8177 C   0  0  0  0  0  0  0  0  0  0  0  0
   -7.9622   -2.2899   27.3298 C   0  0  0  0  0  0  0  0  0  0  0  0
   -8.9094   -1.4455   26.8927 C   0  0  0  0  0  0  0  0  0  0  0  0
   -8.6647   -0.1171   26.9364 C   0  0  0  0  0  0  0  0  0  0  0  0
  3  7  1  0
  7  8  1  0
  7  9  1  0
  7 10  1  0
  2 11  1  0
 11 12  1  0
 12 13  2  0
 13 14  1  0
 14 15  2  0
 15 16  1  0
 16 17  2  0
 17 12  1  0
  1  2  2  0
  2  5  1  0
  5  6  2  0
  6  4  1  0
  4  3  2  0
  3  1  1  0
M  END
$$$$
