No_6391-complexes_sdf/6BKW-FPZ/2024-09-17-14-21-01/
     RDKit          3D

 40 44  0  0  0  0  0  0  0  0999 V2000
   -7.9040    3.9820   27.1177 C   0  0  0  0  0  0  0  0  0  0  0  0
   -8.2057    2.8231   26.8733 C   0  0  0  0  0  0  0  0  0  0  0  0
   -7.0130    4.3706   28.1140 C   0  0  0  0  0  0  0  0  0  0  0  0
   -7.4093    1.7370   27.3857 C   0  0  0  0  0  0  0  0  0  0  0  0
   -6.1943    2.1490   28.0403 C   0  0  0  0  0  0  0  0  0  0  0  0
   -5.9708    3.4680   28.3199 C   0  0  0  0  0  0  0  0  0  0  0  0
   -8.9091    5.0939   26.7085 C   0  0  0  0  0  0  0  0  0  0  0  0
   -9.5084    4.9820   25.4339 C   0  0  0  0  0  0  0  0  0  0  0  0
   -5.2515    1.0751   28.4406 C   0  0  0  0  0  0  0  0  0  0  0  0
   -5.5325   -0.2726   28.4147 C   0  0  0  0  0  0  0  0  0  0  0  0
   -6.8283   -0.5483   27.7555 C   0  0  0  0  0  0  0  0  0  0  0  0
   -7.6575    0.3558   27.2585 C   0  0  0  0  0  0  0  0  0  0  0  0
   -8.9435    6.3738   27.3341 C   0  0  0  0  0  0  0  0  0  0  0  0
   -4.6362   -1.2656   28.8506 C   0  0  0  0  0  0  0  0  0  0  0  0
   -4.8724   -2.1759   29.2823 N   0  0  0  0  0  0  0  0  0  0  0  0
   -5.6687   -2.5677   30.0043 C   0  0  0  0  0  0  0  0  0  0  0  0
   -5.6776   -2.0462   31.2862 C   0  0  0  0  0  0  0  0  0  0  0  0
   -6.8214   -2.1876   32.2474 C   0  0  0  0  0  0  0  0  0  0  0  0
   -7.9086   -2.8397   31.9608 C   0  0  0  0  0  0  0  0  0  0  0  0
   -7.9130   -3.4378   30.6164 C   0  0  0  0  0  0  0  0  0  0  0  0
   -6.9047   -3.2116   29.7366 C   0  0  0  0  0  0  0  0  0  0  0  0
   -3.8034   -3.2301   29.2445 C   0  0  0  0  0  0  0  0  0  0  0  0
   -3.4491   -0.6502   28.9378 O   0  0  0  0  0  0  0  0  0  0  0  0
   -3.0471   -3.3397   30.0691 C   0  0  0  0  0  0  0  0  0  0  0  0
   -1.9322   -4.3376   30.0775 C   0  0  0  0  0  0  0  0  0  0  0  0
   -1.9404   -5.1634   28.9980 C   0  0  0  0  0  0  0  0  0  0  0  0
   -3.8815   -4.0638   28.1178 C   0  0  0  0  0  0  0  0  0  0  0  0
   -2.9168   -5.0422   28.0252 C   0  0  0  0  0  0  0  0  0  0  0  0
   -2.9497   -5.9442   26.8796 C   0  0  0  0  0  0  0  0  0  0  0  0
   -3.3991   -6.9910   26.8440 O   0  0  0  0  0  0  0  0  0  0  0  0
   -2.7862   -5.2174   25.5906 N   0  0  0  0  0  0  0  0  0  0  0  0
   -2.3631   -3.8512   25.4412 C   0  0  0  0  0  0  0  0  0  0  0  0
   -1.0112   -3.6687   25.1079 C   0  0  0  0  0  0  0  0  0  0  0  0
   -0.2420   -2.9137   25.8763 C   0  0  0  0  0  0  0  0  0  0  0  0
   -0.4077   -2.3437   27.0581 C   0  0  0  0  0  0  0  0  0  0  0  0
    0.4607   -1.6928   27.9122 C   0  0  0  0  0  0  0  0  0  0  0  0
    1.7862   -1.8017   27.6761 C   0  0  0  0  0  0  0  0  0  0  0  0
    2.2154   -2.3858   26.4704 C   0  0  0  0  0  0  0  0  0  0  0  0
    1.2896   -2.9785   25.5974 C   0  0  0  0  0  0  0  0  0  0  0  0
   -1.0520   -3.0866   23.6527 C   0  0  0  0  0  0  0  0  0  0  0  0
  1  7  1  0
  7  8  2  0
  7 13  1  0
 10 14  1  0
 14 15  1  0
 15 16  1  0
 15 22  1  0
 14 23  2  0
 28 29  1  0
 29 30  2  0
 29 31  1  0
 31 32  1  0
 32 33  2  3
 33 34  1  0
 33 40  1  0
  1  2  2  0
  2  4  1  0
  5  6  1  0
  6  3  2  0
  3  1  1  0
 22 24  2  0
 24 25  1  0
 25 26  2  0
 26 28  1  0
 28 27  2  0
 27 22  1  0
  4  5  2  0
  5  9  1  0
  9 10  2  0
 10 11  1  0
 11 12  2  0
 12  4  1  0
 34 35  2  0
 35 36  1  0
 36 37  2  0
 37 38  1  0
 38 39  2  0
 39 34  1  0
 16 17  2  0
 17 18  1  0
 18 19  2  0
 19 20  1  0
 20 21  2  0
 21 16  1  0
M  END
$$$$
