No_6346-complexes_sdf/6BKW-FPZ/2024-09-17-14-21-01/
     RDKit          3D

 28 31  0  0  0  0  0  0  0  0999 V2000
   -7.7129    4.2099   27.0854 C   0  0  0  0  0  0  0  0  0  0  0  0
   -8.9133    4.4736   27.0998 C   0  0  2  0  0  0  0  0  0  0  0  0
   -9.7135    3.9633   26.0300 C   0  0  0  0  0  0  0  0  0  0  0  0
   -6.8655    4.8824   28.1822 C   0  0  0  0  0  0  0  0  0  0  0  0
  -10.8856    4.5824   25.6430 C   0  0  0  0  0  0  0  0  0  0  0  0
   -7.6664    5.7849   28.7962 N   0  0  0  0  0  0  0  0  0  0  0  0
   -8.8934    5.5511   27.9459 C   0  0  0  0  0  0  0  0  0  0  0  0
  -11.7566    4.0566   24.6254 C   0  0  0  0  0  0  0  0  0  0  0  0
  -11.3129    2.8894   23.9740 C   0  0  0  0  0  0  0  0  0  0  0  0
  -10.1595    2.2702   24.3585 C   0  0  0  0  0  0  0  0  0  0  0  0
   -9.3211    2.7782   25.3932 C   0  0  0  0  0  0  0  0  0  0  0  0
  -12.1753    2.3386   22.9344 C   0  0  0  0  0  0  0  0  0  0  0  0
  -11.7309    2.0063   21.8796 C   0  0  0  0  0  0  0  0  0  0  0  0
  -12.5050    1.4014   20.7606 C   0  0  0  0  0  0  0  0  0  0  0  0
  -13.8382    1.3874   20.9390 C   0  0  0  0  0  0  0  0  0  0  0  0
  -14.2921    1.8181   22.0002 C   0  0  0  0  0  0  0  0  0  0  0  0
  -13.5823    2.3867   23.0931 C   0  0  0  0  0  0  0  0  0  0  0  0
  -15.7112    1.8403   22.1652 O   0  0  0  0  0  0  0  0  0  0  0  0
  -16.2368    2.3865   23.3245 C   0  0  0  0  0  0  0  0  0  0  0  0
  -15.4233    2.7972   24.2021 C   0  0  0  0  0  0  0  0  0  0  0  0
  -14.2004    2.8977   24.2681 C   0  0  0  0  0  0  0  0  0  0  0  0
  -17.7002    2.2464   23.3138 C   0  0  0  0  0  0  0  0  0  0  0  0
  -18.2928    1.8300   22.5852 O   0  0  0  0  0  0  0  0  0  0  0  0
  -18.4553    2.9247   24.8412 Cl  0  0  0  0  0  0  0  0  0  0  0  0
   -5.6438    4.5709   28.4813 N   0  0  0  0  0  0  0  0  0  0  0  0
  -14.5733    0.8254   19.8162 C   0  0  0  0  0  0  0  0  0  0  0  0
  -14.2151    0.2925   18.9357 O   0  0  0  0  0  0  0  0  0  0  0  0
  -15.9496    0.9430   19.9287 F   0  0  0  0  0  0  0  0  0  0  0  0
  1  2  1  0
  1  4  1  0
  4  6  2  0
  2  7  1  0
  6  7  1  0
  9 12  1  0
 16 18  1  0
 18 19  1  0
 19 20  2  0
 17 21  1  0
 20 21  1  0
 19 22  1  0
 22 23  2  0
 22 24  1  0
  4 25  1  0
 15 26  1  0
 26 27  2  0
 26 28  1  0
  2  3  1  6
 12 13  2  0
 13 14  1  0
 14 15  2  0
 15 16  1  0
 16 17  2  0
 17 12  1  0
  3  5  2  0
  5  8  1  0
  8  9  2  0
  9 10  1  0
 10 11  2  0
 11  3  1  0
M  END
$$$$
