No_6974-complexes_sdf/6BKW-FPZ/2024-09-17-14-21-01/
     RDKit          3D

 40 43  0  0  0  0  0  0  0  0999 V2000
   -7.2496    3.8871   27.4508 C   0  0  0  0  0  0  0  0  0  0  0  0
   -7.6161    2.7143   27.1523 C   0  0  0  0  0  0  0  0  0  0  0  0
   -8.8302    2.4659   26.5056 C   0  0  0  0  0  0  0  0  0  0  0  0
   -8.1584    5.0090   27.3234 C   0  0  0  0  0  0  0  0  0  0  0  0
   -9.3788    4.7965   26.7695 C   0  0  0  0  0  0  0  0  0  0  0  0
   -9.7028    3.5649   26.3276 C   0  0  0  0  0  0  0  0  0  0  0  0
   -6.7190    1.5585   27.3667 C   0  0  0  0  0  0  0  0  0  0  0  0
   -5.4774    1.7392   28.0696 C   0  0  0  0  0  0  0  0  0  0  0  0
   -4.6135    0.6482   28.2670 C   0  0  0  0  0  0  0  0  0  0  0  0
   -3.4170    0.7757   28.9329 C   0  0  0  0  0  0  0  0  0  0  0  0
   -5.2672   -0.4860   27.6207 C   0  0  0  0  0  0  0  0  0  0  0  0
   -6.7860    0.1815   27.0525 C   0  0  0  0  0  0  0  0  0  0  0  0
   -7.7043    6.3683   27.7779 C   0  0  0  0  0  0  0  0  0  0  0  0
   -2.4810   -0.2566   28.5052 C   0  0  0  0  0  0  0  0  0  0  0  0
   -8.4304    7.4073   27.2734 N   0  0  0  0  0  0  0  0  0  0  0  0
   -1.8671    0.1537   27.4492 F   0  0  0  0  0  0  0  0  0  0  0  0
   -1.5081   -0.5805   29.4442 F   0  0  0  0  0  0  0  0  0  0  0  0
   -3.0212   -1.4995   28.2908 F   0  0  0  0  0  0  0  0  0  0  0  0
  -10.9842    3.3544   25.6255 C   0  0  2  0  0  0  0  0  0  0  0  0
  -11.0484    3.6388   24.2836 C   0  0  0  0  0  0  0  0  0  0  0  0
  -10.1645    4.1770   23.6146 C   0  0  0  0  0  0  0  0  0  0  0  0
  -10.2863    4.5835   22.1982 C   0  0  0  0  0  0  0  0  0  0  0  0
  -11.2109    4.2551   21.6597 C   0  0  0  0  0  0  0  0  0  0  0  0
  -12.3833    3.6540   22.2239 C   0  0  0  0  0  0  0  0  0  0  0  0
  -12.2665    3.3750   23.5714 C   0  0  0  0  0  0  0  0  0  0  0  0
  -12.0736    2.9726   26.4793 C   0  0  0  0  0  0  0  0  0  0  0  0
  -11.9894    2.4919   27.6332 N   0  0  0  0  0  0  0  0  0  0  0  0
  -12.7679    2.2454   28.5177 C   0  0  0  0  0  0  0  0  0  0  0  0
  -13.2288    3.2765   29.1803 C   0  0  0  0  0  0  0  0  0  0  0  0
  -12.9238    4.5409   28.8947 C   0  0  0  0  0  0  0  0  0  0  0  0
  -14.0912    3.0816   30.4358 C   0  0  0  0  0  0  0  0  0  0  0  0
  -13.2324    3.2669   26.1137 O   0  0  0  0  0  0  0  0  0  0  0  0
  -13.6437    2.4492   31.3349 C   0  0  0  0  0  0  0  0  0  0  0  0
  -14.4820    2.1791   32.5794 C   0  0  0  0  0  0  0  0  0  0  0  0
  -13.7973    1.6609   33.6885 C   0  0  0  0  0  0  0  0  0  0  0  0
  -13.0422    2.5327   34.5070 C   0  0  0  0  0  0  0  0  0  0  0  0
  -12.5709    2.1020   35.7869 C   0  0  0  0  0  0  0  0  0  0  0  0
  -12.9536    0.7848   36.0891 C   0  0  0  0  0  0  0  0  0  0  0  0
  -13.6725   -0.0454   35.3344 C   0  0  0  0  0  0  0  0  0  0  0  0
  -14.1468    0.4140   34.1347 C   0  0  0  0  0  0  0  0  0  0  0  0
  2  7  1  0
  7  8  1  0
  8  9  2  0
  9 10  1  0
  9 11  1  0
  7 12  1  0
 11 12  1  0
  4 13  1  0
 10 14  1  0
 13 15  1  0
 14 16  1  0
 14 17  1  0
 14 18  1  0
  6 19  1  0
 19 20  1  0
 19 26  1  1
 26 27  1  0
 27 28  1  0
 28 29  2  3
 29 30  1  0
 29 31  1  0
 26 32  2  0
 31 33  1  0
 33 34  1  0
 34 35  1  0
  1  2  2  0
  2  3  1  0
  3  6  2  0
  6  5  1  0
  5  4  2  0
  4  1  1  0
 35 36  2  0
 36 37  1  0
 37 38  2  0
 38 39  1  0
 39 40  2  0
 40 35  1  0
 20 21  2  0
 21 22  1  0
 22 23  2  0
 23 24  1  0
 24 25  2  0
 25 20  1  0
M  END
$$$$
