No_6437-complexes_sdf/6BKW-FPZ/2024-09-17-14-21-01/
     RDKit          3D

 14 15  0  0  0  0  0  0  0  0999 V2000
   -7.2496    3.8871   27.4508 C   0  0  0  0  0  0  0  0  0  0  0  0
   -8.5096    4.0291   27.2770 C   0  0  0  0  0  0  0  0  0  0  0  0
   -9.3451    2.8786   26.9046 C   0  0  0  0  0  0  0  0  0  0  0  0
   -8.7138    1.7135   26.7541 C   0  0  0  0  0  0  0  0  0  0  0  0
   -6.6024    2.6286   27.4581 C   0  0  0  0  0  0  0  0  0  0  0  0
   -7.3557    1.5598   27.1381 C   0  0  0  0  0  0  0  0  0  0  0  0
   -9.3303    5.2521   27.3580 C   0  0  0  0  0  0  0  0  0  0  0  0
  -10.6763    5.3987   27.5810 C   0  0  0  0  0  0  0  0  0  0  0  0
   -8.5070    6.5046   27.2250 C   0  0  0  0  0  0  0  0  0  0  0  0
   -6.6915    0.2685   27.0164 C   0  0  0  0  0  0  0  0  0  0  0  0
   -5.6495    0.1363   27.5350 O   0  0  0  0  0  0  0  0  0  0  0  0
   -7.3705   -0.7573   26.6476 O   0  0  0  0  0  0  0  0  0  0  0  0
   -7.1975    6.5396   26.9189 C   0  0  0  0  0  0  0  0  0  0  0  0
   -6.6396    5.2605   27.3436 N   0  0  0  0  0  0  0  0  0  0  0  0
  6 10  1  0
 10 11  2  0
 10 12  1  0
  8  7  1  0
  2  3  2  0
  3  4  1  0
  4  6  2  0
  6  5  1  0
  5  1  2  0
  1  2  1  0
  2  7  1  0
  7  9  2  0
  9 13  1  0
 13 14  2  0
 14  1  1  0
M  END
$$$$
