No_639-complexes_sdf/6BKW-FPZ/2024-09-17-14-21-01/
     RDKit          3D

 13 13  0  0  0  0  0  0  0  0999 V2000
   -7.2496    3.8871   27.4508 C   0  0  0  0  0  0  0  0  0  0  0  0
   -7.9379    4.9063   27.8518 C   0  0  0  0  0  0  0  0  0  0  0  0
   -7.5112    6.1898   27.6280 C   0  0  0  0  0  0  0  0  0  0  0  0
   -9.3085    4.6933   28.2930 C   0  0  0  0  0  0  0  0  0  0  0  0
   -6.9425    2.7755   27.7937 C   0  0  0  0  0  0  0  0  0  0  0  0
   -6.4783    1.5535   27.2627 C   0  0  0  0  0  0  0  0  0  0  0  0
   -7.3779    0.6458   26.8951 C   0  0  0  0  0  0  0  0  0  0  0  0
   -8.5605    0.8886   26.2927 C   0  0  0  0  0  0  0  0  0  0  0  0
   -9.3524   -0.0100   25.7541 C   0  0  0  0  0  0  0  0  0  0  0  0
  -10.5371    0.3824   25.0442 C   0  0  0  0  0  0  0  0  0  0  0  0
  -10.8466    1.7142   24.9884 C   0  0  0  0  0  0  0  0  0  0  0  0
  -10.0420    2.7215   25.5448 C   0  0  0  0  0  0  0  0  0  0  0  0
   -8.8835    2.3551   26.1457 C   0  0  0  0  0  0  0  0  0  0  0  0
  1  2  1  0
  2  3  1  0
  2  4  1  0
  1  5  2  3
  5  6  1  0
  6  7  1  0
  7  8  1  0
  8  9  2  0
  9 10  1  0
 10 11  2  0
 11 12  1  0
 12 13  2  0
 13  8  1  0
M  END
$$$$
