No_6728-complexes_sdf/6BKW-FPZ/2024-09-17-14-21-01/
     RDKit          3D

 15 15  0  0  0  0  0  0  0  0999 V2000
   -7.7129    4.2099   27.0854 C   0  0  0  0  0  0  0  0  0  0  0  0
   -7.7814    5.1722   27.8972 C   0  0  0  0  0  0  0  0  0  0  0  0
   -8.8998    3.8713   26.3707 C   0  0  0  0  0  0  0  0  0  0  0  0
   -9.9938    4.6774   26.5446 C   0  0  0  0  0  0  0  0  0  0  0  0
   -8.7789    6.1536   27.9256 C   0  0  0  0  0  0  0  0  0  0  0  0
   -9.9428    5.8398   27.2296 C   0  0  0  0  0  0  0  0  0  0  0  0
   -8.9208    2.6404   25.5721 C   0  0  0  0  0  0  0  0  0  0  0  0
   -9.7377    1.6978   26.0657 C   0  0  0  0  0  0  0  0  0  0  0  0
  -10.7890    1.8745   26.6244 F   0  0  0  0  0  0  0  0  0  0  0  0
   -8.9419    0.9698   26.9947 F   0  0  0  0  0  0  0  0  0  0  0  0
   -9.9554    0.6344   25.1526 F   0  0  0  0  0  0  0  0  0  0  0  0
   -6.6269    5.6165   28.6239 O   0  0  0  0  0  0  0  0  0  0  0  0
  -11.0700    4.3454   25.8099 O   0  0  0  0  0  0  0  0  0  0  0  0
  -12.0919    3.7122   26.2782 C   0  0  0  0  0  0  0  0  0  0  0  0
  -13.3589    4.2764   25.9527 C   0  0  0  0  0  0  0  0  0  0  0  0
  3  7  1  0
  7  8  1  0
  8  9  1  0
  8 10  1  0
  8 11  1  0
  2 12  1  0
  4 13  1  0
 13 14  1  0
 14 15  1  0
  1  2  2  0
  2  5  1  0
  5  6  2  0
  6  4  1  0
  4  3  2  0
  3  1  1  0
M  END
$$$$
