No_61-complexes_sdf/6BKW-FPZ/2024-09-17-14-21-01/
     RDKit          3D

 14 15  0  0  0  0  0  0  0  0999 V2000
   -7.2496    3.8871   27.4508 C   0  0  0  0  0  0  0  0  0  0  0  0
   -8.5096    4.0291   27.2770 C   0  0  0  0  0  0  0  0  0  0  0  0
   -9.2677    5.1714   27.5773 C   0  0  0  0  0  0  0  0  0  0  0  0
   -9.1323    3.0875   26.2773 C   0  0  0  0  0  0  0  0  0  0  0  0
   -9.9812    3.4769   25.4352 C   0  0  0  0  0  0  0  0  0  0  0  0
  -10.4607    5.4468   26.9591 C   0  0  0  0  0  0  0  0  0  0  0  0
  -10.3690    4.7793   25.4509 C   0  0  0  0  0  0  0  0  0  0  0  0
   -6.5915    2.6644   27.5871 N   0  0  0  0  0  0  0  0  0  0  0  0
   -5.2648    2.5809   27.8694 C   0  0  0  0  0  0  0  0  0  0  0  0
   -7.1957    1.5063   27.2080 C   0  0  0  0  0  0  0  0  0  0  0  0
   -8.5252    1.7843   26.2514 C   0  0  0  0  0  0  0  0  0  0  0  0
  -10.3334    2.7495   24.2145 C   0  0  0  0  0  0  0  0  0  0  0  0
  -10.5116    1.3853   24.4191 C   0  0  0  0  0  0  0  0  0  0  0  0
  -11.1879    0.7591   23.2565 C   0  0  0  0  0  0  0  0  0  0  0  0
  1  2  1  0
  1  8  1  0
  8  9  1  0
  8 10  1  0
  4 11  1  0
 10 11  1  0
  5 12  1  0
 12 13  2  3
 13 14  1  0
  2  3  2  0
  3  6  1  0
  6  7  2  0
  7  5  1  0
  5  4  2  0
  4  2  1  0
M  END
$$$$
