No_6065-complexes_sdf/6BKW-FPZ/2024-09-17-14-21-01/
     RDKit          3D

 23 26  0  0  0  0  0  0  0  0999 V2000
   -7.9040    3.9820   27.1177 C   0  0  0  0  0  0  0  0  0  0  0  0
   -7.8663    4.8694   27.9238 C   0  0  0  0  0  0  0  0  0  0  0  0
   -7.4547    2.7080   27.4594 C   0  0  0  0  0  0  0  0  0  0  0  0
   -8.7044    6.0412   27.8492 C   0  0  0  0  0  0  0  0  0  0  0  0
   -7.9501    1.5743   26.8848 C   0  0  0  0  0  0  0  0  0  0  0  0
   -8.8711    1.7575   25.8527 C   0  0  0  0  0  0  0  0  0  0  0  0
   -9.3585    2.9740   25.5109 C   0  0  0  0  0  0  0  0  0  0  0  0
   -8.9270    4.1097   26.1925 C   0  0  0  0  0  0  0  0  0  0  0  0
   -9.5518    5.3341   26.1504 C   0  0  0  0  0  0  0  0  0  0  0  0
   -9.3829    6.3930   26.8775 C   0  0  0  0  0  0  0  0  0  0  0  0
   -7.3439    0.2561   27.1356 C   0  0  0  0  0  0  0  0  0  0  0  0
   -6.0599    0.1456   27.6898 C   0  0  0  0  0  0  0  0  0  0  0  0
   -5.5306   -1.0984   28.0189 C   0  0  0  0  0  0  0  0  0  0  0  0
   -4.2198   -1.1489   28.6190 C   0  0  0  0  0  0  0  0  0  0  0  0
   -3.4726    0.0436   28.8157 C   0  0  0  0  0  0  0  0  0  0  0  0
   -4.0646    1.2699   28.4828 C   0  0  0  0  0  0  0  0  0  0  0  0
   -5.2893    1.3299   27.9393 C   0  0  0  0  0  0  0  0  0  0  0  0
   -5.9727    2.5666   27.7693 N   0  0  0  0  0  0  0  0  0  0  0  0
  -10.3743    3.1063   24.4347 C   0  0  0  0  0  0  0  0  0  0  0  0
  -11.4328    3.8109   24.5701 C   0  0  0  0  0  0  0  0  0  0  0  0
  -12.0060    4.0415   25.8311 C   0  0  0  0  0  0  0  0  0  0  0  0
  -13.3939    4.3989   25.9524 C   0  0  0  0  0  0  0  0  0  0  0  0
  -14.0590    4.7916   24.7801 C   0  0  0  0  0  0  0  0  0  0  0  0
  7 19  1  0
 19 20  2  3
 20 21  1  0
 21 22  2  3
 22 23  1  0
 12 13  1  0
 13 14  2  0
 14 15  1  0
 15 16  2  0
 16 17  1  0
  1  3  1  0
  5  6  1  0
  6  7  2  0
  7  8  1  0
  3  5  2  0
  5 11  1  0
 11 12  2  0
 12 17  1  0
 17 18  2  0
 18  3  1  0
  1  2  2  0
  2  4  1  0
  4 10  2  0
 10  9  1  0
  9  8  2  0
  8  1  1  0
M  END
$$$$
