No_6935-complexes_sdf/6BKW-FPZ/2024-09-17-14-21-01/
     RDKit          3D

 23 25  0  0  0  0  0  0  0  0999 V2000
   -7.9040    3.9820   27.1177 C   0  0  0  0  0  0  0  0  0  0  0  0
   -7.8663    4.8694   27.9238 C   0  0  0  0  0  0  0  0  0  0  0  0
   -9.0501    3.8017   26.2617 C   0  0  0  0  0  0  0  0  0  0  0  0
  -10.0189    4.7608   26.3707 C   0  0  0  0  0  0  0  0  0  0  0  0
   -8.6973    5.9722   27.8968 C   0  0  0  0  0  0  0  0  0  0  0  0
   -9.8216    5.8946   27.1241 C   0  0  0  0  0  0  0  0  0  0  0  0
   -9.1437    2.6293   25.4175 C   0  0  0  0  0  0  0  0  0  0  0  0
  -10.1321    1.8510   25.6641 C   0  0  0  0  0  0  0  0  0  0  0  0
  -10.1652    0.6707   24.9894 C   0  0  0  0  0  0  0  0  0  0  0  0
  -11.1971   -0.3081   25.2662 C   0  0  0  0  0  0  0  0  0  0  0  0
  -12.1451    0.0205   26.2492 C   0  0  0  0  0  0  0  0  0  0  0  0
  -12.0675    1.2013   26.9415 C   0  0  0  0  0  0  0  0  0  0  0  0
  -11.0623    2.0939   26.7563 C   0  0  0  0  0  0  0  0  0  0  0  0
   -9.2627    0.3362   23.9065 C   0  0  2  0  0  0  0  0  0  0  0  0
   -8.0615   -0.2493   24.1451 C   0  0  0  0  0  0  0  0  0  0  0  0
   -9.6191    0.7014   22.5726 C   0  0  0  0  0  0  0  0  0  0  0  0
   -7.5180   -0.4755   25.4242 C   0  0  0  0  0  0  0  0  0  0  0  0
   -7.2167   -0.6457   23.0387 C   0  0  0  0  0  0  0  0  0  0  0  0
   -7.7615   -0.6979   26.3981 C   0  0  0  0  0  0  0  0  0  0  0  0
   -6.9685   -0.8313   27.6569 C   0  0  0  0  0  0  0  0  0  0  0  0
   -5.6364   -0.5089   27.5701 C   0  0  0  0  0  0  0  0  0  0  0  0
   -5.1183   -0.1387   26.3337 C   0  0  0  0  0  0  0  0  0  0  0  0
   -5.9077   -0.0669   25.2680 C   0  0  0  0  0  0  0  0  0  0  0  0
  3  7  1  0
  7  8  1  0
  9 14  1  0
 14 15  1  0
 14 16  1  1
 15 17  1  0
 15 18  1  0
 17 19  2  0
 19 20  1  0
 20 21  2  0
 21 22  1  0
 22 23  2  0
 23 17  1  0
  8  9  1  0
  9 10  2  0
 10 11  1  0
 11 12  2  0
 12 13  1  0
 13  8  2  0
  1  2  2  0
  2  5  1  0
  5  6  2  0
  6  4  1  0
  4  3  2  0
  3  1  1  0
M  END
$$$$
