No_6399-complexes_sdf/6BKW-FPZ/2024-09-17-14-21-01/
     RDKit          3D

 28 30  0  0  0  0  0  0  0  0999 V2000
   -7.9040    3.9820   27.1177 C   0  0  0  0  0  0  0  0  0  0  0  0
   -8.2057    2.8231   26.8733 C   0  0  0  0  0  0  0  0  0  0  0  0
   -7.4766    1.7477   27.4593 C   0  0  0  0  0  0  0  0  0  0  0  0
   -8.7468    5.1251   26.6967 C   0  0  0  0  0  0  0  0  0  0  0  0
   -9.7234    4.8589   25.8202 C   0  0  0  0  0  0  0  0  0  0  0  0
   -9.9711    3.5858   25.4266 C   0  0  0  0  0  0  0  0  0  0  0  0
   -9.2266    2.4957   25.9600 C   0  0  0  0  0  0  0  0  0  0  0  0
   -6.8533    0.7359   26.7723 Cl  0  0  0  0  0  0  0  0  0  0  0  0
   -8.4270    6.5325   27.0596 C   0  0  0  0  0  0  0  0  0  0  0  0
   -8.7376    7.4372   26.4264 F   0  0  0  0  0  0  0  0  0  0  0  0
   -6.9841    6.6131   27.3217 F   0  0  0  0  0  0  0  0  0  0  0  0
   -9.0008    6.6298   28.3616 F   0  0  0  0  0  0  0  0  0  0  0  0
  -11.0187    3.3753   24.4341 C   0  0  2  0  0  0  0  0  0  0  0  0
  -12.2580    3.0393   24.8251 C   0  0  0  0  0  0  0  0  0  0  0  0
  -12.5726    2.5325   25.8441 C   0  0  0  0  0  0  0  0  0  0  0  0
  -13.9755    2.2019   26.2161 C   0  0  0  0  0  0  0  0  0  0  0  0
  -14.9338    2.5092   25.3143 C   0  0  0  0  0  0  0  0  0  0  0  0
  -14.6373    3.1416   24.1388 C   0  0  0  0  0  0  0  0  0  0  0  0
  -13.3228    3.4646   23.8333 C   0  0  0  0  0  0  0  0  0  0  0  0
  -10.5787    3.3676   23.0571 C   0  0  0  0  0  0  0  0  0  0  0  0
  -10.1975    2.2447   22.4106 C   0  0  0  0  0  0  0  0  0  0  0  0
   -9.9439    0.9414   22.9902 C   0  0  0  0  0  0  0  0  0  0  0  0
  -10.1836    0.6559   24.1989 C   0  0  0  0  0  0  0  0  0  0  0  0
   -9.9386   -0.7329   24.6503 C   0  0  0  0  0  0  0  0  0  0  0  0
   -9.3234   -1.5510   23.7528 C   0  0  0  0  0  0  0  0  0  0  0  0
   -9.3613   -0.0593   22.2694 C   0  0  0  0  0  0  0  0  0  0  0  0
   -9.0223   -1.2522   22.5628 C   0  0  0  0  0  0  0  0  0  0  0  0
   -9.9584    2.4231   20.9444 C   0  0  0  0  0  0  0  0  0  0  0  0
  2  3  1  0
  3  8  1  0
  4  9  1  0
  9 10  1  0
  9 11  1  0
  9 12  1  0
 13  6  1  1
 13 14  1  0
 13 20  1  0
 20 21  2  3
 21 22  1  0
 21 28  1  0
 14 15  2  0
 15 16  1  0
 16 17  2  0
 17 18  1  0
 18 19  2  0
 19 14  1  0
  1  2  2  0
  2  7  1  0
  7  6  2  0
  6  5  1  0
  5  4  2  0
  4  1  1  0
 22 23  2  0
 23 24  1  0
 24 25  2  0
 25 27  1  0
 27 26  2  0
 26 22  1  0
M  END
$$$$
