No_6811-complexes_sdf/6BKW-FPZ/2024-09-17-14-21-01/
     RDKit          3D

 33 37  0  0  0  0  0  0  0  0999 V2000
   -7.2496    3.8871   27.4508 C   0  0  0  0  0  0  0  0  0  0  0  0
   -7.6161    2.7143   27.1523 C   0  0  0  0  0  0  0  0  0  0  0  0
   -8.8302    2.4659   26.5056 C   0  0  0  0  0  0  0  0  0  0  0  0
   -8.1584    5.0090   27.3234 C   0  0  0  0  0  0  0  0  0  0  0  0
   -9.3788    4.7965   26.7695 C   0  0  0  0  0  0  0  0  0  0  0  0
  -10.2565    5.9224   26.5388 C   0  0  0  0  0  0  0  0  0  0  0  0
   -9.7413    3.5289   26.3208 C   0  0  0  0  0  0  0  0  0  0  0  0
   -6.5943    1.7391   27.4173 N   0  0  0  0  0  0  0  0  0  0  0  0
   -6.4295    0.7116   27.4731 C   0  0  0  0  0  0  0  0  0  0  0  0
   -7.4685   -0.2846   27.0671 C   0  0  2  0  0  0  0  0  0  0  0  0
   -5.1561    0.0394   27.8471 C   0  0  0  0  0  0  0  0  0  0  0  0
   -4.1291    0.7416   28.2374 C   0  0  0  0  0  0  0  0  0  0  0  0
   -2.9078    0.1408   28.7472 C   0  0  0  0  0  0  0  0  0  0  0  0
   -2.8443   -1.2442   28.7623 C   0  0  0  0  0  0  0  0  0  0  0  0
   -3.9400   -1.9621   28.3446 C   0  0  0  0  0  0  0  0  0  0  0  0
   -5.0948   -1.3800   27.9202 C   0  0  0  0  0  0  0  0  0  0  0  0
   -7.5763   -0.6886   25.7759 C   0  0  0  0  0  0  0  0  0  0  0  0
   -8.6697   -1.2729   25.3093 C   0  0  0  0  0  0  0  0  0  0  0  0
   -8.8192   -1.5428   23.8797 C   0  0  0  0  0  0  0  0  0  0  0  0
   -7.7849   -1.1031   23.0056 C   0  0  0  0  0  0  0  0  0  0  0  0
   -6.6478   -0.4705   23.4807 C   0  0  0  0  0  0  0  0  0  0  0  0
   -6.5045   -0.2250   24.8111 C   0  0  0  0  0  0  0  0  0  0  0  0
   -8.3968   -0.7425   28.0832 C   0  0  0  0  0  0  0  0  0  0  0  0
   -7.9388    6.3778   27.8270 C   0  0  0  0  0  0  0  0  0  0  0  0
   -8.4882    7.4779   27.1636 C   0  0  0  0  0  0  0  0  0  0  0  0
   -9.8417    7.2183   26.8121 C   0  0  0  0  0  0  0  0  0  0  0  0
  -10.9721    3.2533   25.6106 C   0  0  0  0  0  0  0  0  0  0  0  0
  -11.2612    2.0663   25.0166 C   0  0  0  0  0  0  0  0  0  0  0  0
  -11.2201    1.0407   25.3642 C   0  0  0  0  0  0  0  0  0  0  0  0
  -12.0074   -0.0144   25.1022 C   0  0  0  0  0  0  0  0  0  0  0  0
  -12.6826    0.0045   23.8750 C   0  0  0  0  0  0  0  0  0  0  0  0
  -12.7388    1.2744   23.2662 C   0  0  0  0  0  0  0  0  0  0  0  0
  -12.1474    2.3839   23.8327 C   0  0  0  0  0  0  0  0  0  0  0  0
  2  8  1  0
  8  9  2  3
  9 10  1  0
  9 11  1  0
 10 17  1  0
 10 23  1  6
  7 27  1  0
 27 28  1  0
 28 29  2  0
 29 30  1  0
 30 31  2  0
 31 32  1  0
 32 33  2  0
 33 28  1  0
  5  6  2  0
  6 26  1  0
 26 25  2  0
 25 24  1  0
 24  4  2  0
 11 12  2  0
 12 13  1  0
 13 14  2  0
 14 15  1  0
 15 16  2  0
 16 11  1  0
  1  2  2  0
  2  3  1  0
  3  7  2  0
  7  5  1  0
  5  4  1  0
  4  1  1  0
 17 18  2  0
 18 19  1  0
 19 20  2  0
 20 21  1  0
 21 22  2  0
 22 17  1  0
M  END
$$$$
