No_6823-complexes_sdf/6BKW-FPZ/2024-09-17-14-21-01/
     RDKit          3D

 16 18  0  0  0  0  0  0  0  0999 V2000
   -7.9040    3.9820   27.1177 C   0  0  0  0  0  0  0  0  0  0  0  0
   -7.8663    4.8694   27.9238 C   0  0  0  0  0  0  0  0  0  0  0  0
   -9.0491    3.8523   26.2542 C   0  0  0  0  0  0  0  0  0  0  0  0
   -8.7661    5.9491   27.9690 C   0  0  0  0  0  0  0  0  0  0  0  0
   -9.1798    2.6731   25.4786 C   0  0  0  0  0  0  0  0  0  0  0  0
   -9.8964    5.8854   27.1460 C   0  0  0  0  0  0  0  0  0  0  0  0
   -9.9958    4.8034   26.3470 C   0  0  0  0  0  0  0  0  0  0  0  0
   -8.6595    1.4511   25.8687 C   0  0  0  0  0  0  0  0  0  0  0  0
   -9.6988    2.8049   24.0965 C   0  0  0  0  0  0  0  0  0  0  0  0
   -8.7634    0.3311   25.0633 C   0  0  0  0  0  0  0  0  0  0  0  0
   -9.8443    1.6333   23.3545 C   0  0  0  0  0  0  0  0  0  0  0  0
  -10.3789    1.7090   22.0229 C   0  0  0  0  0  0  0  0  0  0  0  0
   -9.2916    0.4161   23.7838 C   0  0  0  0  0  0  0  0  0  0  0  0
  -10.4508    2.9350   21.4705 C   0  0  0  0  0  0  0  0  0  0  0  0
  -10.4716    4.1063   22.2893 C   0  0  0  0  0  0  0  0  0  0  0  0
  -10.0785    4.0614   23.5687 C   0  0  0  0  0  0  0  0  0  0  0  0
  3  5  1  0
  1  2  2  0
  2  4  1  0
  4  6  2  0
  6  7  1  0
  7  3  2  0
  3  1  1  0
 11 12  2  0
 12 14  1  0
 14 15  2  0
 15 16  1  0
 16  9  2  0
  5  8  2  0
  8 10  1  0
 10 13  2  0
 13 11  1  0
 11  9  1  0
  9  5  1  0
M  END
$$$$
