No_6247-complexes_sdf/6BKW-FPZ/2024-09-17-14-21-01/
     RDKit          3D

 20 23  0  0  0  0  0  0  0  0999 V2000
   -7.2496    3.8871   27.4508 C   0  0  0  0  0  0  0  0  0  0  0  0
   -7.9379    4.9063   27.8518 C   0  0  0  0  0  0  0  0  0  0  0  0
   -7.5112    6.1898   27.6280 C   0  0  0  0  0  0  0  0  0  0  0  0
   -7.8078    2.6331   27.2522 C   0  0  0  0  0  0  0  0  0  0  0  0
   -9.1846    2.4724   27.5426 C   0  0  0  0  0  0  0  0  0  0  0  0
   -9.7167    1.1504   27.3421 C   0  0  0  0  0  0  0  0  0  0  0  0
   -8.8546    0.1794   26.8365 C   0  0  0  0  0  0  0  0  0  0  0  0
   -7.5828    0.3277   26.5825 C   0  0  0  0  0  0  0  0  0  0  0  0
   -6.9923    1.5676   26.7898 C   0  0  0  0  0  0  0  0  0  0  0  0
   -8.4452    7.2338   27.6194 C   0  0  0  0  0  0  0  0  0  0  0  0
   -9.8467    6.8272   27.3628 C   0  0  0  0  0  0  0  0  0  0  0  0
  -10.2224    5.5330   27.5867 C   0  0  0  0  0  0  0  0  0  0  0  0
   -9.3361    4.5913   27.7578 C   0  0  0  0  0  0  0  0  0  0  0  0
   -9.8210    3.3684   27.7573 N   0  0  0  0  0  0  0  0  0  0  0  0
  -11.2597    3.2004   28.1764 C   0  0  0  0  0  0  0  0  0  0  0  0
  -12.2739    3.5301   27.4828 C   0  0  0  0  0  0  0  0  0  0  0  0
  -13.5808    3.3523   27.8917 C   0  0  0  0  0  0  0  0  0  0  0  0
  -13.7854    2.8058   28.7807 C   0  0  0  0  0  0  0  0  0  0  0  0
  -12.8099    2.1750   29.7151 C   0  0  0  0  0  0  0  0  0  0  0  0
  -11.5083    2.4604   29.3819 C   0  0  0  0  0  0  0  0  0  0  0  0
  1  2  1  0
  1  4  1  0
  5 14  1  0
 13 14  1  0
 14 15  1  0
 15 16  2  0
 16 17  1  0
 17 18  2  0
 18 19  1  0
 19 20  2  0
 20 15  1  0
  4  5  2  0
  5  6  1  0
  6  7  2  0
  7  8  1  0
  8  9  2  0
  9  4  1  0
  2  3  2  0
  3 10  1  0
 10 11  2  0
 11 12  1  0
 12 13  2  0
 13  2  1  0
M  END
$$$$
