No_6123-complexes_sdf/6BKW-FPZ/2024-09-17-14-21-01/
     RDKit          3D

 10  9  0  0  0  0  0  0  0  0999 V2000
   -7.2496    3.8871   27.4508 C   0  0  0  0  0  0  0  0  0  0  0  0
   -7.9379    4.9063   27.8518 C   0  0  0  0  0  0  0  0  0  0  0  0
   -7.5112    6.1898   27.6280 C   0  0  0  0  0  0  0  0  0  0  0  0
   -9.3085    4.6933   28.2930 C   0  0  0  0  0  0  0  0  0  0  0  0
   -6.9422    2.7756   27.7940 C   0  0  0  0  0  0  0  0  0  0  0  0
   -6.4781    1.5534   27.2631 C   0  0  0  0  0  0  0  0  0  0  0  0
   -7.3778    0.6458   26.8948 C   0  0  0  0  0  0  0  0  0  0  0  0
   -6.9648   -0.6711   26.5718 C   0  0  0  0  0  0  0  0  0  0  0  0
   -5.5984   -0.9106   26.5653 C   0  0  0  0  0  0  0  0  0  0  0  0
   -4.6609   -0.0127   26.9690 C   0  0  0  0  0  0  0  0  0  0  0  0
  1  2  1  0
  2  3  1  0
  2  4  1  0
  1  5  2  3
  5  6  1  0
  6  7  2  3
  7  8  1  0
  8  9  2  3
  9 10  1  0
M  END
$$$$
