No_6324-complexes_sdf/6BKW-FPZ/2024-09-17-14-21-01/
     RDKit          3D

 16 16  0  0  0  0  0  0  0  0999 V2000
   -7.9040    3.9820   27.1177 C   0  0  0  0  0  0  0  0  0  0  0  0
   -8.2057    2.8231   26.8733 C   0  0  0  0  0  0  0  0  0  0  0  0
   -8.7695    5.0740   26.7916 C   0  0  0  0  0  0  0  0  0  0  0  0
   -8.4337    6.4678   27.0913 C   0  0  0  0  0  0  0  0  0  0  0  0
   -9.3742    2.4311   26.2346 C   0  0  0  0  0  0  0  0  0  0  0  0
  -10.2395    3.4267   25.8887 C   0  0  0  0  0  0  0  0  0  0  0  0
   -9.9567    4.7548   26.1374 C   0  0  0  0  0  0  0  0  0  0  0  0
   -8.8469    7.3199   26.4450 F   0  0  0  0  0  0  0  0  0  0  0  0
   -7.0078    6.5565   27.1206 F   0  0  0  0  0  0  0  0  0  0  0  0
   -7.0885    1.5081   27.3678 Cl  0  0  0  0  0  0  0  0  0  0  0  0
   -8.7963    6.6101   28.4437 F   0  0  0  0  0  0  0  0  0  0  0  0
  -11.4636    3.1600   25.1245 C   0  0  0  0  0  0  0  0  0  0  0  0
  -11.8457    3.9744   24.0469 C   0  0  0  0  0  0  0  0  0  0  0  0
  -10.8745    4.3110   23.1265 C   0  0  0  0  0  0  0  0  0  0  0  0
  -11.0141    4.1588   21.9638 C   0  0  0  0  0  0  0  0  0  0  0  0
   -9.8782    4.2391   20.9982 C   0  0  0  0  0  0  0  0  0  0  0  0
  3  4  1  0
  4  8  1  0
  4  9  1  0
  2 10  1  0
  4 11  1  0
  6 12  1  0
 12 13  1  0
 13 14  1  0
 14 15  2  3
 15 16  1  0
  1  2  2  0
  2  5  1  0
  5  6  2  0
  6  7  1  0
  7  3  2  0
  3  1  1  0
M  END
$$$$
