No_6831-complexes_sdf/6BKW-FPZ/2024-09-17-14-21-01/
     RDKit          3D

 26 30  0  0  0  0  0  0  0  0999 V2000
   -7.9040    3.9820   27.1177 C   0  0  0  0  0  0  0  0  0  0  0  0
   -9.0711    4.3164   27.0630 C   0  0  0  0  0  0  0  0  0  0  0  0
   -9.9692    3.7224   26.1073 C   0  0  0  0  0  0  0  0  0  0  0  0
   -7.4776    2.6994   26.6283 C   0  0  0  0  0  0  0  0  0  0  0  0
   -6.2837    2.0851   27.1779 C   0  0  0  0  0  0  0  0  0  0  0  0
   -6.0502    0.7317   27.0701 C   0  0  0  0  0  0  0  0  0  0  0  0
   -8.4220    1.8515   26.0329 C   0  0  0  0  0  0  0  0  0  0  0  0
   -9.6544    2.4706   25.6962 C   0  0  0  0  0  0  0  0  0  0  0  0
   -7.0987   -0.0497   26.4527 C   0  0  0  0  0  0  0  0  0  0  0  0
   -8.2471    0.5078   25.9297 C   0  0  0  0  0  0  0  0  0  0  0  0
   -4.8293    0.1760   27.6269 C   0  0  0  0  0  0  0  0  0  0  0  0
   -4.2223   -0.6353   27.2674 C   0  0  0  0  0  0  0  0  0  0  0  0
   -2.9076   -1.1167   27.8208 C   0  0  0  0  0  0  0  0  0  0  0  0
   -4.2865    0.9090   28.8700 C   0  0  0  0  0  0  0  0  0  0  0  0
   -3.1742    0.4679   29.5453 C   0  0  0  0  0  0  0  0  0  0  0  0
   -2.4679   -0.5795   28.9837 C   0  0  0  0  0  0  0  0  0  0  0  0
   -9.2456    5.9188   27.2683 C   0  0  0  0  0  0  0  0  0  0  0  0
   -8.2865    6.8833   26.9180 C   0  0  0  0  0  0  0  0  0  0  0  0
   -8.6008    8.2149   26.6386 C   0  0  0  0  0  0  0  0  0  0  0  0
  -10.6088    1.7913   24.8272 C   0  0  0  0  0  0  0  0  0  0  0  0
  -10.9163    2.4061   23.6757 C   0  0  0  0  0  0  0  0  0  0  0  0
  -11.3541    1.7647   22.5890 C   0  0  0  0  0  0  0  0  0  0  0  0
  -11.5326    0.3961   22.6377 C   0  0  0  0  0  0  0  0  0  0  0  0
  -11.1672   -0.2786   23.8028 C   0  0  0  0  0  0  0  0  0  0  0  0
  -10.6153    0.3934   24.8649 C   0  0  0  0  0  0  0  0  0  0  0  0
   -9.2784   -0.2571   25.2394 C   0  0  0  0  0  0  0  0  0  0  0  0
  6 11  1  0
  2 17  1  0
 17 18  1  0
 18 19  1  0
  8 20  1  0
 10 26  1  0
 25 26  1  0
  1  2  2  0
  2  3  1  0
  3  8  2  0
  8  7  1  0
  4  1  1  0
  4  5  2  0
  5  6  1  0
  6  9  2  0
  9 10  1  0
 10  7  2  0
  7  4  1  0
 20 21  2  0
 21 22  1  0
 22 23  2  0
 23 24  1  0
 24 25  2  0
 25 20  1  0
 11 12  2  0
 12 13  1  0
 13 16  2  0
 16 15  1  0
 15 14  2  0
 14 11  1  0
M  END
$$$$
