No_6393-complexes_sdf/6BKW-FPZ/2024-09-17-14-21-01/
     RDKit          3D

 21 23  0  0  0  0  0  0  0  0999 V2000
   -7.9040    3.9820   27.1177 C   0  0  0  0  0  0  0  0  0  0  0  0
   -7.8663    4.8694   27.9238 C   0  0  0  0  0  0  0  0  0  0  0  0
   -9.0491    3.8523   26.2542 C   0  0  0  0  0  0  0  0  0  0  0  0
   -8.7661    5.9491   27.9690 C   0  0  0  0  0  0  0  0  0  0  0  0
   -9.1798    2.6731   25.4786 C   0  0  0  0  0  0  0  0  0  0  0  0
   -9.8964    5.8854   27.1460 C   0  0  0  0  0  0  0  0  0  0  0  0
   -9.9958    4.8034   26.3470 C   0  0  0  0  0  0  0  0  0  0  0  0
   -8.6595    1.4511   25.8687 C   0  0  0  0  0  0  0  0  0  0  0  0
   -9.6988    2.8049   24.0965 C   0  0  0  0  0  0  0  0  0  0  0  0
   -8.7634    0.3311   25.0633 C   0  0  0  0  0  0  0  0  0  0  0  0
   -9.8443    1.6333   23.3544 C   0  0  0  0  0  0  0  0  0  0  0  0
   -9.3177    0.4367   23.7959 C   0  0  0  0  0  0  0  0  0  0  0  0
   -8.2544   -0.9543   25.5454 C   0  0  0  0  0  0  0  0  0  0  0  0
   -8.3299   -1.2669   26.7605 N   0  0  0  0  0  0  0  0  0  0  0  0
   -7.7258   -1.3682   27.6014 C   0  0  0  0  0  0  0  0  0  0  0  0
   -6.3065   -1.0173   27.6007 C   0  0  0  0  0  0  0  0  0  0  0  0
   -5.8750    0.0790   27.2607 C   0  0  0  0  0  0  0  0  0  0  0  0
   -4.8036    0.6976   27.7709 C   0  0  0  0  0  0  0  0  0  0  0  0
   -3.8230    0.0113   28.4721 C   0  0  0  0  0  0  0  0  0  0  0  0
   -4.2090   -1.2353   28.9658 C   0  0  0  0  0  0  0  0  0  0  0  0
   -5.4705   -1.7276   28.6747 C   0  0  0  0  0  0  0  0  0  0  0  0
  3  5  1  0
 10 13  1  0
 13 14  1  0
 14 15  2  3
 15 16  1  0
  1  2  2  0
  2  4  1  0
  4  6  2  0
  6  7  1  0
  7  3  2  0
  3  1  1  0
  5  8  2  0
  8 10  1  0
 10 12  2  0
 12 11  1  0
 11  9  2  0
  9  5  1  0
 16 17  2  0
 17 18  1  0
 18 19  2  0
 19 20  1  0
 20 21  2  0
 21 16  1  0
M  END
$$$$
