No_64-complexes_sdf/6BKW-FPZ/2024-09-17-14-21-01/
     RDKit          3D

 21 23  0  0  0  0  0  0  0  0999 V2000
   -7.2496    3.8871   27.4508 C   0  0  0  0  0  0  0  0  0  0  0  0
   -7.9379    4.9063   27.8518 C   0  0  0  0  0  0  0  0  0  0  0  0
   -7.5112    6.1898   27.6280 C   0  0  0  0  0  0  0  0  0  0  0  0
   -7.4783    2.5435   27.5904 C   0  0  1  0  0  0  0  0  0  0  0  0
   -8.8194    2.2030   27.8879 C   0  0  0  0  0  0  0  0  0  0  0  0
   -9.7541    3.2253   28.0908 C   0  0  1  0  0  0  0  0  0  0  0  0
  -11.1122    2.9836   28.4086 C   0  0  0  0  0  0  0  0  0  0  0  0
   -9.3313    4.5683   28.1314 C   0  0  0  0  0  0  0  0  0  0  0  0
  -11.5792    1.8369   28.6652 N   0  0  0  0  0  0  0  0  0  0  0  0
  -12.6536    1.3532   28.1348 C   0  0  0  0  0  0  0  0  0  0  0  0
  -13.6486    2.0209   28.0585 C   0  0  0  0  0  0  0  0  0  0  0  0
  -13.4202    3.5039   27.8280 C   0  0  0  0  0  0  0  0  0  0  0  0
  -12.1225    3.9809   27.9814 C   0  0  0  0  0  0  0  0  0  0  0  0
   -6.5801    1.4469   27.2713 C   0  0  0  0  0  0  0  0  0  0  0  0
   -6.9323    0.3118   26.6116 C   0  0  0  0  0  0  0  0  0  0  0  0
   -6.0922   -0.6983   26.4756 C   0  0  0  0  0  0  0  0  0  0  0  0
   -6.4334   -1.8095   25.6726 C   0  0  0  0  0  0  0  0  0  0  0  0
   -7.7129   -1.8594   25.1629 C   0  0  0  0  0  0  0  0  0  0  0  0
   -8.6013   -0.8336   25.3455 C   0  0  0  0  0  0  0  0  0  0  0  0
   -8.2358    0.2878   26.0901 C   0  0  0  0  0  0  0  0  0  0  0  0
   -5.5217    1.4471   28.1084 O   0  0  0  0  0  0  0  0  0  0  0  0
  1  2  1  0
  2  3  2  0
  1  4  1  0
  4  5  1  0
  5  6  1  0
  6  7  1  1
  2  8  1  0
  6  8  1  0
  4 14  1  6
 14 15  1  0
 14 21  2  0
  7  9  2  0
  9 10  1  0
 10 11  2  0
 11 12  1  0
 12 13  2  0
 13  7  1  0
 15 16  2  0
 16 17  1  0
 17 18  2  0
 18 19  1  0
 19 20  2  0
 20 15  1  0
M  END
$$$$
