No_628-complexes_sdf/6BKW-FPZ/2024-09-17-14-21-01/
     RDKit          3D

  9  9  0  0  0  0  0  0  0  0999 V2000
   -7.2496    3.8871   27.4508 C   0  0  0  0  0  0  0  0  0  0  0  0
   -7.6161    2.7143   27.1523 C   0  0  0  0  0  0  0  0  0  0  0  0
   -6.9719    1.5838   27.5324 C   0  0  0  0  0  0  0  0  0  0  0  0
   -5.6316    1.7305   27.9933 C   0  0  0  0  0  0  0  0  0  0  0  0
   -5.8952    4.0984   27.9705 C   0  0  0  0  0  0  0  0  0  0  0  0
   -5.1627    3.0216   28.2671 C   0  0  0  0  0  0  0  0  0  0  0  0
   -8.0902    5.0888   27.1966 C   0  0  0  0  0  0  0  0  0  0  0  0
   -9.2027    5.0955   26.3260 C   0  0  0  0  0  0  0  0  0  0  0  0
   -7.7701    6.3365   27.9018 C   0  0  0  0  0  0  0  0  0  0  0  0
  1  7  1  0
  7  8  1  0
  7  9  1  0
  1  2  2  0
  2  3  1  0
  3  4  2  0
  4  6  1  0
  6  5  2  0
  5  1  1  0
M  END
$$$$
