No_6523-complexes_sdf/6BKW-FPZ/2024-09-17-14-21-01/
     RDKit          3D

 14 15  0  0  0  0  0  0  0  0999 V2000
   -7.7129    4.2099   27.0854 C   0  0  0  0  0  0  0  0  0  0  0  0
   -7.7814    5.1722   27.8972 C   0  0  0  0  0  0  0  0  0  0  0  0
   -8.8998    3.8713   26.3707 C   0  0  0  0  0  0  0  0  0  0  0  0
   -9.9938    4.6774   26.5446 C   0  0  0  0  0  0  0  0  0  0  0  0
   -8.7789    6.1536   27.9256 C   0  0  0  0  0  0  0  0  0  0  0  0
   -9.9428    5.8398   27.2296 C   0  0  0  0  0  0  0  0  0  0  0  0
   -9.1379    2.6708   25.6021 C   0  0  0  0  0  0  0  0  0  0  0  0
   -8.5478    1.4835   26.0092 C   0  0  0  0  0  0  0  0  0  0  0  0
   -8.0293    1.3973   27.2774 C   0  0  0  0  0  0  0  0  0  0  0  0
   -8.5576    0.4384   25.1081 C   0  0  0  0  0  0  0  0  0  0  0  0
   -7.4671    0.0657   27.6616 C   0  0  0  0  0  0  0  0  0  0  0  0
   -7.9929   -0.8260   25.4895 C   0  0  0  0  0  0  0  0  0  0  0  0
   -7.4542   -0.9554   26.7730 C   0  0  0  0  0  0  0  0  0  0  0  0
   -9.9044    2.7249   24.5869 O   0  0  0  0  0  0  0  0  0  0  0  0
  3  7  1  0
  7  8  1  0
  7 14  2  0
  8  9  2  0
  9 11  1  0
 11 13  2  0
 13 12  1  0
 12 10  2  0
 10  8  1  0
  1  2  2  0
  2  5  1  0
  5  6  2  0
  6  4  1  0
  4  3  2  0
  3  1  1  0
M  END
$$$$
