No_608-complexes_sdf/6BKW-FPZ/2024-09-17-14-21-01/
     RDKit          3D

 25 28  0  0  0  0  0  0  0  0999 V2000
   -7.9040    3.9820   27.1177 C   0  0  0  0  0  0  0  0  0  0  0  0
   -7.8663    4.8694   27.9238 C   0  0  0  0  0  0  0  0  0  0  0  0
   -9.0501    3.8017   26.2617 C   0  0  0  0  0  0  0  0  0  0  0  0
  -10.0189    4.7608   26.3707 C   0  0  0  0  0  0  0  0  0  0  0  0
   -8.6770    5.9780   27.9222 C   0  0  0  0  0  0  0  0  0  0  0  0
   -9.8040    5.8752   27.0958 C   0  0  0  0  0  0  0  0  0  0  0  0
   -9.1317    2.6414   25.4147 C   0  0  0  0  0  0  0  0  0  0  0  0
  -10.1023    1.8375   25.7202 C   0  0  0  0  0  0  0  0  0  0  0  0
  -11.0658    1.8417   26.1961 C   0  0  0  0  0  0  0  0  0  0  0  0
  -11.5672    3.1000   26.8464 C   0  0  2  0  0  0  0  0  0  0  0  0
  -10.9805    4.6246   25.5225 N   0  0  0  0  0  0  0  0  0  0  0  0
  -12.6638    2.8077   27.9309 C   0  0  0  0  0  0  0  0  0  0  0  0
  -11.8240    4.2649   26.3488 C   0  0  0  0  0  0  0  0  0  0  0  0
  -13.6106    2.2913   27.9773 C   0  0  0  0  0  0  0  0  0  0  0  0
  -14.4381    2.0294   29.1851 C   0  0  0  0  0  0  0  0  0  0  0  0
  -13.9724    2.4720   30.4158 C   0  0  0  0  0  0  0  0  0  0  0  0
  -12.7544    3.1570   30.4510 C   0  0  0  0  0  0  0  0  0  0  0  0
  -12.0473    3.3235   29.3359 C   0  0  0  0  0  0  0  0  0  0  0  0
  -14.7694    2.3214   31.6469 C   0  0  0  0  0  0  0  0  0  0  0  0
  -15.2194    1.2979   31.9887 C   0  0  0  0  0  0  0  0  0  0  0  0
  -15.6521    0.8529   32.9546 C   0  0  0  0  0  0  0  0  0  0  0  0
  -15.7564    1.8124   34.1329 C   0  0  0  0  0  0  0  0  0  0  0  0
  -15.2651    3.0845   33.8910 C   0  0  0  0  0  0  0  0  0  0  0  0
  -14.6430    3.3730   32.7103 C   0  0  0  0  0  0  0  0  0  0  0  0
   -6.9610    3.0015   27.1732 F   0  0  0  0  0  0  0  0  0  0  0  0
  3  7  1  0
  7  8  1  0
  8  9  2  3
  9 10  1  0
  4 11  1  0
 10 12  1  6
 10 13  1  0
 11 13  2  3
 16 19  1  0
  1 25  1  0
 12 14  2  0
 14 15  1  0
 15 16  2  0
 16 17  1  0
 17 18  2  0
 18 12  1  0
  1  2  2  0
  2  5  1  0
  5  6  2  0
  6  4  1  0
  4  3  2  0
  3  1  1  0
 19 20  2  0
 20 21  1  0
 21 22  2  0
 22 23  1  0
 23 24  2  0
 24 19  1  0
M  END
$$$$
