No_60-complexes_sdf/6BKW-FPZ/2024-09-17-14-21-01/
     RDKit          3D

  7  6  0  0  0  0  0  0  0  0999 V2000
   -7.9040    3.9820   27.1177 C   0  0  0  0  0  0  0  0  0  0  0  0
   -7.8663    4.8694   27.9238 C   0  0  0  0  0  0  0  0  0  0  0  0
   -9.0501    3.8017   26.2617 C   0  0  0  0  0  0  0  0  0  0  0  0
  -10.0189    4.7608   26.3707 C   0  0  0  0  0  0  0  0  0  0  0  0
   -8.6973    5.9722   27.8968 C   0  0  0  0  0  0  0  0  0  0  0  0
   -9.8216    5.8946   27.1241 C   0  0  0  0  0  0  0  0  0  0  0  0
   -8.4277    7.1744   28.4669 O   0  0  0  0  0  0  0  0  0  0  0  0
  1  2  2  3
  1  3  1  0
  3  4  2  3
  2  5  1  0
  4  6  1  0
  5  7  1  0
M  END
$$$$
