No_6186-complexes_sdf/6BKW-FPZ/2024-09-17-14-21-01/
     RDKit          3D

 16 18  0  0  0  0  0  0  0  0999 V2000
   -7.9040    3.9820   27.1177 C   0  0  0  0  0  0  0  0  0  0  0  0
   -7.8663    4.8694   27.9238 C   0  0  0  0  0  0  0  0  0  0  0  0
   -9.0501    3.8017   26.2617 C   0  0  0  0  0  0  0  0  0  0  0  0
   -9.1826    2.7026   25.3575 C   0  0  0  0  0  0  0  0  0  0  0  0
   -8.6940    6.0131   27.8614 C   0  0  0  0  0  0  0  0  0  0  0  0
   -9.9755    4.8547   26.2361 C   0  0  0  0  0  0  0  0  0  0  0  0
   -9.7463    5.9398   27.0364 C   0  0  0  0  0  0  0  0  0  0  0  0
  -10.0893    2.7801   24.3306 C   0  0  0  0  0  0  0  0  0  0  0  0
  -10.2628    1.6769   23.4896 C   0  0  0  0  0  0  0  0  0  0  0  0
   -9.3750    0.5340   23.6599 C   0  0  0  0  0  0  0  0  0  0  0  0
   -8.4136    1.4818   25.4230 C   0  0  0  0  0  0  0  0  0  0  0  0
   -8.4864    0.5055   24.6361 C   0  0  0  0  0  0  0  0  0  0  0  0
   -7.6342   -0.6763   24.7766 C   0  0  0  0  0  0  0  0  0  0  0  0
   -7.0290   -1.1925   23.7959 C   0  0  0  0  0  0  0  0  0  0  0  0
   -7.1568   -0.5681   22.5150 C   0  0  0  0  0  0  0  0  0  0  0  0
   -8.2074    0.1620   22.2373 C   0  0  0  0  0  0  0  0  0  0  0  0
  3  4  1  0
  4  8  2  0
  8  9  1  0
  9 10  2  0
 12 11  2  0
 11  4  1  0
  1  2  2  0
  2  5  1  0
  5  7  2  0
  7  6  1  0
  6  3  2  0
  3  1  1  0
 10 12  1  0
 12 13  1  0
 13 14  2  0
 14 15  1  0
 15 16  2  0
 16 10  1  0
M  END
$$$$
