No_6596-complexes_sdf/6BKW-FPZ/2024-09-17-14-21-01/
     RDKit          3D

 19 20  0  0  0  0  0  0  0  0999 V2000
   -7.9040    3.9820   27.1177 C   0  0  0  0  0  0  0  0  0  0  0  0
   -7.8663    4.8694   27.9238 C   0  0  0  0  0  0  0  0  0  0  0  0
   -9.0501    3.8017   26.2617 C   0  0  0  0  0  0  0  0  0  0  0  0
   -9.1826    2.7026   25.3575 C   0  0  0  0  0  0  0  0  0  0  0  0
   -8.6940    6.0131   27.8614 C   0  0  0  0  0  0  0  0  0  0  0  0
   -9.9755    4.8547   26.2361 C   0  0  0  0  0  0  0  0  0  0  0  0
   -9.7463    5.9398   27.0364 C   0  0  0  0  0  0  0  0  0  0  0  0
  -10.1068    2.7543   24.3357 C   0  0  0  0  0  0  0  0  0  0  0  0
  -10.2724    1.6570   23.4902 C   0  0  0  0  0  0  0  0  0  0  0  0
   -9.3561    0.5430   23.6390 C   0  0  0  0  0  0  0  0  0  0  0  0
   -8.3767    1.5070   25.4460 C   0  0  0  0  0  0  0  0  0  0  0  0
   -8.4591    0.5113   24.6225 C   0  0  0  0  0  0  0  0  0  0  0  0
   -7.5882   -0.6597   24.7600 C   0  0  0  0  0  0  0  0  0  0  0  0
   -6.8379   -0.8563   23.7883 F   0  0  0  0  0  0  0  0  0  0  0  0
   -6.6854   -0.4536   25.7796 F   0  0  0  0  0  0  0  0  0  0  0  0
   -8.2768   -1.7354   25.0692 F   0  0  0  0  0  0  0  0  0  0  0  0
  -11.1554    1.7229   22.3764 C   0  0  0  0  0  0  0  0  0  0  0  0
  -12.0110    1.1001   22.0990 C   0  0  0  0  0  0  0  0  0  0  0  0
  -12.9010    1.1998   20.9324 C   0  0  0  0  0  0  0  0  0  0  0  0
  3  4  1  0
 12 13  1  0
 13 14  1  0
 13 15  1  0
 13 16  1  0
  9 17  1  0
 17 18  2  3
 18 19  1  0
  4  8  2  0
  8  9  1  0
  9 10  2  0
 10 12  1  0
 12 11  2  0
 11  4  1  0
  1  2  2  0
  2  5  1  0
  5  7  2  0
  7  6  1  0
  6  3  2  0
  3  1  1  0
M  END
$$$$
