No_6448-complexes_sdf/6BKW-FPZ/2024-09-17-14-21-01/
     RDKit          3D

 13 14  0  0  0  0  0  0  0  0999 V2000
   -7.2496    3.8871   27.4508 C   0  0  0  0  0  0  0  0  0  0  0  0
   -7.6161    2.7143   27.1523 C   0  0  0  0  0  0  0  0  0  0  0  0
   -8.8302    2.4659   26.5056 C   0  0  0  0  0  0  0  0  0  0  0  0
   -8.1584    5.0090   27.3234 C   0  0  0  0  0  0  0  0  0  0  0  0
   -9.3788    4.7965   26.7695 C   0  0  0  0  0  0  0  0  0  0  0  0
   -9.7028    3.5649   26.3276 C   0  0  0  0  0  0  0  0  0  0  0  0
   -6.6031    1.7711   27.4433 N   0  0  0  0  0  0  0  0  0  0  0  0
   -5.4022    2.0094   27.7908 C   0  0  0  0  0  0  0  0  0  0  0  0
   -6.9588    0.3581   27.2122 C   0  0  0  0  0  0  0  0  0  0  0  0
   -4.4686    0.8800   28.1722 C   0  0  0  0  0  0  0  0  0  0  0  0
   -6.1041   -0.6411   27.6320 C   0  0  0  0  0  0  0  0  0  0  0  0
   -4.8163   -0.3355   28.1338 C   0  0  0  0  0  0  0  0  0  0  0  0
   -7.7396    6.2789   27.7521 N   0  0  0  0  0  0  0  0  0  0  0  0
  2  7  1  0
  7  8  1  0
  7  9  1  0
 10 12  1  0
 11 12  1  0
  4 13  1  0
  8 10  1  0
 11  9  1  0
  1  2  2  0
  2  3  1  0
  3  6  2  0
  6  5  1  0
  5  4  2  0
  4  1  1  0
M  END
$$$$
