No_600-complexes_sdf/6BKW-FPZ/2024-09-17-14-21-01/
     RDKit          3D

 26 29  0  0  0  0  0  0  0  0999 V2000
   -7.7129    4.2099   27.0854 C   0  0  0  0  0  0  0  0  0  0  0  0
   -8.2112    3.0637   26.9225 C   0  0  0  0  0  0  0  0  0  0  0  0
   -7.5138    1.9223   27.4249 C   0  0  0  0  0  0  0  0  0  0  0  0
   -8.5309    5.4147   26.8151 C   0  0  0  0  0  0  0  0  0  0  0  0
   -9.6817    5.2393   26.1100 C   0  0  0  0  0  0  0  0  0  0  0  0
  -10.1032    3.9957   25.8534 C   0  0  0  0  0  0  0  0  0  0  0  0
   -9.4073    2.9638   26.2624 C   0  0  0  0  0  0  0  0  0  0  0  0
   -6.1499    1.9685   27.8117 C   0  0  0  0  0  0  0  0  0  0  0  0
   -7.9443    0.5827   27.1357 C   0  0  0  0  0  0  0  0  0  0  0  0
   -5.3821    0.8615   28.1792 C   0  0  0  0  0  0  0  0  0  0  0  0
   -7.2326   -0.5355   27.5925 C   0  0  0  0  0  0  0  0  0  0  0  0
   -5.9349   -0.3771   28.0882 C   0  0  0  0  0  0  0  0  0  0  0  0
   -7.9698    6.7663   27.1177 C   0  0  0  0  0  0  0  0  0  0  0  0
   -4.0994    1.0506   28.6731 N   0  0  0  0  0  0  0  0  0  0  0  0
   -8.6475    7.8607   26.7527 N   0  0  0  0  0  0  0  0  0  0  0  0
   -6.9140    6.8287   27.8020 O   0  0  0  0  0  0  0  0  0  0  0  0
  -11.5566    3.8525   24.9418 Cl  0  0  0  0  0  0  0  0  0  0  0  0
   -3.3942    0.0996   29.3315 C   0  0  0  0  0  0  0  0  0  0  0  0
   -3.7517   -1.1211   29.3816 C   0  0  0  0  0  0  0  0  0  0  0  0
   -5.1493   -1.4620   28.7714 C   0  0  0  0  0  0  0  0  0  0  0  0
   -3.0515   -2.2099   29.9698 C   0  0  0  0  0  0  0  0  0  0  0  0
   -3.2861   -3.1444   30.2616 C   0  0  0  0  0  0  0  0  0  0  0  0
   -2.4275   -4.1887   30.9028 C   0  0  0  0  0  0  0  0  0  0  0  0
   -1.1077   -3.8510   31.1519 C   0  0  0  0  0  0  0  0  0  0  0  0
   -0.6765   -2.5694   30.7811 C   0  0  0  0  0  0  0  0  0  0  0  0
   -1.5504   -1.6831   30.2482 C   0  0  0  0  0  0  0  0  0  0  0  0
  2  3  1  0
  4 13  1  0
 13 15  1  0
 13 16  2  0
  6 17  1  0
 19 21  1  0
 12 20  2  0
 20 19  1  0
 19 18  2  0
 18 14  1  0
 14 10  2  0
  1  2  2  0
  2  7  1  0
  7  6  2  0
  6  5  1  0
  5  4  2  0
  4  1  1  0
  3  8  2  0
  8 10  1  0
 10 12  1  0
 12 11  1  0
 11  9  2  0
  9  3  1  0
 21 22  2  0
 22 23  1  0
 23 24  2  0
 24 25  1  0
 25 26  2  0
 26 21  1  0
M  END
$$$$
