No_6548-complexes_sdf/6BKW-FPZ/2024-09-17-14-21-01/
     RDKit          3D

 10 11  0  0  0  0  0  0  0  0999 V2000
   -7.9040    3.9820   27.1177 C   0  0  0  0  0  0  0  0  0  0  0  0
   -7.8663    4.8694   27.9238 C   0  0  0  0  0  0  0  0  0  0  0  0
   -9.0491    3.8523   26.2542 C   0  0  0  0  0  0  0  0  0  0  0  0
   -9.4067    2.6808   25.6532 C   0  0  0  0  0  0  0  0  0  0  0  0
   -8.4979    6.1198   27.7613 C   0  0  0  0  0  0  0  0  0  0  0  0
   -9.5967    6.1558   26.9018 C   0  0  0  0  0  0  0  0  0  0  0  0
   -9.7441    5.0354   26.1190 C   0  0  0  0  0  0  0  0  0  0  0  0
   -8.9622    1.4614   26.1009 C   0  0  0  0  0  0  0  0  0  0  0  0
   -8.3931    1.4428   27.4309 C   0  0  0  0  0  0  0  0  0  0  0  0
   -7.5372    2.6544   27.7554 C   0  0  0  0  0  0  0  0  0  0  0  0
  3  4  1  0
  4  8  2  0
  8  9  1  0
  9 10  2  0
 10  1  1  0
  1  2  2  0
  2  5  1  0
  5  6  2  0
  6  7  1  0
  7  3  2  0
  3  1  1  0
M  END
$$$$
