No_6003-complexes_sdf/6BKW-FPZ/2024-09-17-14-21-01/
     RDKit          3D

 22 25  0  0  0  0  0  0  0  0999 V2000
   -7.9040    3.9820   27.1177 C   0  0  0  0  0  0  0  0  0  0  0  0
   -9.0711    4.3164   27.0630 C   0  0  0  0  0  0  0  0  0  0  0  0
   -9.9692    3.7224   26.1073 C   0  0  0  0  0  0  0  0  0  0  0  0
   -7.4776    2.6994   26.6283 C   0  0  0  0  0  0  0  0  0  0  0  0
   -8.4406    1.9440   25.9776 C   0  0  0  0  0  0  0  0  0  0  0  0
   -9.6379    2.5001   25.6881 C   0  0  0  0  0  0  0  0  0  0  0  0
   -7.0137    4.6011   27.9177 F   0  0  0  0  0  0  0  0  0  0  0  0
  -10.6139    1.7222   24.8408 C   0  0  1  0  0  0  0  0  0  0  0  0
  -11.2776    2.2437   23.9371 C   0  0  2  0  0  0  0  0  0  0  0  0
  -11.0926    3.7405   23.6987 C   0  0  1  0  0  0  0  0  0  0  0  0
  -11.6965    4.4734   22.6761 C   0  0  0  0  0  0  0  0  0  0  0  0
  -10.3157    4.5583   24.6877 C   0  0  0  0  0  0  0  0  0  0  0  0
  -11.6203    5.6171   22.5310 C   0  0  0  0  0  0  0  0  0  0  0  0
  -11.6937    3.6084   21.4625 C   0  0  0  0  0  0  0  0  0  0  0  0
  -12.4430    4.0528   20.4497 C   0  0  0  0  0  0  0  0  0  0  0  0
  -12.3099    6.2196   21.3602 C   0  0  0  0  0  0  0  0  0  0  0  0
  -12.5849    5.4400   20.3189 C   0  0  0  0  0  0  0  0  0  0  0  0
  -10.5553    0.2498   24.8713 C   0  0  0  0  0  0  0  0  0  0  0  0
  -11.2168   -0.3732   24.2201 N   0  0  0  0  0  0  0  0  0  0  0  0
  -12.3683   -0.1195   23.8064 C   0  0  0  0  0  0  0  0  0  0  0  0
  -12.4437    1.3392   23.3764 C   0  0  0  0  0  0  0  0  0  0  0  0
  -11.1241   -1.8764   24.4572 C   0  0  0  0  0  0  0  0  0  0  0  0
  1  7  1  0
  6  8  1  0
  9 10  1  0
  3 12  1  0
 10 12  1  0
  8 18  1  6
 18 19  1  0
 19 20  1  0
  9 21  1  1
 19 22  1  0
 10 11  1  1
  8  9  1  0
 21 20  1  0
 11 13  2  0
 13 16  1  0
 16 17  2  0
 17 15  1  0
 15 14  2  0
 14 11  1  0
  1  2  2  0
  2  3  1  0
  3  6  2  0
  6  5  1  0
  5  4  2  0
  4  1  1  0
M  END
$$$$
