No_6274-complexes_sdf/6BKW-FPZ/2024-09-17-14-21-01/
     RDKit          3D

 35 38  0  0  0  0  0  0  0  0999 V2000
   -7.9040    3.9820   27.1177 C   0  0  0  0  0  0  0  0  0  0  0  0
   -8.2057    2.8231   26.8733 C   0  0  0  0  0  0  0  0  0  0  0  0
   -7.4766    1.7477   27.4593 C   0  0  0  0  0  0  0  0  0  0  0  0
   -8.7468    5.1251   26.6967 C   0  0  0  0  0  0  0  0  0  0  0  0
   -8.4775    6.4967   27.1056 C   0  0  0  0  0  0  0  0  0  0  0  0
   -7.7864    0.3940   27.2703 C   0  0  0  0  0  0  0  0  0  0  0  0
   -9.0192    0.1650   26.6014 C   0  0  0  0  0  0  0  0  0  0  0  0
   -9.7483    1.1632   26.0299 C   0  0  0  0  0  0  0  0  0  0  0  0
   -9.3475    2.4797   26.2024 C   0  0  0  0  0  0  0  0  0  0  0  0
   -9.3104    7.5147   26.6382 C   0  0  0  0  0  0  0  0  0  0  0  0
   -9.8388    4.8130   25.8391 C   0  0  0  0  0  0  0  0  0  0  0  0
  -10.1963    3.5034   25.6391 C   0  0  0  0  0  0  0  0  0  0  0  0
   -7.2054    6.7088   27.7508 C   0  0  0  0  0  0  0  0  0  0  0  0
   -7.0016   -0.6528   27.8823 C   0  0  2  0  0  0  0  0  0  0  0  0
   -6.1368   -1.1217   27.3167 C   0  0  0  0  0  0  0  0  0  0  0  0
   -5.1821   -2.1320   27.9645 C   0  0  0  0  0  0  0  0  0  0  0  0
   -3.9866   -2.5135   27.3813 C   0  0  0  0  0  0  0  0  0  0  0  0
   -3.6493   -1.9592   26.0998 C   0  0  0  0  0  0  0  0  0  0  0  0
   -4.4671   -1.0191   25.5250 C   0  0  0  0  0  0  0  0  0  0  0  0
   -5.6048   -0.5418   26.0859 C   0  0  0  0  0  0  0  0  0  0  0  0
   -7.5731   -1.0889   28.9951 F   0  0  0  0  0  0  0  0  0  0  0  0
  -11.3002    3.2739   24.7560 C   0  0  0  0  0  0  0  0  0  0  0  0
  -11.2474    3.7552   23.5118 C   0  0  0  0  0  0  0  0  0  0  0  0
  -12.2649    3.5091   22.5431 C   0  0  0  0  0  0  0  0  0  0  0  0
  -13.2675    2.7198   22.9089 C   0  0  0  0  0  0  0  0  0  0  0  0
  -13.3516    2.2279   24.2026 C   0  0  0  0  0  0  0  0  0  0  0  0
  -12.3649    2.4656   25.1329 C   0  0  0  0  0  0  0  0  0  0  0  0
  -14.5421    1.3842   24.5559 C   0  0  0  0  0  0  0  0  0  0  0  0
  -15.3543    1.0332   23.9245 O   0  0  0  0  0  0  0  0  0  0  0  0
  -14.3118    0.6917   25.7800 O   0  0  0  0  0  0  0  0  0  0  0  0
  -15.0730   -0.3085   26.1815 C   0  0  0  0  0  0  0  0  0  0  0  0
  -15.9801   -0.1496   27.1810 C   0  0  0  0  0  0  0  0  0  0  0  0
  -16.7449   -1.0169   27.4596 O   0  0  0  0  0  0  0  0  0  0  0  0
  -15.9873    1.0153   27.7961 O   0  0  0  0  0  0  0  0  0  0  0  0
  -14.8298   -1.3662   25.5999 O   0  0  0  0  0  0  0  0  0  0  0  0
  5 10  1  0
  5 13  1  0
  6 14  1  0
 14 21  1  6
 12 22  1  0
 26 28  1  0
 28 29  2  0
 28 30  1  0
 30 31  1  0
 31 32  1  0
 32 33  1  0
 32 34  2  0
 31 35  2  0
  5  4  1  0
 14 15  1  0
 15 16  2  0
 16 17  1  0
 17 18  2  0
 18 19  1  0
 19 20  2  0
 20 15  1  0
  2  3  1  0
  3  6  2  0
  6  7  1  0
  7  8  2  0
  8  9  1  0
 22 23  2  0
 23 24  1  0
 24 25  2  0
 25 26  1  0
 26 27  2  0
 27 22  1  0
  1  2  2  0
  2  9  1  0
  9 12  2  0
 12 11  1  0
 11  4  2  0
  4  1  1  0
M  END
$$$$
