No_6439-complexes_sdf/6BKW-FPZ/2024-09-17-14-21-01/
     RDKit          3D

 16 16  0  0  0  0  0  0  0  0999 V2000
   -7.9040    3.9820   27.1177 C   0  0  0  0  0  0  0  0  0  0  0  0
   -8.2057    2.8231   26.8733 C   0  0  0  0  0  0  0  0  0  0  0  0
   -9.2962    2.4021   26.1155 C   0  0  0  0  0  0  0  0  0  0  0  0
   -8.7358    5.0662   26.5917 C   0  0  0  0  0  0  0  0  0  0  0  0
   -9.7618    4.7022   25.7546 C   0  0  0  0  0  0  0  0  0  0  0  0
  -10.0066    3.4105   25.4922 C   0  0  0  0  0  0  0  0  0  0  0  0
   -8.3936    6.4769   26.8843 C   0  0  0  0  0  0  0  0  0  0  0  0
   -8.6672    7.3248   26.1418 F   0  0  0  0  0  0  0  0  0  0  0  0
   -8.9022    6.6135   28.1638 F   0  0  0  0  0  0  0  0  0  0  0  0
   -7.0220    6.5735   27.1791 F   0  0  0  0  0  0  0  0  0  0  0  0
   -7.5285    1.5386   27.4304 C   0  0  2  0  0  0  0  0  0  0  0  0
   -6.1061    1.6305   27.7090 C   0  0  0  0  0  0  0  0  0  0  0  0
   -5.4183    0.5420   28.2147 C   0  0  0  0  0  0  0  0  0  0  0  0
   -6.0600   -0.6691   28.2706 C   0  0  0  0  0  0  0  0  0  0  0  0
   -8.0153    0.2883   27.4887 C   0  0  0  0  0  0  0  0  0  0  0  0
   -9.4262    0.2036   27.1963 C   0  0  0  0  0  0  0  0  0  0  0  0
  4  7  1  0
  7  8  1  0
  7  9  1  0
  7 10  1  0
  2 11  1  0
 11 12  1  0
 12 13  2  3
 13 14  1  0
 11 15  1  6
 15 16  2  0
  1  2  2  0
  2  3  1  0
  3  6  2  0
  6  5  1  0
  5  4  2  0
  4  1  1  0
M  END
$$$$
