No_6939-complexes_sdf/6BKW-FPZ/2024-09-17-14-21-01/
     RDKit          3D

 25 27  0  0  0  0  0  0  0  0999 V2000
   -7.9040    3.9820   27.1177 C   0  0  0  0  0  0  0  0  0  0  0  0
   -8.2057    2.8231   26.8733 C   0  0  0  0  0  0  0  0  0  0  0  0
   -8.7695    5.0740   26.7916 C   0  0  0  0  0  0  0  0  0  0  0  0
   -9.9618    4.7598   26.1630 C   0  0  0  0  0  0  0  0  0  0  0  0
   -9.4200    2.4524   26.2849 C   0  0  0  0  0  0  0  0  0  0  0  0
  -10.2590    3.4815   25.9250 C   0  0  0  0  0  0  0  0  0  0  0  0
   -8.3837    6.4702   27.0872 C   0  0  0  0  0  0  0  0  0  0  0  0
   -7.7610    6.8612   28.1191 N   0  0  0  0  0  0  0  0  0  0  0  0
   -8.4483    7.2359   26.0595 F   0  0  0  0  0  0  0  0  0  0  0  0
   -7.3561    1.7956   27.2818 F   0  0  0  0  0  0  0  0  0  0  0  0
  -11.4943    3.3840   25.1334 C   0  0  0  0  0  0  0  0  0  0  0  0
  -12.6465    3.4429   25.8390 C   0  0  0  0  0  0  0  0  0  0  0  0
  -13.8684    3.6253   25.2623 C   0  0  0  0  0  0  0  0  0  0  0  0
  -13.9141    3.5335   23.8333 C   0  0  0  0  0  0  0  0  0  0  0  0
  -11.5099    3.4721   23.7481 C   0  0  0  0  0  0  0  0  0  0  0  0
  -12.7214    3.5796   23.0932 C   0  0  0  0  0  0  0  0  0  0  0  0
  -10.2662    3.4958   22.9914 C   0  0  1  0  0  0  0  0  0  0  0  0
   -9.7788    2.5314   22.6345 C   0  0  0  0  0  0  0  0  0  0  0  0
   -9.8743    1.4058   21.9595 C   0  0  0  0  0  0  0  0  0  0  0  0
  -11.1693    1.0546   21.4285 C   0  0  0  0  0  0  0  0  0  0  0  0
  -11.3098   -0.1662   20.7209 C   0  0  0  0  0  0  0  0  0  0  0  0
  -10.1627   -0.9468   20.4971 C   0  0  0  0  0  0  0  0  0  0  0  0
   -8.9409   -0.6490   21.0192 C   0  0  0  0  0  0  0  0  0  0  0  0
   -8.7589    0.5153   21.7875 C   0  0  0  0  0  0  0  0  0  0  0  0
  -10.0655    4.8030   22.3464 C   0  0  0  0  0  0  0  0  0  0  0  0
  3  7  1  0
  7  8  2  0
  7  9  1  0
  2 10  1  0
  6 11  1  0
 15 17  1  0
 17 18  1  0
 17 25  1  6
 18 19  1  0
 11 12  2  0
 12 13  1  0
 13 14  2  0
 14 16  1  0
 16 15  2  0
 15 11  1  0
  1  2  2  0
  2  5  1  0
  5  6  2  0
  6  4  1  0
  4  3  2  0
  3  1  1  0
 19 20  2  0
 20 21  1  0
 21 22  2  0
 22 23  1  0
 23 24  2  0
 24 19  1  0
M  END
$$$$
