No_6433-complexes_sdf/6BKW-FPZ/2024-09-17-14-21-01/
     RDKit          3D

 13 14  0  0  0  0  0  0  0  0999 V2000
   -7.7129    4.2099   27.0854 C   0  0  0  0  0  0  0  0  0  0  0  0
   -8.9133    4.4736   27.0998 C   0  0  0  0  0  0  0  0  0  0  0  0
   -9.4643    5.5426   27.7628 C   0  0  0  0  0  0  0  0  0  0  0  0
   -6.8373    4.9942   27.9785 C   0  0  0  0  0  0  0  0  0  0  0  0
   -7.3717    6.0428   28.6744 C   0  0  0  0  0  0  0  0  0  0  0  0
   -8.6869    6.3937   28.5345 C   0  0  0  0  0  0  0  0  0  0  0  0
   -9.8077    3.6185   26.2213 C   0  0  0  0  0  0  0  0  0  0  0  0
   -9.9211    2.3431   26.3758 C   0  0  0  0  0  0  0  0  0  0  0  0
  -10.6481    1.5044   25.5349 C   0  0  0  0  0  0  0  0  0  0  0  0
  -10.6232    0.1158   25.7019 C   0  0  0  0  0  0  0  0  0  0  0  0
   -9.8496   -0.4326   26.7735 C   0  0  0  0  0  0  0  0  0  0  0  0
   -9.1000    0.3263   27.5987 C   0  0  0  0  0  0  0  0  0  0  0  0
   -9.0979    1.6783   27.4579 C   0  0  0  0  0  0  0  0  0  0  0  0
  2  7  1  0
  7  8  1  0
  1  2  2  0
  2  3  1  0
  3  6  2  0
  6  5  1  0
  5  4  2  0
  4  1  1  0
  8  9  2  0
  9 10  1  0
 10 11  2  0
 11 12  1  0
 12 13  2  0
 13  8  1  0
M  END
$$$$
