No_6947-complexes_sdf/6BKW-FPZ/2024-09-17-14-21-01/
     RDKit          3D

 12 13  0  0  0  0  0  0  0  0999 V2000
   -7.9040    3.9820   27.1177 C   0  0  0  0  0  0  0  0  0  0  0  0
   -7.8663    4.8694   27.9238 C   0  0  0  0  0  0  0  0  0  0  0  0
   -9.0806    3.1428   27.1220 C   0  0  0  0  0  0  0  0  0  0  0  0
   -9.1366    1.9856   26.2314 C   0  0  0  0  0  0  0  0  0  0  0  0
   -8.8079    5.7107   28.1389 C   0  0  0  0  0  0  0  0  0  0  0  0
  -10.1797    5.1453   27.9407 C   0  0  0  0  0  0  0  0  0  0  0  0
  -10.2114    3.9346   27.3083 C   0  0  0  0  0  0  0  0  0  0  0  0
   -9.9973    1.5816   25.5585 C   0  0  0  0  0  0  0  0  0  0  0  0
   -9.9164    0.4176   24.7680 C   0  0  0  0  0  0  0  0  0  0  0  0
   -8.7821   -0.3851   24.9191 C   0  0  0  0  0  0  0  0  0  0  0  0
   -7.7975   -0.0392   25.7629 C   0  0  0  0  0  0  0  0  0  0  0  0
   -7.8583    1.1454   26.5347 C   0  0  0  0  0  0  0  0  0  0  0  0
  3  4  1  0
  4  8  2  0
  8  9  1  0
  9 10  2  0
 10 11  1  0
 11 12  2  0
 12  4  1  0
  1  2  2  0
  2  5  1  0
  5  6  2  0
  6  7  1  0
  7  3  2  0
  3  1  1  0
M  END
$$$$
