No_6914-complexes_sdf/6BKW-FPZ/2024-09-17-14-21-01/
     RDKit          3D

 15 16  0  0  0  0  0  0  0  0999 V2000
   -7.7129    4.2099   27.0854 C   0  0  0  0  0  0  0  0  0  0  0  0
   -8.9133    4.4736   27.0998 C   0  0  0  0  0  0  0  0  0  0  0  0
   -9.4643    5.5426   27.7628 C   0  0  0  0  0  0  0  0  0  0  0  0
   -6.8373    4.9942   27.9785 C   0  0  0  0  0  0  0  0  0  0  0  0
   -7.3717    6.0428   28.6744 C   0  0  0  0  0  0  0  0  0  0  0  0
   -8.6869    6.3937   28.5345 C   0  0  0  0  0  0  0  0  0  0  0  0
   -9.6463    3.5300   26.1468 C   0  0  0  0  0  0  0  0  0  0  0  0
  -10.2511    4.0997   25.0740 C   0  0  0  0  0  0  0  0  0  0  0  0
  -10.7519    3.4240   23.9638 C   0  0  0  0  0  0  0  0  0  0  0  0
  -10.6188    2.0482   23.9786 C   0  0  0  0  0  0  0  0  0  0  0  0
   -9.4788    2.1715   26.0927 C   0  0  0  0  0  0  0  0  0  0  0  0
   -9.9384    1.4158   25.0496 C   0  0  0  0  0  0  0  0  0  0  0  0
  -11.1558    1.2818   22.8505 C   0  0  0  0  0  0  0  0  0  0  0  0
  -11.3676    1.7546   21.7744 C   0  0  0  0  0  0  0  0  0  0  0  0
  -11.3207    3.2630   21.6470 C   0  0  0  0  0  0  0  0  0  0  0  0
  2  7  1  0
 10 13  1  0
 13 14  2  3
 14 15  1  0
  7  8  2  0
  8  9  1  0
  9 10  2  0
 10 12  1  0
 12 11  2  0
 11  7  1  0
  1  2  2  0
  2  3  1  0
  3  6  2  0
  6  5  1  0
  5  4  2  0
  4  1  1  0
M  END
$$$$
