No_6839-complexes_sdf/6BKW-FPZ/2024-09-17-14-21-01/
     RDKit          3D

 20 21  0  0  0  0  0  0  0  0999 V2000
   -7.9040    3.9820   27.1177 C   0  0  0  0  0  0  0  0  0  0  0  0
   -8.2057    2.8231   26.8733 C   0  0  0  0  0  0  0  0  0  0  0  0
   -8.7695    5.0740   26.7916 C   0  0  0  0  0  0  0  0  0  0  0  0
   -9.9618    4.7598   26.1630 C   0  0  0  0  0  0  0  0  0  0  0  0
   -9.4200    2.4524   26.2850 C   0  0  0  0  0  0  0  0  0  0  0  0
  -10.2590    3.4815   25.9250 C   0  0  0  0  0  0  0  0  0  0  0  0
   -8.3840    6.4693   27.0829 C   0  0  0  0  0  0  0  0  0  0  0  0
   -7.7453    6.8270   28.1334 N   0  0  0  0  0  0  0  0  0  0  0  0
   -8.6560    7.4142   26.2144 N   0  0  0  0  0  0  0  0  0  0  0  0
   -7.1216    1.4964   27.3655 Cl  0  0  0  0  0  0  0  0  0  0  0  0
  -11.5289    3.1904   25.2039 C   0  0  1  0  0  0  0  0  0  0  0  0
  -11.7950    3.8599   24.0188 C   0  0  0  0  0  0  0  0  0  0  0  0
  -10.7691    4.1591   23.1341 C   0  0  0  0  0  0  0  0  0  0  0  0
  -11.0171    4.8417   21.9206 C   0  0  0  0  0  0  0  0  0  0  0  0
  -12.3163    5.0828   21.6192 C   0  0  0  0  0  0  0  0  0  0  0  0
  -13.0852    4.1603   23.5806 C   0  0  0  0  0  0  0  0  0  0  0  0
  -13.3460    4.7909   22.4243 C   0  0  0  0  0  0  0  0  0  0  0  0
  -11.8543    1.7213   25.0882 C   0  0  0  0  0  0  0  0  0  0  0  0
  -11.3474    0.8032   24.4030 C   0  0  0  0  0  0  0  0  0  0  0  0
  -11.7848   -0.4703   24.3561 C   0  0  0  0  0  0  0  0  0  0  0  0
  3  7  1  0
  7  8  1  0
  7  9  2  0
  2 10  1  0
 11  6  1  6
 11 12  1  0
 11 18  1  0
 18 19  2  3
 19 20  1  0
 12 13  2  0
 13 14  1  0
 14 15  2  0
 15 17  1  0
 17 16  2  0
 16 12  1  0
  1  2  2  0
  2  5  1  0
  5  6  2  0
  6  4  1  0
  4  3  2  0
  3  1  1  0
M  END
$$$$
