No_6316-complexes_sdf/6BKW-FPZ/2024-09-17-14-21-01/
     RDKit          3D

 23 26  0  0  0  0  0  0  0  0999 V2000
   -7.9040    3.9820   27.1177 C   0  0  0  0  0  0  0  0  0  0  0  0
   -9.0711    4.3164   27.0630 C   0  0  0  0  0  0  0  0  0  0  0  0
   -9.9692    3.7224   26.1073 C   0  0  0  0  0  0  0  0  0  0  0  0
   -6.9787    4.6761   28.1003 C   0  0  0  0  0  0  0  0  0  0  0  0
  -11.1978    4.2793   25.7845 C   0  0  0  0  0  0  0  0  0  0  0  0
  -11.9722    3.7671   24.7671 C   0  0  0  0  0  0  0  0  0  0  0  0
  -11.4321    2.7931   23.9433 C   0  0  0  0  0  0  0  0  0  0  0  0
  -10.2070    2.2970   24.1835 C   0  0  0  0  0  0  0  0  0  0  0  0
   -9.3944    2.8078   25.1975 C   0  0  0  0  0  0  0  0  0  0  0  0
   -7.5140    5.6743   28.8888 C   0  0  0  0  0  0  0  0  0  0  0  0
   -9.4880    5.3919   27.8970 C   0  0  0  0  0  0  0  0  0  0  0  0
   -8.7303    6.0841   28.7261 C   0  0  0  0  0  0  0  0  0  0  0  0
  -12.2312    2.1974   22.8297 C   0  0  0  0  0  0  0  0  0  0  0  0
  -13.2152    1.9881   22.5644 C   0  0  0  0  0  0  0  0  0  0  0  0
  -13.7521    1.4393   21.3280 C   0  0  0  0  0  0  0  0  0  0  0  0
  -15.0302    1.1316   21.0064 C   0  0  0  0  0  0  0  0  0  0  0  0
  -11.3311    1.6775   21.6846 C   0  0  0  0  0  0  0  0  0  0  0  0
  -11.6823    1.1509   20.5908 C   0  0  0  0  0  0  0  0  0  0  0  0
  -12.8575    0.9895   20.3511 C   0  0  0  0  0  0  0  0  0  0  0  0
  -15.5231    0.7896   19.9996 C   0  0  0  0  0  0  0  0  0  0  0  0
  -14.5965    0.3788   18.9523 C   0  0  0  0  0  0  0  0  0  0  0  0
  -13.3060    0.4764   19.1154 C   0  0  0  0  0  0  0  0  0  0  0  0
   -5.7282    4.1948   28.2101 F   0  0  0  0  0  0  0  0  0  0  0  0
  2  3  1  0
  7 13  1  0
  4 23  1  0
  3  5  2  0
  5  6  1  0
  6  7  2  0
  7  8  1  0
  8  9  2  0
  9  3  1  0
 13 14  2  0
 14 15  1  0
 19 18  1  0
 18 17  2  0
 17 13  1  0
  1  2  2  0
  2 11  1  0
 11 12  2  0
 12 10  1  0
 10  4  2  0
  4  1  1  0
 15 16  2  0
 16 20  1  0
 20 21  2  0
 21 22  1  0
 22 19  2  0
 19 15  1  0
M  END
$$$$
