No_6677-complexes_sdf/6BKW-FPZ/2024-09-17-14-21-01/
     RDKit          3D

 38 42  0  0  0  0  0  0  0  0999 V2000
   -7.9040    3.9820   27.1177 C   0  0  0  0  0  0  0  0  0  0  0  0
   -7.8663    4.8694   27.9238 C   0  0  0  0  0  0  0  0  0  0  0  0
   -9.0491    3.8523   26.2542 C   0  0  0  0  0  0  0  0  0  0  0  0
   -8.7661    5.9491   27.9690 C   0  0  0  0  0  0  0  0  0  0  0  0
   -9.9279    4.8544   26.1938 C   0  0  0  0  0  0  0  0  0  0  0  0
   -9.8044    5.9413   27.0782 C   0  0  0  0  0  0  0  0  0  0  0  0
   -6.9767    2.7896   27.2265 C   0  0  0  0  0  0  0  0  0  0  0  0
   -5.9097    2.8410   27.9878 N   0  0  0  0  0  0  0  0  0  0  0  0
   -7.3745    1.4715   26.8066 C   0  0  0  0  0  0  0  0  0  0  0  0
   -6.4725    0.4973   27.1062 C   0  0  0  0  0  0  0  0  0  0  0  0
   -5.0061    1.8966   28.1641 C   0  0  0  0  0  0  0  0  0  0  0  0
   -5.2925    0.6861   27.7936 C   0  0  0  0  0  0  0  0  0  0  0  0
   -4.3902   -0.4433   28.0886 C   0  0  0  0  0  0  0  0  0  0  0  0
   -4.1102   -0.9174   28.9543 C   0  0  0  0  0  0  0  0  0  0  0  0
   -3.6852   -0.8957   26.8036 C   0  0  0  0  0  0  0  0  0  0  0  0
   -3.2467   -2.0082   29.3113 C   0  0  0  0  0  0  0  0  0  0  0  0
   -2.7702   -1.9069   26.8996 C   0  0  0  0  0  0  0  0  0  0  0  0
   -2.5387   -2.4781   28.1764 C   0  0  0  0  0  0  0  0  0  0  0  0
   -4.7610   -0.3979   30.4169 C   0  0  0  0  0  0  0  0  0  0  0  0
   -4.1839   -0.8638   31.6737 C   0  0  0  0  0  0  0  0  0  0  0  0
   -4.8030   -0.4289   32.8176 C   0  0  0  0  0  0  0  0  0  0  0  0
   -4.3954   -0.9905   34.0185 C   0  0  0  0  0  0  0  0  0  0  0  0
   -3.2566   -1.7221   34.1579 C   0  0  0  0  0  0  0  0  0  0  0  0
   -2.5455   -2.0690   33.0044 C   0  0  0  0  0  0  0  0  0  0  0  0
   -2.9971   -1.6078   31.7532 C   0  0  0  0  0  0  0  0  0  0  0  0
   -2.4863   -2.1472   30.5878 N   0  0  0  0  0  0  0  0  0  0  0  0
   -1.3448   -3.0015   30.6213 C   0  0  0  0  0  0  0  0  0  0  0  0
   -0.5450   -3.5240   30.3158 C   0  0  0  0  0  0  0  0  0  0  0  0
   -0.6295   -4.7933   30.0450 C   0  0  0  0  0  0  0  0  0  0  0  0
    0.7656   -2.7950   30.1523 C   0  0  0  0  0  0  0  0  0  0  0  0
   -1.7062   -5.6041   30.3139 C   0  0  0  0  0  0  0  0  0  0  0  0
   -2.3994   -5.5189   31.4263 C   0  0  0  0  0  0  0  0  0  0  0  0
   -2.2629   -6.4944   32.4189 C   0  0  0  0  0  0  0  0  0  0  0  0
   -3.0291   -6.4157   33.6494 C   0  0  0  0  0  0  0  0  0  0  0  0
   -2.7805   -7.1938   34.7217 C   0  0  0  0  0  0  0  0  0  0  0  0
   -1.8092   -8.2056   34.5675 C   0  0  0  0  0  0  0  0  0  0  0  0
   -1.0839   -8.3178   33.4465 C   0  0  0  0  0  0  0  0  0  0  0  0
   -1.2416   -7.4099   32.3910 C   0  0  0  0  0  0  0  0  0  0  0  0
  1  7  1  0
 12 13  1  0
 14 19  1  0
 16 26  1  0
 25 26  1  0
 26 27  1  0
 27 28  1  0
 28 29  2  3
 28 30  1  0
 29 31  1  0
 31 32  1  0
 32 33  2  3
 33 34  1  0
 34 35  2  3
 35 36  1  0
 36 37  2  3
 37 38  1  0
 19 20  1  0
  7  8  2  0
  8 11  1  0
 11 12  2  0
 12 10  1  0
 10  9  2  0
  9  7  1  0
 13 14  2  0
 14 16  1  0
 16 18  2  0
 18 17  1  0
 17 15  2  0
 15 13  1  0
 20 21  2  0
 21 22  1  0
 22 23  2  0
 23 24  1  0
 24 25  2  0
 25 20  1  0
  1  2  2  0
  2  4  1  0
  4  6  2  0
  6  5  1  0
  5  3  2  0
  3  1  1  0
M  END
$$$$
