No_6244-complexes_sdf/6BKW-FPZ/2024-09-17-14-21-01/
     RDKit          3D

 14 14  0  0  0  0  0  0  0  0999 V2000
   -7.9040    3.9820   27.1177 C   0  0  0  0  0  0  0  0  0  0  0  0
   -7.8663    4.8694   27.9238 C   0  0  0  0  0  0  0  0  0  0  0  0
   -9.0491    3.8523   26.2542 C   0  0  0  0  0  0  0  0  0  0  0  0
   -8.7661    5.9491   27.9690 C   0  0  0  0  0  0  0  0  0  0  0  0
   -9.9279    4.8544   26.1938 C   0  0  0  0  0  0  0  0  0  0  0  0
   -9.8044    5.9413   27.0782 C   0  0  0  0  0  0  0  0  0  0  0  0
   -7.0303    2.9453   27.1625 F   0  0  0  0  0  0  0  0  0  0  0  0
   -9.0934    2.7155   25.2752 C   0  0  2  0  0  0  0  0  0  0  0  0
   -8.3125    1.8791   25.3827 F   0  0  0  0  0  0  0  0  0  0  0  0
  -10.0107    2.8002   24.2183 C   0  0  0  0  0  0  0  0  0  0  0  0
   -9.9452    1.8046   23.2308 C   0  0  0  0  0  0  0  0  0  0  0  0
  -10.4527    1.6936   22.3039 C   0  0  0  0  0  0  0  0  0  0  0  0
  -11.4855    2.6925   21.9335 C   0  0  0  0  0  0  0  0  0  0  0  0
  -11.6637    3.7057   22.8463 C   0  0  0  0  0  0  0  0  0  0  0  0
  1  7  1  0
  3  8  1  0
  8  9  1  6
  8 10  1  0
 10 11  2  3
 11 12  1  0
 12 13  2  3
 13 14  1  0
  1  2  2  0
  2  4  1  0
  4  6  2  0
  6  5  1  0
  5  3  2  0
  3  1  1  0
M  END
$$$$
