No_670-complexes_sdf/6BKW-FPZ/2024-09-17-14-21-01/
     RDKit          3D

 16 16  0  0  0  0  0  0  0  0999 V2000
   -7.9040    3.9820   27.1177 C   0  0  0  0  0  0  0  0  0  0  0  0
   -8.2057    2.8231   26.8733 C   0  0  0  0  0  0  0  0  0  0  0  0
   -9.2962    2.4021   26.1155 C   0  0  0  0  0  0  0  0  0  0  0  0
   -8.8403    4.9695   26.9329 C   0  0  0  0  0  0  0  0  0  0  0  0
   -9.9203    4.6961   26.0942 C   0  0  0  0  0  0  0  0  0  0  0  0
  -10.1704    3.4287   25.7979 C   0  0  0  0  0  0  0  0  0  0  0  0
   -8.7060    6.4171   27.2343 C   0  0  0  0  0  0  0  0  0  0  0  0
   -7.1848    1.6792   27.2542 C   0  0  0  0  0  0  0  0  0  0  0  0
   -7.3627    0.4738   27.0477 O   0  0  0  0  0  0  0  0  0  0  0  0
   -5.9815    2.0591   27.8169 N   0  0  0  0  0  0  0  0  0  0  0  0
   -4.9718    1.1263   28.2434 C   0  0  0  0  0  0  0  0  0  0  0  0
   -4.7406    0.1509   27.5642 C   0  0  0  0  0  0  0  0  0  0  0  0
   -3.3918    0.0310   27.2301 C   0  0  0  0  0  0  0  0  0  0  0  0
   -2.6237    0.6236   27.9456 F   0  0  0  0  0  0  0  0  0  0  0  0
   -2.9696   -0.4766   26.1258 F   0  0  0  0  0  0  0  0  0  0  0  0
   -7.8951    7.3781   26.7970 N   0  0  0  0  0  0  0  0  0  0  0  0
  4  7  1  0
  2  8  1  0
  8  9  2  0
  8 10  1  0
 10 11  1  0
 11 12  1  0
 12 13  1  0
 13 14  1  0
 13 15  1  0
  7 16  1  0
  1  2  2  0
  2  3  1  0
  3  6  2  0
  6  5  1  0
  5  4  2  0
  4  1  1  0
M  END
$$$$
