No_6472-complexes_sdf/6BKW-FPZ/2024-09-17-14-21-01/
     RDKit          3D

 14 14  0  0  0  0  0  0  0  0999 V2000
   -7.7129    4.2099   27.0854 C   0  0  0  0  0  0  0  0  0  0  0  0
   -7.7814    5.1722   27.8972 C   0  0  0  0  0  0  0  0  0  0  0  0
   -8.8998    3.8713   26.3707 C   0  0  0  0  0  0  0  0  0  0  0  0
   -9.9938    4.6774   26.5446 C   0  0  0  0  0  0  0  0  0  0  0  0
   -8.7789    6.1536   27.9256 C   0  0  0  0  0  0  0  0  0  0  0  0
   -9.9428    5.8398   27.2296 C   0  0  0  0  0  0  0  0  0  0  0  0
   -8.9171    2.4497   25.4307 Cl  0  0  0  0  0  0  0  0  0  0  0  0
  -10.9846    4.1629   25.7182 N   0  0  0  0  0  0  0  0  0  0  0  0
  -11.0754    4.3885   24.4290 C   0  0  0  0  0  0  0  0  0  0  0  0
  -12.1990    4.0476   23.6803 C   0  0  0  0  0  0  0  0  0  0  0  0
  -12.4291    3.0039   23.2711 C   0  0  0  0  0  0  0  0  0  0  0  0
  -13.6231    2.7034   22.4250 C   0  0  0  0  0  0  0  0  0  0  0  0
  -14.4308    3.7172   22.0978 C   0  0  0  0  0  0  0  0  0  0  0  0
  -14.1473    5.0386   22.5090 C   0  0  0  0  0  0  0  0  0  0  0  0
  3  7  1  0
  4  8  1  0
  8  9  1  0
  9 10  2  3
 10 11  1  0
 11 12  1  0
 12 13  2  3
 13 14  1  0
  1  2  2  0
  2  5  1  0
  5  6  2  0
  6  4  1  0
  4  3  2  0
  3  1  1  0
M  END
$$$$
