No_6144-complexes_sdf/6BKW-FPZ/2024-09-17-14-21-01/
     RDKit          3D

 15 16  0  0  0  0  0  0  0  0999 V2000
   -7.2496    3.8871   27.4508 C   0  0  0  0  0  0  0  0  0  0  0  0
   -7.6161    2.7143   27.1523 C   0  0  0  0  0  0  0  0  0  0  0  0
   -8.8827    2.2318   27.1220 C   0  0  0  0  0  0  0  0  0  0  0  0
   -8.2837    4.9116   27.6108 C   0  0  0  0  0  0  0  0  0  0  0  0
   -9.6088    4.5175   27.5560 C   0  0  0  0  0  0  0  0  0  0  0  0
   -9.9243    3.2149   27.3938 C   0  0  0  0  0  0  0  0  0  0  0  0
   -7.9091    6.1407   27.9093 F   0  0  0  0  0  0  0  0  0  0  0  0
   -9.2771    0.8551   26.9174 C   0  0  0  0  0  0  0  0  0  0  0  0
   -9.6788    0.4905   25.8385 C   0  0  0  0  0  0  0  0  0  0  0  0
  -10.2458    1.1714   24.9131 C   0  0  0  0  0  0  0  0  0  0  0  0
  -10.5261    0.7210   23.5531 C   0  0  0  0  0  0  0  0  0  0  0  0
  -10.2982   -0.6432   23.3280 C   0  0  0  0  0  0  0  0  0  0  0  0
   -9.4790   -0.9389   25.3454 C   0  0  0  0  0  0  0  0  0  0  0  0
   -9.7905   -1.4369   24.1825 C   0  0  0  0  0  0  0  0  0  0  0  0
   -9.1179    0.1170   28.0110 F   0  0  0  0  0  0  0  0  0  0  0  0
  4  7  1  0
  3  8  1  0
  8  9  1  0
  8 15  1  0
  1  2  2  0
  2  3  1  0
  3  6  2  0
  6  5  1  0
  5  4  2  0
  4  1  1  0
  9 10  2  0
 10 11  1  0
 11 12  2  0
 12 14  1  0
 14 13  2  0
 13  9  1  0
M  END
$$$$
