No_6809-complexes_sdf/6BKW-FPZ/2024-09-17-14-21-01/
     RDKit          3D

 26 29  0  0  0  0  0  0  0  0999 V2000
   -7.2496    3.8871   27.4508 C   0  0  0  0  0  0  0  0  0  0  0  0
   -7.6161    2.7143   27.1523 C   0  0  0  0  0  0  0  0  0  0  0  0
   -8.6212    2.2239   26.4073 C   0  0  0  0  0  0  0  0  0  0  0  0
   -8.2540    4.9237   27.1711 C   0  0  0  0  0  0  0  0  0  0  0  0
   -9.3729    4.5806   26.4433 C   0  0  0  0  0  0  0  0  0  0  0  0
   -8.9159    0.9340   26.0822 C   0  0  0  0  0  0  0  0  0  0  0  0
   -9.6005    3.2666   26.0852 C   0  0  0  0  0  0  0  0  0  0  0  0
   -7.9109    6.3338   27.5235 C   0  0  0  0  0  0  0  0  0  0  0  0
   -9.2857    0.5611   24.9908 C   0  0  0  0  0  0  0  0  0  0  0  0
   -9.5456    1.5950   23.9676 C   0  0  0  0  0  0  0  0  0  0  0  0
  -10.0308    1.2991   22.6711 C   0  0  0  0  0  0  0  0  0  0  0  0
  -10.4239    2.3270   21.8165 C   0  0  0  0  0  0  0  0  0  0  0  0
  -10.4654    3.6551   22.3109 C   0  0  0  0  0  0  0  0  0  0  0  0
  -10.1686    3.9359   23.6219 C   0  0  0  0  0  0  0  0  0  0  0  0
   -9.8016    2.9707   24.4651 C   0  0  0  0  0  0  0  0  0  0  0  0
   -8.8606    7.2776   27.2064 N   0  0  0  0  0  0  0  0  0  0  0  0
   -6.8505    6.5883   28.0804 O   0  0  0  0  0  0  0  0  0  0  0  0
   -6.5776    1.6192   27.7072 C   0  0  2  0  0  0  0  0  0  0  0  0
   -5.2751    1.9718   28.1072 C   0  0  0  0  0  0  0  0  0  0  0  0
   -4.4103    0.9773   28.5281 C   0  0  0  0  0  0  0  0  0  0  0  0
   -4.8610   -0.3355   28.6808 C   0  0  0  0  0  0  0  0  0  0  0  0
   -4.0778   -1.3412   29.2268 C   0  0  0  0  0  0  0  0  0  0  0  0
   -2.7756   -1.0051   29.5270 C   0  0  0  0  0  0  0  0  0  0  0  0
   -2.2912    0.2927   29.2957 C   0  0  0  0  0  0  0  0  0  0  0  0
   -3.0413    1.2374   28.8814 C   0  0  0  0  0  0  0  0  0  0  0  0
   -7.0157    0.4063   27.6367 F   0  0  0  0  0  0  0  0  0  0  0  0
  4  8  1  0
  8 16  1  0
  8 17  2  0
  2 18  1  0
 18 19  1  0
 18 26  1  6
 19 20  1  0
  3  6  2  0
  6  9  1  0
  9 10  2  0
 15  7  2  0
  1  2  2  0
  2  3  1  0
  3  7  1  0
  7  5  1  0
  5  4  2  0
  4  1  1  0
 10 11  1  0
 11 12  2  0
 12 13  1  0
 13 14  2  0
 14 15  1  0
 15 10  1  0
 20 21  2  0
 21 22  1  0
 22 23  2  0
 23 24  1  0
 24 25  2  0
 25 20  1  0
M  END
$$$$
