No_6464-complexes_sdf/6BKW-FPZ/2024-09-17-14-21-01/
     RDKit          3D

 14 14  0  0  0  0  0  0  0  0999 V2000
   -7.2496    3.8871   27.4508 C   0  0  0  0  0  0  0  0  0  0  0  0
   -7.9379    4.9063   27.8518 C   0  0  0  0  0  0  0  0  0  0  0  0
   -9.3460    4.8223   27.8695 C   0  0  0  0  0  0  0  0  0  0  0  0
   -7.8628    2.6163   27.1065 C   0  0  0  0  0  0  0  0  0  0  0  0
   -7.1773    1.4959   26.7593 C   0  0  0  0  0  0  0  0  0  0  0  0
   -9.2868    2.5441   27.1466 C   0  0  0  0  0  0  0  0  0  0  0  0
  -10.0134    3.6672   27.5718 C   0  0  0  0  0  0  0  0  0  0  0  0
   -5.9238    1.6314   27.0741 F   0  0  0  0  0  0  0  0  0  0  0  0
   -7.6285    0.3985   27.5217 F   0  0  0  0  0  0  0  0  0  0  0  0
   -7.3583    1.0812   25.5367 F   0  0  0  0  0  0  0  0  0  0  0  0
  -11.4686    3.5660   27.7436 C   0  0  0  0  0  0  0  0  0  0  0  0
  -11.8801    3.1970   28.9774 C   0  0  0  0  0  0  0  0  0  0  0  0
  -13.2363    3.0763   29.4173 C   0  0  0  0  0  0  0  0  0  0  0  0
  -13.6097    2.6045   30.6504 C   0  0  0  0  0  0  0  0  0  0  0  0
  4  5  1  0
  5  8  1  0
  5  9  1  0
  5 10  1  0
  7 11  1  0
 11 12  2  3
 12 13  1  0
 13 14  2  0
  1  2  2  0
  2  3  1  0
  3  7  2  0
  7  6  1  0
  6  4  2  0
  4  1  1  0
M  END
$$$$
