No_6405-complexes_sdf/6BKW-FPZ/2024-09-17-14-21-01/
     RDKit          3D

 40 44  0  0  0  0  0  0  0  0999 V2000
   -7.9040    3.9820   27.1177 C   0  0  0  0  0  0  0  0  0  0  0  0
   -7.8663    4.8694   27.9238 C   0  0  0  0  0  0  0  0  0  0  0  0
   -9.0501    3.8017   26.2617 C   0  0  0  0  0  0  0  0  0  0  0  0
  -10.0189    4.7608   26.3707 C   0  0  0  0  0  0  0  0  0  0  0  0
   -8.6770    5.9780   27.9222 C   0  0  0  0  0  0  0  0  0  0  0  0
   -9.8040    5.8752   27.0958 C   0  0  0  0  0  0  0  0  0  0  0  0
   -9.1317    2.6414   25.4147 C   0  0  0  0  0  0  0  0  0  0  0  0
  -10.0093    2.7245   24.3328 C   0  0  0  0  0  0  0  0  0  0  0  0
  -10.1132    1.6353   23.4516 C   0  0  0  0  0  0  0  0  0  0  0  0
   -9.2559    0.4822   23.6894 C   0  0  0  0  0  0  0  0  0  0  0  0
   -8.3640    1.4546   25.4895 C   0  0  0  0  0  0  0  0  0  0  0  0
   -9.3366   -0.6255   22.7537 C   0  0  0  0  0  0  0  0  0  0  0  0
   -8.3700    0.4671   24.6697 C   0  0  0  0  0  0  0  0  0  0  0  0
  -10.2841   -1.5198   23.0580 C   0  0  0  0  0  0  0  0  0  0  0  0
  -10.3867   -2.6821   22.1619 C   0  0  0  0  0  0  0  0  0  0  0  0
   -9.5502   -2.7854   21.0377 C   0  0  0  0  0  0  0  0  0  0  0  0
   -8.6153   -1.8036   20.7597 C   0  0  0  0  0  0  0  0  0  0  0  0
   -8.4616   -0.6892   21.6095 C   0  0  0  0  0  0  0  0  0  0  0  0
   -9.6423   -3.9201   20.1102 C   0  0  0  0  0  0  0  0  0  0  0  0
   -9.3707   -4.1615   19.1195 C   0  0  0  0  0  0  0  0  0  0  0  0
   -9.5106   -5.3673   18.3137 C   0  0  0  0  0  0  0  0  0  0  0  0
  -10.1835   -6.3572   18.9878 C   0  0  0  0  0  0  0  0  0  0  0  0
  -10.6121   -6.1951   20.2268 C   0  0  0  0  0  0  0  0  0  0  0  0
  -10.3930   -5.0138   20.9338 C   0  0  0  0  0  0  0  0  0  0  0  0
  -11.3164   -7.3001   20.9255 C   0  0  0  0  0  0  0  0  0  0  0  0
  -11.2194   -7.5584   22.0531 O   0  0  0  0  0  0  0  0  0  0  0  0
  -12.0693   -8.0052   20.1169 O   0  0  0  0  0  0  0  0  0  0  0  0
   -7.6156   -0.5790   24.8870 O   0  0  0  0  0  0  0  0  0  0  0  0
   -6.7383   -0.6329   25.7807 C   0  0  0  0  0  0  0  0  0  0  0  0
  -11.0379    1.7373   22.3525 C   0  0  0  0  0  0  0  0  0  0  0  0
  -12.0481    1.7268   22.3096 C   0  0  0  0  0  0  0  0  0  0  0  0
  -12.8689    2.1175   23.3802 C   0  0  0  0  0  0  0  0  0  0  0  0
  -12.7018    2.8768   24.0895 C   0  0  0  0  0  0  0  0  0  0  0  0
  -13.7250    3.5163   24.9922 C   0  0  0  0  0  0  0  0  0  0  0  0
  -14.6974    2.9692   25.4506 C   0  0  0  0  0  0  0  0  0  0  0  0
  -15.6408    3.5128   26.2577 C   0  0  0  0  0  0  0  0  0  0  0  0
  -15.4106    4.8723   26.7317 C   0  0  0  0  0  0  0  0  0  0  0  0
  -14.2522    5.5560   26.2995 C   0  0  0  0  0  0  0  0  0  0  0  0
  -13.4201    4.9225   25.5139 C   0  0  0  0  0  0  0  0  0  0  0  0
  -14.3818    1.7246   23.0892 C   0  0  0  0  0  0  0  0  0  0  0  0
  3  7  1  0
 10 12  1  0
 16 19  1  0
 23 25  1  0
 25 26  1  0
 25 27  2  0
 13 28  1  0
 28 29  1  0
  9 30  1  0
 30 31  1  0
 31 32  1  0
 32 33  2  3
 33 34  1  0
 32 40  1  0
 12 14  2  0
 14 15  1  0
 15 16  2  0
 16 17  1  0
 17 18  2  0
 18 12  1  0
  7  8  2  0
  8  9  1  0
  9 10  2  0
 10 13  1  0
 13 11  2  0
 11  7  1  0
 19 20  2  0
 20 21  1  0
 21 22  2  0
 22 23  1  0
 23 24  2  0
 24 19  1  0
 34 35  2  0
 35 36  1  0
 36 37  2  0
 37 38  1  0
 38 39  2  0
 39 34  1  0
  1  2  2  0
  2  5  1  0
  5  6  2  0
  6  4  1  0
  4  3  2  0
  3  1  1  0
M  END
$$$$
