No_6667-complexes_sdf/6BKW-FPZ/2024-09-17-14-21-01/
     RDKit          3D

 13 13  0  0  0  0  0  0  0  0999 V2000
   -7.7129    4.2099   27.0854 C   0  0  0  0  0  0  0  0  0  0  0  0
   -7.7814    5.1722   27.8972 C   0  0  0  0  0  0  0  0  0  0  0  0
   -8.8998    3.8713   26.3707 C   0  0  0  0  0  0  0  0  0  0  0  0
   -9.7416    3.2213   26.9591 C   0  0  2  0  0  0  0  0  0  0  0  0
  -10.4037    4.0341   28.0402 C   0  0  0  0  0  0  0  0  0  0  0  0
  -11.1574    4.9045   27.6663 C   0  0  0  0  0  0  0  0  0  0  0  0
   -9.9513    1.7973   26.9298 C   0  0  0  0  0  0  0  0  0  0  0  0
   -8.9206    1.0323   26.9280 C   0  0  0  0  0  0  0  0  0  0  0  0
   -8.7231    0.1112   26.3199 C   0  0  0  0  0  0  0  0  0  0  0  0
   -7.4364   -0.6933   26.2589 C   0  0  0  0  0  0  0  0  0  0  0  0
   -6.8298   -0.7882   27.0876 C   0  0  0  0  0  0  0  0  0  0  0  0
   -6.7642    0.3692   28.0947 C   0  0  0  0  0  0  0  0  0  0  0  0
   -7.7963    1.2282   28.0697 C   0  0  0  0  0  0  0  0  0  0  0  0
  1  2  1  0
  1  3  1  0
  4  3  1  1
  4  5  1  0
  5  6  1  0
  4  7  1  0
  7  8  1  0
  8  9  2  0
  9 10  1  0
 10 11  2  0
 11 12  1  0
 12 13  2  0
 13  8  1  0
M  END
$$$$
