No_6335-complexes_sdf/6BKW-FPZ/2024-09-17-14-21-01/
     RDKit          3D

 40 43  0  0  0  0  0  0  0  0999 V2000
   -7.9040    3.9820   27.1177 C   0  0  0  0  0  0  0  0  0  0  0  0
   -8.2057    2.8231   26.8733 C   0  0  0  0  0  0  0  0  0  0  0  0
   -9.3234    2.2125   27.0599 C   0  0  0  0  0  0  0  0  0  0  0  0
   -9.0146    4.9428   27.2420 C   0  0  0  0  0  0  0  0  0  0  0  0
  -10.2851    4.4096   27.2820 C   0  0  0  0  0  0  0  0  0  0  0  0
  -10.4907    3.0453   27.2378 C   0  0  0  0  0  0  0  0  0  0  0  0
   -8.9541    6.3750   27.4540 C   0  0  0  0  0  0  0  0  0  0  0  0
   -9.1108    7.1822   26.2784 C   0  0  0  0  0  0  0  0  0  0  0  0
   -9.6891    0.7556   27.0069 C   0  0  0  0  0  0  0  0  0  0  0  0
  -10.5390    0.2489   27.6851 N   0  0  0  0  0  0  0  0  0  0  0  0
  -10.6109   -1.0787   27.9973 C   0  0  0  0  0  0  0  0  0  0  0  0
  -11.5789   -1.6197   28.8975 C   0  0  0  0  0  0  0  0  0  0  0  0
   -9.6435   -1.9639   27.4903 C   0  0  0  0  0  0  0  0  0  0  0  0
   -8.6041   -1.4070   26.7086 C   0  0  0  0  0  0  0  0  0  0  0  0
   -8.4871    0.0226   26.6337 C   0  0  0  0  0  0  0  0  0  0  0  0
  -12.5988   -0.7945   29.3024 C   0  0  0  0  0  0  0  0  0  0  0  0
  -13.6024   -1.2519   30.2126 C   0  0  0  0  0  0  0  0  0  0  0  0
  -13.3944   -2.5325   30.7465 C   0  0  0  0  0  0  0  0  0  0  0  0
  -12.3548   -3.2852   30.4108 C   0  0  0  0  0  0  0  0  0  0  0  0
  -11.4131   -2.8329   29.5313 C   0  0  0  0  0  0  0  0  0  0  0  0
   -8.8986    6.4638   25.1733 C   0  0  0  0  0  0  0  0  0  0  0  0
  -10.2637    6.4366   24.3973 C   0  0  0  0  0  0  0  0  0  0  0  0
  -10.3358    5.2874   23.4555 C   0  0  0  0  0  0  0  0  0  0  0  0
  -11.3882    5.1500   22.5863 C   0  0  0  0  0  0  0  0  0  0  0  0
  -11.3698    4.6643   21.5108 C   0  0  0  0  0  0  0  0  0  0  0  0
  -12.4888    4.4458   20.6460 C   0  0  0  0  0  0  0  0  0  0  0  0
  -13.7534    4.6121   21.1956 C   0  0  0  0  0  0  0  0  0  0  0  0
  -13.8526    5.1306   22.4796 C   0  0  0  0  0  0  0  0  0  0  0  0
  -12.7603    5.3342   23.2813 C   0  0  0  0  0  0  0  0  0  0  0  0
   -7.5017   -2.2070   26.2463 C   0  0  0  0  0  0  0  0  0  0  0  0
   -7.6241   -3.3071   26.1798 F   0  0  0  0  0  0  0  0  0  0  0  0
   -6.3600   -1.9167   27.0342 F   0  0  0  0  0  0  0  0  0  0  0  0
   -7.1959   -1.6984   24.9859 F   0  0  0  0  0  0  0  0  0  0  0  0
  -12.1990   -4.6442   31.0403 C   0  0  0  0  0  0  0  0  0  0  0  0
  -11.9052   -4.8160   32.1762 F   0  0  0  0  0  0  0  0  0  0  0  0
  -11.2050   -5.2565   30.3476 F   0  0  0  0  0  0  0  0  0  0  0  0
  -13.3594   -5.3325   30.7084 F   0  0  0  0  0  0  0  0  0  0  0  0
  -15.0912    4.3877   20.1599 Cl  0  0  0  0  0  0  0  0  0  0  0  0
  -14.7076   -0.3728   30.5694 C   0  0  0  0  0  0  0  0  0  0  0  0
  -15.6435   -0.5421   30.9605 O   0  0  0  0  0  0  0  0  0  0  0  0
  4  7  1  0
  7  8  1  0
  3  9  1  0
 11 12  1  0
  8 21  1  0
 21 22  1  0
 22 23  2  3
 23 24  1  0
 14 30  1  0
 30 31  1  0
 30 32  1  0
 30 33  1  0
 19 34  1  0
 34 35  1  0
 34 36  1  0
 34 37  1  0
 27 38  1  0
 17 39  1  0
 39 40  2  0
 12 16  2  0
 16 17  1  0
 17 18  2  0
 18 19  1  0
 19 20  2  0
 20 12  1  0
 24 25  2  0
 25 26  1  0
 26 27  2  0
 27 28  1  0
 28 29  2  0
 29 24  1  0
  1  2  2  0
  2  3  1  0
  3  6  2  0
  6  5  1  0
  5  4  2  0
  4  1  1  0
  9 10  2  0
 10 11  1  0
 11 13  2  0
 13 14  1  0
 14 15  2  0
 15  9  1  0
M  END
$$$$
