No_6764-complexes_sdf/6BKW-FPZ/2024-09-17-14-21-01/
     RDKit          3D

 23 25  0  0  0  0  0  0  0  0999 V2000
   -7.2496    3.8871   27.4508 C   0  0  0  0  0  0  0  0  0  0  0  0
   -7.6161    2.7143   27.1523 C   0  0  0  0  0  0  0  0  0  0  0  0
   -7.1618    1.8631   27.5233 C   0  0  0  0  0  0  0  0  0  0  0  0
   -8.0036    5.1085   27.2100 C   0  0  0  0  0  0  0  0  0  0  0  0
   -9.0765    5.1561   26.4023 C   0  0  0  0  0  0  0  0  0  0  0  0
   -9.5423    3.9740   25.8512 C   0  0  0  0  0  0  0  0  0  0  0  0
   -8.8464    2.7352   26.2620 C   0  0  0  0  0  0  0  0  0  0  0  0
   -5.7682    1.7949   28.0890 C   0  0  0  0  0  0  0  0  0  0  0  0
   -5.1433    0.4865   28.4273 C   0  0  0  0  0  0  0  0  0  0  0  0
   -3.8537    0.4570   28.9912 C   0  0  0  0  0  0  0  0  0  0  0  0
   -5.9408   -0.6499   28.3192 C   0  0  0  0  0  0  0  0  0  0  0  0
   -7.2117   -0.6170   27.8318 C   0  0  0  0  0  0  0  0  0  0  0  0
   -7.7619    0.5279   27.4033 C   0  0  0  0  0  0  0  0  0  0  0  0
   -3.4885   -0.3819   29.8754 C   0  0  0  0  0  0  0  0  0  0  0  0
   -2.1803   -0.3228   30.5052 C   0  0  0  0  0  0  0  0  0  0  0  0
   -7.3836    6.6151   27.9703 Cl  0  0  0  0  0  0  0  0  0  0  0  0
   -2.0409   -1.1169   31.6507 C   0  0  0  0  0  0  0  0  0  0  0  0
   -3.0271   -1.9534   32.1136 C   0  0  0  0  0  0  0  0  0  0  0  0
   -4.2437   -2.0000   31.5317 C   0  0  0  0  0  0  0  0  0  0  0  0
   -4.4881   -1.1860   30.4985 C   0  0  0  0  0  0  0  0  0  0  0  0
  -10.6016    3.9727   24.9304 C   0  0  0  0  0  0  0  0  0  0  0  0
  -11.8628    3.7279   25.3509 C   0  0  0  0  0  0  0  0  0  0  0  0
  -12.9535    3.7716   24.4401 C   0  0  0  0  0  0  0  0  0  0  0  0
  9 10  1  0
  4 16  1  0
  6 21  1  0
 21 22  2  3
 22 23  1  0
 10 14  1  0
  2  3  1  0
 14 15  2  0
 15 17  1  0
 17 18  2  0
 18 19  1  0
 19 20  2  0
 20 14  1  0
  1  2  2  0
  2  7  1  0
  7  6  2  0
  6  5  1  0
  5  4  2  0
  4  1  1  0
  3  8  2  0
  8  9  1  0
  9 11  2  0
 11 12  1  0
 12 13  2  0
 13  3  1  0
M  END
$$$$
