No_6088-complexes_sdf/6BKW-FPZ/2024-09-17-14-21-01/
     RDKit          3D

 25 28  0  0  0  0  0  0  0  0999 V2000
   -7.9040    3.9820   27.1177 C   0  0  0  0  0  0  0  0  0  0  0  0
   -9.0711    4.3164   27.0630 C   0  0  0  0  0  0  0  0  0  0  0  0
   -9.8698    3.9665   25.9494 C   0  0  0  0  0  0  0  0  0  0  0  0
   -7.0332    4.5030   28.2025 C   0  0  0  0  0  0  0  0  0  0  0  0
  -10.9909    4.7237   25.5958 C   0  0  0  0  0  0  0  0  0  0  0  0
   -7.5840    5.4918   28.9036 N   0  0  0  0  0  0  0  0  0  0  0  0
  -11.6517    5.1679   26.7607 C   0  0  0  0  0  0  0  0  0  0  0  0
  -11.0925    5.2111   28.0330 C   0  0  0  0  0  0  0  0  0  0  0  0
   -9.7770    4.8942   28.1775 C   0  0  0  0  0  0  0  0  0  0  0  0
   -8.9684    5.5937   28.9708 C   0  0  0  0  0  0  0  0  0  0  0  0
   -5.7253    4.3020   28.2152 N   0  0  0  0  0  0  0  0  0  0  0  0
   -9.1855    3.2822   24.8059 C   0  0  0  0  0  0  0  0  0  0  0  0
   -9.4447    1.8174   25.0901 C   0  0  0  0  0  0  0  0  0  0  0  0
   -9.1806    1.2975   26.1450 C   0  0  0  0  0  0  0  0  0  0  0  0
   -9.3021   -0.1864   26.3707 C   0  0  0  0  0  0  0  0  0  0  0  0
   -9.1390   -0.7888   27.6075 C   0  0  0  0  0  0  0  0  0  0  0  0
  -10.0323    1.0969   24.0895 C   0  0  0  0  0  0  0  0  0  0  0  0
  -10.1423   -0.2916   24.1564 C   0  0  0  0  0  0  0  0  0  0  0  0
   -9.8699   -0.8756   25.3150 C   0  0  0  0  0  0  0  0  0  0  0  0
   -9.0736   -1.7626   28.0679 C   0  0  0  0  0  0  0  0  0  0  0  0
   -8.9095   -2.8214   27.5107 C   0  0  0  0  0  0  0  0  0  0  0  0
   -8.7807   -4.0360   28.1793 C   0  0  0  0  0  0  0  0  0  0  0  0
   -8.8203   -4.0193   29.5766 C   0  0  0  0  0  0  0  0  0  0  0  0
   -9.0269   -2.8765   30.3162 C   0  0  0  0  0  0  0  0  0  0  0  0
   -9.1468   -1.7553   29.6605 C   0  0  0  0  0  0  0  0  0  0  0  0
  4 11  1  0
  3 12  1  0
 12 13  1  0
 16 20  1  0
 16 15  1  0
 20 21  2  0
 21 22  1  0
 22 23  2  0
 23 24  1  0
 24 25  2  0
 25 20  1  0
  2  3  1  0
  3  5  2  0
  5  7  1  0
  7  8  2  0
  8  9  1  0
 13 14  2  0
 14 15  1  0
 15 19  2  0
 19 18  1  0
 18 17  2  0
 17 13  1  0
  1  2  2  0
  2  9  1  0
  9 10  2  0
 10  6  1  0
  6  4  2  0
  4  1  1  0
M  END
$$$$
