No_6717-complexes_sdf/6BKW-FPZ/2024-09-17-14-21-01/
     RDKit          3D

 18 20  0  0  0  0  0  0  0  0999 V2000
   -7.9040    3.9820   27.1177 C   0  0  0  0  0  0  0  0  0  0  0  0
   -7.8663    4.8694   27.9238 C   0  0  0  0  0  0  0  0  0  0  0  0
   -9.0501    3.8017   26.2617 C   0  0  0  0  0  0  0  0  0  0  0  0
   -9.1826    2.7026   25.3575 C   0  0  0  0  0  0  0  0  0  0  0  0
   -8.6940    6.0131   27.8614 C   0  0  0  0  0  0  0  0  0  0  0  0
   -9.9755    4.8547   26.2361 C   0  0  0  0  0  0  0  0  0  0  0  0
   -9.7463    5.9398   27.0364 C   0  0  0  0  0  0  0  0  0  0  0  0
  -10.0838    2.7760   24.3160 C   0  0  0  0  0  0  0  0  0  0  0  0
  -10.2843    1.6590   23.4970 C   0  0  0  0  0  0  0  0  0  0  0  0
   -9.3974    0.5260   23.6644 C   0  0  0  0  0  0  0  0  0  0  0  0
   -8.4569    1.5409   25.4568 C   0  0  0  0  0  0  0  0  0  0  0  0
   -8.5123    0.5043   24.6631 C   0  0  0  0  0  0  0  0  0  0  0  0
   -7.6662   -0.6781   24.8291 C   0  0  0  0  0  0  0  0  0  0  0  0
   -6.8728   -1.0395   23.8889 C   0  0  0  0  0  0  0  0  0  0  0  0
   -7.6022   -1.3416   26.0847 C   0  0  0  0  0  0  0  0  0  0  0  0
   -7.0534   -2.4394   26.2917 C   0  0  0  0  0  0  0  0  0  0  0  0
   -6.0659   -2.2645   24.0138 C   0  0  0  0  0  0  0  0  0  0  0  0
   -6.1247   -2.9275   25.2280 C   0  0  0  0  0  0  0  0  0  0  0  0
  3  4  1  0
 12 13  1  0
  4  8  2  0
  8  9  1  0
  9 10  2  0
 10 12  1  0
 12 11  2  0
 11  4  1  0
  1  2  2  0
  2  5  1  0
  5  7  2  0
  7  6  1  0
  6  3  2  0
  3  1  1  0
 13 14  2  0
 14 17  1  0
 17 18  2  0
 18 16  1  0
 16 15  2  0
 15 13  1  0
M  END
$$$$
