No_6793-complexes_sdf/6BKW-FPZ/2024-09-17-14-21-01/
     RDKit          3D

 25 27  0  0  0  0  0  0  0  0999 V2000
   -7.9040    3.9820   27.1177 C   0  0  0  0  0  0  0  0  0  0  0  0
   -9.0711    4.3164   27.0630 C   0  0  0  0  0  0  0  0  0  0  0  0
   -9.8698    3.9665   25.9495 C   0  0  0  0  0  0  0  0  0  0  0  0
   -7.0332    4.5030   28.2025 C   0  0  0  0  0  0  0  0  0  0  0  0
  -10.9909    4.7237   25.5958 C   0  0  0  0  0  0  0  0  0  0  0  0
   -7.5840    5.4918   28.9036 N   0  0  0  0  0  0  0  0  0  0  0  0
  -11.7343    4.2277   24.5327 C   0  0  0  0  0  0  0  0  0  0  0  0
  -11.2834    3.2344   23.7040 C   0  0  0  0  0  0  0  0  0  0  0  0
  -10.1300    2.5769   24.0078 C   0  0  0  0  0  0  0  0  0  0  0  0
   -9.3721    3.0138   25.1307 C   0  0  0  0  0  0  0  0  0  0  0  0
   -9.3058    5.4354   27.9804 C   0  0  0  0  0  0  0  0  0  0  0  0
   -8.7433    5.9857   28.7726 C   0  0  0  0  0  0  0  0  0  0  0  0
   -9.6180    1.4612   23.1742 C   0  0  0  0  0  0  0  0  0  0  0  0
  -10.1878    0.4354   23.3299 F   0  0  0  0  0  0  0  0  0  0  0  0
   -8.3008    1.2237   23.4994 F   0  0  0  0  0  0  0  0  0  0  0  0
   -9.5774    1.8794   21.9056 F   0  0  0  0  0  0  0  0  0  0  0  0
   -5.7685    4.1080   28.3298 N   0  0  0  0  0  0  0  0  0  0  0  0
   -5.2853    2.9297   27.8476 C   0  0  0  0  0  0  0  0  0  0  0  0
   -5.9117    2.0797   27.1967 N   0  0  0  0  0  0  0  0  0  0  0  0
   -6.2599    0.8004   27.7263 C   0  0  0  0  0  0  0  0  0  0  0  0
   -7.2417    0.0134   26.9935 C   0  0  0  0  0  0  0  0  0  0  0  0
   -7.9282   -0.9119   27.5698 C   0  0  0  0  0  0  0  0  0  0  0  0
   -7.3827   -1.7033   28.5184 C   0  0  0  0  0  0  0  0  0  0  0  0
   -6.2254   -1.1403   29.1738 C   0  0  0  0  0  0  0  0  0  0  0  0
   -5.7068    0.1100   28.8104 C   0  0  0  0  0  0  0  0  0  0  0  0
  9 13  1  0
 13 14  1  0
 13 15  1  0
 13 16  1  0
  4 17  1  0
 17 18  2  3
 18 19  1  0
 19 20  1  0
  3  2  1  0
  1  2  2  0
  2 11  1  0
 11 12  2  0
 12  6  1  0
  6  4  2  0
  4  1  1  0
  3  5  2  0
  5  7  1  0
  7  8  2  0
  8  9  1  0
  9 10  2  0
 10  3  1  0
 20 21  2  0
 21 22  1  0
 22 23  2  0
 23 24  1  0
 24 25  2  0
 25 20  1  0
M  END
$$$$
