No_6986-complexes_sdf/6BKW-FPZ/2024-09-17-14-21-01/
     RDKit          3D

 19 21  0  0  0  0  0  0  0  0999 V2000
   -7.2496    3.8871   27.4508 C   0  0  0  0  0  0  0  0  0  0  0  0
   -8.5096    4.0291   27.2770 C   0  0  0  0  0  0  0  0  0  0  0  0
   -9.3451    2.8786   26.9046 C   0  0  0  0  0  0  0  0  0  0  0  0
  -10.6709    3.0505   26.6789 C   0  0  0  0  0  0  0  0  0  0  0  0
   -6.5987    2.6095   27.5132 C   0  0  0  0  0  0  0  0  0  0  0  0
   -7.3529    1.5121   27.2159 C   0  0  0  0  0  0  0  0  0  0  0  0
   -8.6970    1.6824   26.9914 C   0  0  0  0  0  0  0  0  0  0  0  0
  -11.2116    3.2691   25.5945 C   0  0  0  0  0  0  0  0  0  0  0  0
  -10.3752    3.9033   24.5569 C   0  0  0  0  0  0  0  0  0  0  0  0
  -10.6973    4.2026   23.5054 C   0  0  0  0  0  0  0  0  0  0  0  0
  -11.9524    4.0598   22.9211 C   0  0  0  0  0  0  0  0  0  0  0  0
  -12.5407    3.1528   25.1321 C   0  0  0  0  0  0  0  0  0  0  0  0
  -13.4904    2.5901   26.0559 C   0  0  0  0  0  0  0  0  0  0  0  0
  -12.9323    3.5377   23.8497 C   0  0  0  0  0  0  0  0  0  0  0  0
   -5.1692    2.4842   27.8044 C   0  0  0  0  0  0  0  0  0  0  0  0
   -4.5532    1.3117   27.8354 O   0  0  0  0  0  0  0  0  0  0  0  0
  -14.5971    3.0313   26.0800 C   0  0  0  0  0  0  0  0  0  0  0  0
  -14.9786    4.2761   25.5714 C   0  0  0  0  0  0  0  0  0  0  0  0
  -14.5205    4.5360   24.1683 C   0  0  0  0  0  0  0  0  0  0  0  0
  1  2  1  0
  2  3  1  0
  3  4  2  3
  1  5  1  0
  5  6  1  0
  3  7  1  0
  6  7  1  0
  4  8  1  0
  5 15  1  0
 15 16  2  0
  8  9  2  0
  9 10  1  0
 10 11  2  0
 11 14  1  0
 12  8  1  0
 12 13  2  0
 13 17  1  0
 17 18  2  0
 18 19  1  0
 19 14  2  0
 14 12  1  0
M  END
$$$$
