No_6064-complexes_sdf/6BKW-FPZ/2024-09-17-14-21-01/
     RDKit          3D

 23 25  0  0  0  0  0  0  0  0999 V2000
   -7.2496    3.8871   27.4508 C   0  0  0  0  0  0  0  0  0  0  0  0
   -7.6161    2.7143   27.1523 C   0  0  0  0  0  0  0  0  0  0  0  0
   -8.6212    2.2239   26.4073 C   0  0  0  0  0  0  0  0  0  0  0  0
   -8.1953    4.9310   27.1292 C   0  0  0  0  0  0  0  0  0  0  0  0
   -9.3500    4.6042   26.4181 C   0  0  0  0  0  0  0  0  0  0  0  0
   -9.5766    3.2803   26.0949 C   0  0  0  0  0  0  0  0  0  0  0  0
   -7.9124    6.3322   27.5125 C   0  0  0  0  0  0  0  0  0  0  0  0
   -8.7967    7.2867   27.1065 N   0  0  0  0  0  0  0  0  0  0  0  0
   -8.8893    0.8856   26.0772 C   0  0  0  0  0  0  0  0  0  0  0  0
   -9.1094   -0.0485   26.9921 C   0  0  0  0  0  0  0  0  0  0  0  0
   -9.2765   -1.3729   26.8376 C   0  0  0  0  0  0  0  0  0  0  0  0
   -8.7706    0.4478   24.7738 C   0  0  0  0  0  0  0  0  0  0  0  0
   -8.9187   -0.8818   24.3885 C   0  0  0  0  0  0  0  0  0  0  0  0
   -9.1986   -1.7725   25.4409 C   0  0  0  0  0  0  0  0  0  0  0  0
   -6.8755    6.5899   28.1413 O   0  0  0  0  0  0  0  0  0  0  0  0
   -9.3891   -3.0813   25.1014 O   0  0  0  0  0  0  0  0  0  0  0  0
   -9.3022   -4.0162   25.9592 C   0  0  0  0  0  0  0  0  0  0  0  0
   -8.1368   -4.2766   26.5235 C   0  0  0  0  0  0  0  0  0  0  0  0
   -8.0238   -5.2308   27.5707 C   0  0  0  0  0  0  0  0  0  0  0  0
   -6.7907   -5.3666   28.2917 C   0  0  0  0  0  0  0  0  0  0  0  0
   -5.6701   -4.6188   27.8876 C   0  0  0  0  0  0  0  0  0  0  0  0
   -5.7699   -3.6648   26.8792 C   0  0  0  0  0  0  0  0  0  0  0  0
   -6.9998   -3.4680   26.2557 C   0  0  0  0  0  0  0  0  0  0  0  0
  4  7  1  0
  7  8  1  0
  3  9  1  0
  7 15  2  0
 14 16  1  0
 16 17  1  0
 17 18  1  0
 18 19  2  0
 19 20  1  0
 20 21  2  0
 21 22  1  0
 22 23  2  0
 23 18  1  0
  9 10  2  0
 10 11  1  0
 11 14  2  0
 14 13  1  0
 13 12  2  0
 12  9  1  0
  1  2  2  0
  2  3  1  0
  3  6  2  0
  6  5  1  0
  5  4  2  0
  4  1  1  0
M  END
$$$$
