No_6338-complexes_sdf/6BKW-FPZ/2024-09-17-14-21-01/
     RDKit          3D

 20 22  0  0  0  0  0  0  0  0999 V2000
   -7.7129    4.2099   27.0854 C   0  0  0  0  0  0  0  0  0  0  0  0
   -8.9133    4.4736   27.0998 C   0  0  0  0  0  0  0  0  0  0  0  0
   -9.4643    5.5426   27.7628 C   0  0  0  0  0  0  0  0  0  0  0  0
   -7.2009    2.9448   26.6134 C   0  0  0  0  0  0  0  0  0  0  0  0
   -8.0533    1.9370   26.8587 C   0  0  2  0  0  0  0  0  0  0  0  0
   -7.5752    0.6215   26.4816 C   0  0  0  0  0  0  0  0  0  0  0  0
   -9.8179    3.6716   26.2723 C   0  0  2  0  0  0  0  0  0  0  0  0
  -11.1238    4.0220   26.0007 C   0  0  0  0  0  0  0  0  0  0  0  0
   -9.3812    2.3110   26.0048 C   0  0  0  0  0  0  0  0  0  0  0  0
   -8.1372   -0.2258   26.1028 C   0  0  0  0  0  0  0  0  0  0  0  0
   -7.6285   -1.6056   25.8814 C   0  0  0  0  0  0  0  0  0  0  0  0
   -6.3094   -1.8226   26.2832 C   0  0  0  0  0  0  0  0  0  0  0  0
   -5.5713   -0.8098   26.8223 C   0  0  0  0  0  0  0  0  0  0  0  0
   -6.1254    0.3794   27.0172 C   0  0  0  0  0  0  0  0  0  0  0  0
   -8.6588    1.7283   28.3345 C   0  0  0  0  0  0  0  0  0  0  0  0
  -11.4974    4.1110   24.6883 C   0  0  0  0  0  0  0  0  0  0  0  0
  -12.7775    4.0199   24.2332 C   0  0  0  0  0  0  0  0  0  0  0  0
  -13.7779    4.2893   25.2360 C   0  0  0  0  0  0  0  0  0  0  0  0
  -13.4181    4.3261   26.6168 C   0  0  0  0  0  0  0  0  0  0  0  0
  -12.0827    4.1230   27.0120 C   0  0  0  0  0  0  0  0  0  0  0  0
  1  2  1  0
  2  3  2  0
  1  4  1  0
  4  5  1  0
  5  6  1  0
  2  7  1  0
  7  8  1  1
  5  9  1  0
  7  9  1  0
  5 15  1  1
  6 10  2  0
 10 11  1  0
 11 12  2  0
 12 13  1  0
 13 14  2  0
 14  6  1  0
  8 16  2  0
 16 17  1  0
 17 18  2  0
 18 19  1  0
 19 20  2  0
 20  8  1  0
M  END
$$$$
