No_6096-complexes_sdf/6BKW-FPZ/2024-09-17-14-21-01/
     RDKit          3D

 24 26  0  0  0  0  0  0  0  0999 V2000
   -7.9040    3.9820   27.1177 C   0  0  0  0  0  0  0  0  0  0  0  0
   -8.2057    2.8231   26.8733 C   0  0  0  0  0  0  0  0  0  0  0  0
   -7.4766    1.7477   27.4593 C   0  0  0  0  0  0  0  0  0  0  0  0
   -8.7468    5.1251   26.6967 C   0  0  0  0  0  0  0  0  0  0  0  0
   -9.7234    4.8589   25.8202 C   0  0  0  0  0  0  0  0  0  0  0  0
   -9.9711    3.5858   25.4266 C   0  0  0  0  0  0  0  0  0  0  0  0
   -9.2266    2.4957   25.9600 C   0  0  0  0  0  0  0  0  0  0  0  0
   -6.8533    0.7359   26.7723 Cl  0  0  0  0  0  0  0  0  0  0  0  0
   -8.6601    6.5436   27.0416 C   0  0  0  0  0  0  0  0  0  0  0  0
   -7.8852    7.5429   27.0029 N   0  0  0  0  0  0  0  0  0  0  0  0
  -10.9937    3.2725   24.4239 C   0  0  1  0  0  0  0  0  0  0  0  0
  -12.2420    2.8152   24.8292 C   0  0  0  0  0  0  0  0  0  0  0  0
  -12.5645    2.4367   25.8554 C   0  0  0  0  0  0  0  0  0  0  0  0
  -13.9469    1.9682   26.2029 C   0  0  0  0  0  0  0  0  0  0  0  0
  -14.8291    1.9684   25.1791 C   0  0  0  0  0  0  0  0  0  0  0  0
  -14.5142    2.4153   23.9532 C   0  0  0  0  0  0  0  0  0  0  0  0
  -13.2401    2.9083   23.6955 C   0  0  0  0  0  0  0  0  0  0  0  0
  -10.8682    4.0560   23.2711 C   0  0  0  0  0  0  0  0  0  0  0  0
  -10.1942    3.6732   22.2354 C   0  0  0  0  0  0  0  0  0  0  0  0
  -10.1765    4.4094   20.9671 C   0  0  0  0  0  0  0  0  0  0  0  0
  -10.1060    2.2020   22.0206 C   0  0  0  0  0  0  0  0  0  0  0  0
   -9.6316    3.8673   19.7969 C   0  0  0  0  0  0  0  0  0  0  0  0
   -9.6024    1.6933   20.7566 C   0  0  0  0  0  0  0  0  0  0  0  0
   -9.3929    2.5213   19.7311 C   0  0  0  0  0  0  0  0  0  0  0  0
  2  3  1  0
  3  8  1  0
  4  9  1  0
  9 10  3  0
  6 11  1  0
 11 12  1  0
 11 18  1  1
 18 19  1  0
 12 13  2  0
 13 14  1  0
 14 15  2  0
 15 16  1  0
 16 17  2  0
 17 12  1  0
 19 20  2  0
 20 22  1  0
 22 24  2  0
 24 23  1  0
 23 21  2  0
 21 19  1  0
  1  2  2  0
  2  7  1  0
  7  6  2  0
  6  5  1  0
  5  4  2  0
  4  1  1  0
M  END
$$$$
