No_6099-complexes_sdf/6BKW-FPZ/2024-09-17-14-21-01/
     RDKit          3D

 12 12  0  0  0  0  0  0  0  0999 V2000
   -7.9040    3.9820   27.1177 C   0  0  0  0  0  0  0  0  0  0  0  0
   -7.8663    4.8694   27.9238 C   0  0  0  0  0  0  0  0  0  0  0  0
   -9.0501    3.8017   26.2617 C   0  0  0  0  0  0  0  0  0  0  0  0
  -10.0189    4.7608   26.3707 C   0  0  0  0  0  0  0  0  0  0  0  0
   -8.6973    5.9722   27.8968 C   0  0  0  0  0  0  0  0  0  0  0  0
   -9.8216    5.8946   27.1241 C   0  0  0  0  0  0  0  0  0  0  0  0
   -9.3656    2.6887   25.4285 C   0  0  0  0  0  0  0  0  0  0  0  0
   -8.3813    1.8987   25.3581 F   0  0  0  0  0  0  0  0  0  0  0  0
  -10.5053    2.0479   25.7954 F   0  0  0  0  0  0  0  0  0  0  0  0
   -9.5324    3.2074   24.1437 F   0  0  0  0  0  0  0  0  0  0  0  0
   -6.7385    5.0758   28.7077 F   0  0  0  0  0  0  0  0  0  0  0  0
   -7.0249    2.9592   27.1181 F   0  0  0  0  0  0  0  0  0  0  0  0
  3  7  1  0
  7  8  1  0
  7  9  1  0
  7 10  1  0
  2 11  1  0
  1 12  1  0
  1  2  2  0
  2  5  1  0
  5  6  2  0
  6  4  1  0
  4  3  2  0
  3  1  1  0
M  END
$$$$
