No_6246-complexes_sdf/6BKW-FPZ/2024-09-17-14-21-01/
     RDKit          3D

 14 15  0  0  0  0  0  0  0  0999 V2000
   -7.9040    3.9820   27.1177 C   0  0  0  0  0  0  0  0  0  0  0  0
   -8.2057    2.8231   26.8733 C   0  0  0  0  0  0  0  0  0  0  0  0
   -8.7695    5.0740   26.7916 C   0  0  0  0  0  0  0  0  0  0  0  0
   -9.9618    4.7598   26.1630 C   0  0  0  0  0  0  0  0  0  0  0  0
   -9.4200    2.4524   26.2849 C   0  0  0  0  0  0  0  0  0  0  0  0
  -10.2590    3.4815   25.9250 C   0  0  0  0  0  0  0  0  0  0  0  0
   -8.3840    6.4693   27.0829 C   0  0  0  0  0  0  0  0  0  0  0  0
   -8.7958    7.4358   26.4217 N   0  0  0  0  0  0  0  0  0  0  0  0
   -7.5536    6.6005   28.1161 O   0  0  0  0  0  0  0  0  0  0  0  0
   -7.2786    1.6632   27.2746 C   0  0  0  0  0  0  0  0  0  0  0  0
   -7.5776    0.3267   27.1222 C   0  0  0  0  0  0  0  0  0  0  0  0
   -8.8405    0.0379   26.8251 C   0  0  0  0  0  0  0  0  0  0  0  0
   -9.7356    1.0211   26.2661 C   0  0  0  0  0  0  0  0  0  0  0  0
   -6.0488    2.0506   27.7776 O   0  0  0  0  0  0  0  0  0  0  0  0
  3  7  1  0
  7  8  2  0
  7  9  1  0
  2 10  1  0
 10 11  1  0
  5 13  1  0
 12 13  1  0
 10 14  2  0
 12 11  1  0
  1  2  2  0
  2  5  1  0
  5  6  2  0
  6  4  1  0
  4  3  2  0
  3  1  1  0
M  END
$$$$
