No_6325-complexes_sdf/6BKW-FPZ/2024-09-17-14-21-01/
     RDKit          3D

 33 38  0  0  0  0  0  0  0  0999 V2000
   -7.9040    3.9820   27.1177 C   0  0  0  0  0  0  0  0  0  0  0  0
   -8.2057    2.8231   26.8733 C   0  0  0  0  0  0  0  0  0  0  0  0
   -8.7695    5.0740   26.7916 C   0  0  0  0  0  0  0  0  0  0  0  0
   -8.4337    6.4678   27.0913 C   0  0  0  0  0  0  0  0  0  0  0  0
   -9.1945    2.4408   26.4350 C   0  0  0  0  0  0  0  0  0  0  0  0
  -10.2047    3.3522   26.0527 C   0  0  0  0  0  0  0  0  0  0  0  0
   -9.9687    4.6754   26.2340 C   0  0  0  0  0  0  0  0  0  0  0  0
   -7.8797    6.8883   28.1453 N   0  0  0  0  0  0  0  0  0  0  0  0
   -8.5709    7.3255   26.1184 O   0  0  0  0  0  0  0  0  0  0  0  0
   -7.1086    1.7493   27.3671 C   0  0  0  0  0  0  0  0  0  0  0  0
   -5.8425    2.1646   27.8362 C   0  0  0  0  0  0  0  0  0  0  0  0
   -4.8674    1.1701   28.2088 C   0  0  0  0  0  0  0  0  0  0  0  0
   -5.1719   -0.1626   28.0935 C   0  0  0  0  0  0  0  0  0  0  0  0
   -7.2985    0.3717   27.2914 C   0  0  0  0  0  0  0  0  0  0  0  0
   -6.4236   -0.5328   27.6993 C   0  0  0  0  0  0  0  0  0  0  0  0
   -4.3140   -1.2598   28.6243 C   0  0  0  0  0  0  0  0  0  0  0  0
   -3.4697   -1.4762   29.1683 F   0  0  0  0  0  0  0  0  0  0  0  0
   -4.9126   -2.6352   28.0703 C   0  0  0  0  0  0  0  0  0  0  0  0
   -6.0747   -2.8185   27.6119 C   0  0  0  0  0  0  0  0  0  0  0  0
   -6.8426   -1.8191   27.4128 C   0  0  0  0  0  0  0  0  0  0  0  0
   -8.1929   -1.9974   26.7794 C   0  0  0  0  0  0  0  0  0  0  0  0
   -8.6722   -3.1536   26.7330 C   0  0  0  0  0  0  0  0  0  0  0  0
   -8.4278   -0.2829   26.8060 N   0  0  0  0  0  0  0  0  0  0  0  0
   -9.7563   -0.1108   26.3538 C   0  0  0  0  0  0  0  0  0  0  0  0
   -8.5000   -1.4356   25.6432 N   0  0  0  0  0  0  0  0  0  0  0  0
  -10.0385    1.1190   26.7631 C   0  0  0  0  0  0  0  0  0  0  0  0
  -10.0048   -0.1779   24.8995 C   0  0  0  0  0  0  0  0  0  0  0  0
   -9.2882   -1.1993   24.4288 C   0  0  0  0  0  0  0  0  0  0  0  0
   -9.8469   -3.3505   27.4454 C   0  0  0  0  0  0  0  0  0  0  0  0
  -10.4389   -4.6220   27.6111 C   0  0  0  0  0  0  0  0  0  0  0  0
   -9.7718   -5.6855   27.0033 C   0  0  0  0  0  0  0  0  0  0  0  0
   -8.6324   -5.5229   26.2915 C   0  0  0  0  0  0  0  0  0  0  0  0
   -8.0740   -4.2647   26.2122 C   0  0  0  0  0  0  0  0  0  0  0  0
  3  4  1  0
  4  8  1  0
  4  9  2  0
  2 10  1  0
 16 17  1  0
 20 21  1  0
 21 22  2  3
 14 23  1  0
 23 24  1  0
 21 25  1  0
 23 25  1  0
  5 26  1  0
 24 26  2  0
 24 27  1  0
 25 28  1  0
 27 28  2  0
 22 29  1  0
 29 30  2  3
 30 31  1  0
 31 32  2  3
 32 33  1  0
 15 20  1  0
 20 19  2  0
 19 18  1  0
 18 16  2  0
 16 13  1  0
 10 11  2  0
 11 12  1  0
 12 13  2  0
 13 15  1  0
 15 14  2  0
 14 10  1  0
  1  2  2  0
  2  5  1  0
  5  6  2  0
  6  7  1  0
  7  3  2  0
  3  1  1  0
M  END
$$$$
