No_6732-complexes_sdf/6BKW-FPZ/2024-09-17-14-21-01/
     RDKit          3D

 22 23  0  0  0  0  0  0  0  0999 V2000
   -7.9040    3.9820   27.1177 C   0  0  0  0  0  0  0  0  0  0  0  0
   -8.2057    2.8231   26.8733 C   0  0  0  0  0  0  0  0  0  0  0  0
   -9.2962    2.4021   26.1155 C   0  0  0  0  0  0  0  0  0  0  0  0
   -8.7358    5.0662   26.5917 C   0  0  0  0  0  0  0  0  0  0  0  0
   -8.4603    6.4492   26.8781 C   0  0  0  0  0  0  0  0  0  0  0  0
  -10.1146    3.3815   25.6105 C   0  0  0  0  0  0  0  0  0  0  0  0
   -9.8194    4.7235   25.8263 C   0  0  0  0  0  0  0  0  0  0  0  0
   -8.0995    6.9133   28.0601 N   0  0  0  0  0  0  0  0  0  0  0  0
   -8.6500    7.3141   25.9303 O   0  0  0  0  0  0  0  0  0  0  0  0
   -7.3097    1.6750   27.4439 C   0  0  0  0  0  0  0  0  0  0  0  0
   -6.5146    0.9684   26.7404 C   0  0  0  0  0  0  0  0  0  0  0  0
   -5.5409    0.1963   27.5101 C   0  0  0  0  0  0  0  0  0  0  0  0
   -5.7273   -1.0225   27.7328 C   0  0  0  0  0  0  0  0  0  0  0  0
   -4.8192   -1.8133   28.6052 C   0  0  0  0  0  0  0  0  0  0  0  0
   -3.6989   -1.1442   29.1634 C   0  0  0  0  0  0  0  0  0  0  0  0
   -3.5370    0.2346   28.8677 C   0  0  0  0  0  0  0  0  0  0  0  0
   -4.4164    0.8757   28.1545 C   0  0  0  0  0  0  0  0  0  0  0  0
   -2.7309   -1.8824   30.0050 C   0  0  0  0  0  0  0  0  0  0  0  0
   -1.8206   -2.3003   29.9842 N   0  0  0  0  0  0  0  0  0  0  0  0
   -3.1218   -1.6369   31.3406 O   0  0  0  0  0  0  0  0  0  0  0  0
   -1.1606   -2.5264   28.6081 C   0  0  0  0  0  0  0  0  0  0  0  0
   -0.9568   -2.9311   31.0341 C   0  0  0  0  0  0  0  0  0  0  0  0
  4  5  1  0
  5  8  1  0
  5  9  2  0
  2 10  1  0
 10 11  1  0
 11 12  1  0
 15 18  1  0
 18 19  1  0
 18 20  2  0
 19 21  1  0
 19 22  1  0
  1  2  2  0
  2  3  1  0
  3  6  2  0
  6  7  1  0
  7  4  2  0
  4  1  1  0
 12 13  2  0
 13 14  1  0
 14 15  2  0
 15 16  1  0
 16 17  2  0
 17 12  1  0
M  END
$$$$
