No_6341-complexes_sdf/6BKW-FPZ/2024-09-17-14-21-01/
     RDKit          3D

 12 13  0  0  0  0  0  0  0  0999 V2000
   -7.9040    3.9820   27.1177 C   0  0  0  0  0  0  0  0  0  0  0  0
   -8.2057    2.8231   26.8733 C   0  0  0  0  0  0  0  0  0  0  0  0
   -7.0130    4.3706   28.1140 C   0  0  0  0  0  0  0  0  0  0  0  0
   -7.3740    1.7588   27.2586 C   0  0  0  0  0  0  0  0  0  0  0  0
   -6.8741    5.7769   28.4526 C   0  0  0  0  0  0  0  0  0  0  0  0
   -7.7113    0.3987   27.0710 C   0  0  0  0  0  0  0  0  0  0  0  0
   -8.7337    5.1374   26.8308 C   0  0  0  0  0  0  0  0  0  0  0  0
   -8.6508    6.4417   27.0819 C   0  0  0  0  0  0  0  0  0  0  0  0
   -7.6302    6.7566   27.9615 C   0  0  0  0  0  0  0  0  0  0  0  0
   -9.1919    2.3892   25.9862 C   0  0  0  0  0  0  0  0  0  0  0  0
   -9.5023    1.1341   25.5728 C   0  0  0  0  0  0  0  0  0  0  0  0
   -8.7083    0.1365   26.1777 C   0  0  0  0  0  0  0  0  0  0  0  0
  1  2  1  0
  1  3  2  0
  3  5  1  0
  5  9  2  0
  9  8  1  0
  8  7  2  0
  7  1  1  0
  2  4  2  0
  4  6  1  0
  6 12  2  0
 12 11  1  0
 11 10  2  0
 10  2  1  0
M  END
$$$$
