No_6581-complexes_sdf/6BKW-FPZ/2024-09-17-14-21-01/
     RDKit          3D

 17 19  0  0  0  0  0  0  0  0999 V2000
   -7.9040    3.9820   27.1177 C   0  0  0  0  0  0  0  0  0  0  0  0
   -7.8663    4.8694   27.9238 C   0  0  0  0  0  0  0  0  0  0  0  0
   -9.0501    3.8017   26.2617 C   0  0  0  0  0  0  0  0  0  0  0  0
  -10.0189    4.7608   26.3707 C   0  0  0  0  0  0  0  0  0  0  0  0
   -8.6770    5.9780   27.9222 C   0  0  0  0  0  0  0  0  0  0  0  0
   -9.8040    5.8752   27.0958 C   0  0  0  0  0  0  0  0  0  0  0  0
   -9.1317    2.6414   25.4147 C   0  0  2  0  0  0  0  0  0  0  0  0
  -10.1023    1.8375   25.7202 C   0  0  0  0  0  0  0  0  0  0  0  0
  -11.0658    1.8418   26.1961 C   0  0  0  0  0  0  0  0  0  0  0  0
  -11.9912    0.6780   26.4536 C   0  0  0  0  0  0  0  0  0  0  0  0
  -11.4974   -0.5123   26.0072 C   0  0  0  0  0  0  0  0  0  0  0  0
   -9.6864    0.4066   25.2877 C   0  0  0  0  0  0  0  0  0  0  0  0
  -10.4073   -0.6416   25.4543 C   0  0  0  0  0  0  0  0  0  0  0  0
   -6.9952    2.9636   27.1498 F   0  0  0  0  0  0  0  0  0  0  0  0
   -8.3041    0.5491   24.5048 C   0  0  0  0  0  0  0  0  0  0  0  0
   -7.8770    1.9707   25.2359 O   0  0  0  0  0  0  0  0  0  0  0  0
   -9.4669    3.3275   23.9697 C   0  0  0  0  0  0  0  0  0  0  0  0
  3  7  1  0
  7  8  1  0
  1 14  1  0
 12 15  1  0
  7 16  1  0
 15 16  1  0
  7 17  1  6
  1  2  2  0
  2  5  1  0
  5  6  2  0
  6  4  1  0
  4  3  2  0
  3  1  1  0
  8  9  2  0
  9 10  1  0
 10 11  2  0
 11 13  1  0
 13 12  2  0
 12  8  1  0
M  END
$$$$
