No_6157-complexes_sdf/6BKW-FPZ/2024-09-17-14-21-01/
     RDKit          3D

 26 28  0  0  0  0  0  0  0  0999 V2000
   -7.9040    3.9820   27.1177 C   0  0  0  0  0  0  0  0  0  0  0  0
   -8.2057    2.8231   26.8733 C   0  0  0  0  0  0  0  0  0  0  0  0
   -8.7695    5.0740   26.7916 C   0  0  0  0  0  0  0  0  0  0  0  0
   -9.9618    4.7598   26.1630 C   0  0  0  0  0  0  0  0  0  0  0  0
   -9.4200    2.4524   26.2850 C   0  0  0  0  0  0  0  0  0  0  0  0
  -10.2590    3.4815   25.9250 C   0  0  0  0  0  0  0  0  0  0  0  0
   -8.3837    6.4702   27.0872 C   0  0  0  0  0  0  0  0  0  0  0  0
   -8.8426    7.3370   26.4794 F   0  0  0  0  0  0  0  0  0  0  0  0
   -8.6028    6.6736   28.4517 F   0  0  0  0  0  0  0  0  0  0  0  0
   -6.9679    6.5739   27.0969 F   0  0  0  0  0  0  0  0  0  0  0  0
   -7.1162    1.5069   27.3863 Cl  0  0  0  0  0  0  0  0  0  0  0  0
  -11.5199    3.2233   25.1977 C   0  0  0  0  0  0  0  0  0  0  0  0
  -12.6218    2.9323   25.8539 C   0  0  0  0  0  0  0  0  0  0  0  0
  -12.5620    2.9191   27.3171 C   0  0  0  0  0  0  0  0  0  0  0  0
  -11.6581    3.1288   28.0220 C   0  0  0  0  0  0  0  0  0  0  0  0
  -11.8958    3.0741   29.6069 C   0  0  0  0  0  0  0  0  0  0  0  0
  -13.1754    2.8801   30.0473 C   0  0  0  0  0  0  0  0  0  0  0  0
  -14.1991    2.6972   29.1959 C   0  0  0  0  0  0  0  0  0  0  0  0
  -14.0168    2.7593   27.8503 C   0  0  0  0  0  0  0  0  0  0  0  0
  -11.4617    3.2657   23.7734 C   0  0  0  0  0  0  0  0  0  0  0  0
  -10.4365    3.4920   23.0791 C   0  0  0  0  0  0  0  0  0  0  0  0
  -10.3100    3.5658   21.6576 C   0  0  0  0  0  0  0  0  0  0  0  0
  -11.4536    3.2497   20.9518 C   0  0  0  0  0  0  0  0  0  0  0  0
  -12.5813    3.0230   23.0583 C   0  0  0  0  0  0  0  0  0  0  0  0
  -12.6244    3.0652   21.6449 C   0  0  0  0  0  0  0  0  0  0  0  0
  -13.3173    2.8832   31.3943 F   0  0  0  0  0  0  0  0  0  0  0  0
  3  7  1  0
  7  8  1  0
  7  9  1  0
  7 10  1  0
  2 11  1  0
  6 12  1  0
 12 13  2  3
 13 14  1  0
 12 20  1  0
 17 26  1  0
 14 15  2  0
 15 16  1  0
 16 17  2  0
 17 18  1  0
 18 19  2  0
 19 14  1  0
 20 21  2  0
 21 22  1  0
 22 23  2  0
 23 25  1  0
 25 24  2  0
 24 20  1  0
  1  2  2  0
  2  5  1  0
  5  6  2  0
  6  4  1  0
  4  3  2  0
  3  1  1  0
M  END
$$$$
