No_6778-complexes_sdf/6BKW-FPZ/2024-09-17-14-21-01/
     RDKit          3D

 32 37  0  0  0  0  0  0  0  0999 V2000
   -7.9040    3.9820   27.1177 C   0  0  0  0  0  0  0  0  0  0  0  0
   -7.8663    4.8694   27.9238 C   0  0  0  0  0  0  0  0  0  0  0  0
   -7.4547    2.7080   27.4594 C   0  0  0  0  0  0  0  0  0  0  0  0
   -7.9337    1.5946   26.8372 C   0  0  0  0  0  0  0  0  0  0  0  0
   -8.9032    1.7881   25.8510 C   0  0  0  0  0  0  0  0  0  0  0  0
   -9.3787    2.9871   25.5530 C   0  0  0  0  0  0  0  0  0  0  0  0
   -8.9781    4.0300   26.2200 C   0  0  0  0  0  0  0  0  0  0  0  0
   -8.2132    6.2312   27.6173 N   0  0  0  0  0  0  0  0  0  0  0  0
   -9.1014    6.5119   26.6241 C   0  0  0  0  0  0  0  0  0  0  0  0
   -9.5143    5.3947   25.8857 C   0  0  0  0  0  0  0  0  0  0  0  0
   -7.3340    0.2629   27.1258 C   0  0  0  0  0  0  0  0  0  0  0  0
   -6.0795    0.1346   27.6427 C   0  0  0  0  0  0  0  0  0  0  0  0
   -5.1842    1.2844   27.8607 C   0  0  0  0  0  0  0  0  0  0  0  0
   -3.9211    1.0294   28.3943 C   0  0  0  0  0  0  0  0  0  0  0  0
   -3.5718   -0.2317   28.8030 C   0  0  0  0  0  0  0  0  0  0  0  0
   -4.3819   -1.3149   28.6474 C   0  0  0  0  0  0  0  0  0  0  0  0
   -5.6367   -1.1123   28.1132 C   0  0  0  0  0  0  0  0  0  0  0  0
   -8.1313   -0.8624   26.8420 C   0  0  0  0  0  0  0  0  0  0  0  0
   -7.9327   -1.8429   26.5727 C   0  0  0  0  0  0  0  0  0  0  0  0
   -6.9905   -2.8220   27.2530 C   0  0  0  0  0  0  0  0  0  0  0  0
   -6.1728   -2.3980   27.8168 C   0  0  0  0  0  0  0  0  0  0  0  0
  -10.3516    3.0766   24.4158 C   0  0  0  0  0  0  0  0  0  0  0  0
  -10.2571    2.3508   23.3448 C   0  0  0  0  0  0  0  0  0  0  0  0
  -10.9299    2.6171   22.1663 C   0  0  0  0  0  0  0  0  0  0  0  0
  -11.7256    3.7665   22.1053 C   0  0  0  0  0  0  0  0  0  0  0  0
  -11.7933    4.6045   23.1809 C   0  0  0  0  0  0  0  0  0  0  0  0
  -11.0675    4.3836   24.3064 C   0  0  0  0  0  0  0  0  0  0  0  0
  -10.6179    5.4516   25.1899 C   0  0  0  0  0  0  0  0  0  0  0  0
   -2.2104   -0.3201   29.4992 C   0  0  0  0  0  0  0  0  0  0  0  0
   -1.5275    0.4952   29.6515 F   0  0  0  0  0  0  0  0  0  0  0  0
   -1.5574   -1.4875   28.9189 F   0  0  0  0  0  0  0  0  0  0  0  0
   -2.5618   -0.7704   30.8197 F   0  0  0  0  0  0  0  0  0  0  0  0
  4 11  1  0
 11 18  1  0
 18 19  2  0
 19 20  1  0
 17 21  1  0
 20 21  2  0
  6 22  1  0
 10 28  1  0
 27 28  1  0
 15 29  1  0
 29 30  1  0
 29 31  1  0
 29 32  1  0
 11 12  1  0
 12 13  2  0
 13 14  1  0
 14 15  2  0
 15 16  1  0
 16 17  2  0
 17 12  1  0
  1  2  2  0
  2  8  1  0
  8  9  2  0
  9 10  1  0
 10  7  2  0
  1  3  1  0
  3  4  2  0
  4  5  1  0
  5  6  2  0
  6  7  1  0
  7  1  1  0
 22 23  2  0
 23 24  1  0
 24 25  2  0
 25 26  1  0
 26 27  2  0
 27 22  1  0
M  END
$$$$
