No_679-complexes_sdf/6BKW-FPZ/2024-09-17-14-21-01/
     RDKit          3D

 36 39  0  0  0  0  0  0  0  0999 V2000
   -7.2496    3.8871   27.4508 C   0  0  0  0  0  0  0  0  0  0  0  0
   -7.9379    4.9063   27.8518 C   0  0  0  0  0  0  0  0  0  0  0  0
   -8.7729    5.5444   27.0168 C   0  0  0  0  0  0  0  0  0  0  0  0
   -7.7708    3.0049   26.4155 C   0  0  0  0  0  0  0  0  0  0  0  0
   -9.3916    4.8208   25.9624 C   0  0  0  0  0  0  0  0  0  0  0  0
   -8.8052    3.5944   25.6431 C   0  0  0  0  0  0  0  0  0  0  0  0
   -9.4401    2.8282   24.5609 C   0  0  2  0  0  0  0  0  0  0  0  0
  -10.6908    3.3434   23.5969 Cl  0  0  0  0  0  0  0  0  0  0  0  0
   -8.9946    1.4788   24.3468 C   0  0  0  0  0  0  0  0  0  0  0  0
   -7.3755    5.7006   28.8540 O   0  0  0  0  0  0  0  0  0  0  0  0
   -9.2017    1.0281   23.0878 N   0  0  0  0  0  0  0  0  0  0  0  0
   -9.7785   -0.1142   22.8240 C   0  0  0  0  0  0  0  0  0  0  0  0
   -9.9469   -0.8858   23.4564 C   0  0  0  0  0  0  0  0  0  0  0  0
   -9.4029   -0.7206   24.8622 C   0  0  0  0  0  0  0  0  0  0  0  0
   -9.5674    0.5672   25.3937 C   0  0  0  0  0  0  0  0  0  0  0  0
   -9.9320   -1.8576   25.8873 C   0  0  0  0  0  0  0  0  0  0  0  0
   -9.9086   -1.4667   27.2223 C   0  0  0  0  0  0  0  0  0  0  0  0
   -9.9429   -2.0088   28.2284 C   0  0  0  0  0  0  0  0  0  0  0  0
  -10.0799   -1.4198   29.5604 C   0  0  0  0  0  0  0  0  0  0  0  0
  -11.1816   -1.3825   29.9319 C   0  0  0  0  0  0  0  0  0  0  0  0
  -12.3189   -1.9286   29.1717 C   0  0  1  0  0  0  0  0  0  0  0  0
  -13.3899   -1.1777   28.9749 C   0  0  0  0  0  0  0  0  0  0  0  0
  -14.4074   -1.5537   28.1902 C   0  0  0  0  0  0  0  0  0  0  0  0
  -14.3050   -2.7033   27.5402 C   0  0  0  0  0  0  0  0  0  0  0  0
  -13.2132   -3.5256   27.6763 C   0  0  1  0  0  0  0  0  0  0  0  0
  -12.1741   -3.0922   28.4739 C   0  0  2  0  0  0  0  0  0  0  0  0
  -10.2519   -3.4048   28.2013 C   0  0  0  0  0  0  0  0  0  0  0  0
  -12.2222   -4.1363   29.8363 C   0  0  0  0  0  0  0  0  0  0  0  0
  -10.0828   -4.0871   27.0286 C   0  0  0  0  0  0  0  0  0  0  0  0
   -9.8890   -3.2588   25.7197 C   0  0  0  0  0  0  0  0  0  0  0  0
   -9.6269   -4.1788   29.3248 C   0  0  0  0  0  0  0  0  0  0  0  0
  -11.6391   -2.4664   27.4649 O   0  0  0  0  0  0  0  0  0  0  0  0
  -12.3071   -2.2619   26.5363 C   0  0  0  0  0  0  0  0  0  0  0  0
  -13.2055   -4.9057   27.4008 C   0  0  0  0  0  0  0  0  0  0  0  0
  -12.9631   -1.1241   26.2811 C   0  0  0  0  0  0  0  0  0  0  0  0
  -12.2843   -3.2365   25.4011 C   0  0  0  0  0  0  0  0  0  0  0  0
  6  7  1  0
  7  8  1  1
  7  9  1  0
  2 10  1  0
 14 16  1  0
 18 19  1  0
 19 20  2  3
 20 21  1  0
 21 22  1  6
 22 23  1  0
 24 25  1  0
 21 26  1  0
 25 26  1  0
 26 28  1  1
 27 31  1  0
 26 32  1  0
 32 33  1  0
 25 34  1  1
 33 35  1  0
 33 36  1  0
 23 24  1  0
  1  2  2  0
  2  3  1  0
  3  5  2  0
  5  6  1  0
  6  4  2  0
  4  1  1  0
 16 17  2  0
 17 18  1  0
 18 27  2  0
 27 29  1  0
 29 30  2  0
 30 16  1  0
  9 11  2  0
 11 12  1  0
 12 13  2  0
 13 14  1  0
 14 15  2  0
 15  9  1  0
M  END
$$$$
