No_6332-complexes_sdf/6BKW-FPZ/2024-09-17-14-21-01/
     RDKit          3D

 13 14  0  0  0  0  0  0  0  0999 V2000
   -7.2496    3.8871   27.4508 C   0  0  0  0  0  0  0  0  0  0  0  0
   -7.6161    2.7143   27.1523 C   0  0  0  0  0  0  0  0  0  0  0  0
   -8.6212    2.2239   26.4074 C   0  0  0  0  0  0  0  0  0  0  0  0
   -8.2540    4.9237   27.1711 C   0  0  0  0  0  0  0  0  0  0  0  0
   -9.3729    4.5806   26.4433 C   0  0  0  0  0  0  0  0  0  0  0  0
   -9.5830    3.2969   26.1026 C   0  0  0  0  0  0  0  0  0  0  0  0
   -7.8800    6.5508   27.6141 Cl  0  0  0  0  0  0  0  0  0  0  0  0
   -8.8735    0.8883   26.0699 C   0  0  0  0  0  0  0  0  0  0  0  0
   -9.0325    0.5386   24.8911 C   0  0  0  0  0  0  0  0  0  0  0  0
   -9.2161   -0.8309   24.4325 C   0  0  0  0  0  0  0  0  0  0  0  0
   -9.1669   -1.7983   25.3999 C   0  0  0  0  0  0  0  0  0  0  0  0
   -8.7425   -0.1921   27.0345 C   0  0  0  0  0  0  0  0  0  0  0  0
   -8.9140   -1.4352   26.7697 C   0  0  0  0  0  0  0  0  0  0  0  0
  4  7  1  0
  3  8  1  0
  1  2  2  0
  2  3  1  0
  3  6  2  0
  6  5  1  0
  5  4  2  0
  4  1  1  0
  8  9  2  0
  9 10  1  0
 10 11  2  0
 11 13  1  0
 13 12  2  0
 12  8  1  0
M  END
$$$$
