No_6270-complexes_sdf/6BKW-FPZ/2024-09-17-14-21-01/
     RDKit          3D

 16 17  0  0  0  0  0  0  0  0999 V2000
   -7.7129    4.2099   27.0854 C   0  0  0  0  0  0  0  0  0  0  0  0
   -8.2112    3.0637   26.9225 C   0  0  0  0  0  0  0  0  0  0  0  0
   -8.5108    5.3904   26.9436 C   0  0  0  0  0  0  0  0  0  0  0  0
   -9.7256    5.1955   26.3518 C   0  0  0  0  0  0  0  0  0  0  0  0
   -9.4995    2.8258   26.4878 C   0  0  0  0  0  0  0  0  0  0  0  0
  -10.2542    3.9691   26.2055 C   0  0  0  0  0  0  0  0  0  0  0  0
   -7.9135    6.7086   27.1885 C   0  0  0  0  0  0  0  0  0  0  0  0
   -7.1774    1.9276   27.3070 C   0  0  0  0  0  0  0  0  0  0  0  0
   -6.0403    2.2368   27.7297 N   0  0  0  0  0  0  0  0  0  0  0  0
   -5.2079    1.1078   28.0728 C   0  0  0  0  0  0  0  0  0  0  0  0
   -5.6942   -0.1169   28.0247 C   0  0  0  0  0  0  0  0  0  0  0  0
   -7.6633    0.5324   27.2409 C   0  0  0  0  0  0  0  0  0  0  0  0
   -6.9209   -0.4093   27.6845 C   0  0  0  0  0  0  0  0  0  0  0  0
   -3.9173    1.4938   28.5070 N   0  0  0  0  0  0  0  0  0  0  0  0
   -6.9059    6.8808   27.8653 N   0  0  0  0  0  0  0  0  0  0  0  0
   -8.3365    7.8489   26.5099 N   0  0  0  0  0  0  0  0  0  0  0  0
  3  7  1  0
  2  8  1  0
 10 14  1  0
  7 15  2  0
  7 16  1  0
  1  2  2  0
  2  5  1  0
  5  6  2  0
  6  4  1  0
  4  3  2  0
  3  1  1  0
  8  9  2  0
  9 10  1  0
 10 11  2  0
 11 13  1  0
 13 12  2  0
 12  8  1  0
M  END
$$$$
