No_6649-complexes_sdf/6BKW-FPZ/2024-09-17-14-21-01/
     RDKit          3D

 26 27  0  0  0  0  0  0  0  0999 V2000
   -7.7129    4.2099   27.0854 C   0  0  0  0  0  0  0  0  0  0  0  0
   -8.2112    3.0637   26.9225 C   0  0  0  0  0  0  0  0  0  0  0  0
   -9.4446    2.8304   26.1868 C   0  0  0  0  0  0  0  0  0  0  0  0
   -8.4697    5.3956   26.7238 C   0  0  0  0  0  0  0  0  0  0  0  0
   -9.6172    5.2111   25.9513 C   0  0  0  0  0  0  0  0  0  0  0  0
  -10.0424    3.9782   25.6873 C   0  0  0  0  0  0  0  0  0  0  0  0
   -7.9172    6.7181   27.0124 C   0  0  0  0  0  0  0  0  0  0  0  0
   -8.4157    7.7972   26.4523 N   0  0  0  0  0  0  0  0  0  0  0  0
   -7.0176    6.7381   27.9413 O   0  0  0  0  0  0  0  0  0  0  0  0
   -7.5047    1.8012   27.3770 C   0  0  0  0  0  0  0  0  0  0  0  0
   -6.1494    1.8792   27.7428 C   0  0  0  0  0  0  0  0  0  0  0  0
   -5.4274    0.7355   28.2049 C   0  0  0  0  0  0  0  0  0  0  0  0
   -6.0816   -0.4932   28.1490 C   0  0  0  0  0  0  0  0  0  0  0  0
   -8.0298    0.5252   27.3527 C   0  0  0  0  0  0  0  0  0  0  0  0
   -7.3752   -0.5592   27.8032 C   0  0  0  0  0  0  0  0  0  0  0  0
   -4.0129    0.9113   28.6221 C   0  0  0  0  0  0  0  0  0  0  0  0
   -3.1773   -0.0091   28.3711 N   0  0  0  0  0  0  0  0  0  0  0  0
   -2.3869   -0.1497   27.4166 C   0  0  0  0  0  0  0  0  0  0  0  0
   -2.6766   -0.7103   26.3817 C   0  0  0  0  0  0  0  0  0  0  0  0
   -2.9912   -0.9987   29.4329 C   0  0  0  0  0  0  0  0  0  0  0  0
   -3.6057   -0.9180   30.4792 C   0  0  0  0  0  0  0  0  0  0  0  0
   -3.6213   -1.0965   31.4796 C   0  0  0  0  0  0  0  0  0  0  0  0
   -4.6397   -0.7729   32.5201 C   0  0  0  0  0  0  0  0  0  0  0  0
   -4.6380   -0.9022   33.8641 C   0  0  0  0  0  0  0  0  0  0  0  0
   -3.8640   -1.4933   34.4294 C   0  0  0  0  0  0  0  0  0  0  0  0
   -2.6150   -1.8708   33.8039 C   0  0  0  0  0  0  0  0  0  0  0  0
  4  7  1  0
  7  8  1  0
  7  9  2  0
  2 10  1  0
 12 16  1  0
 16 17  1  0
 17 18  1  0
 18 19  1  0
 17 20  1  0
 20 21  1  0
 21 22  3  0
 22 23  1  0
 23 24  2  3
 24 25  1  0
 25 26  2  0
  1  2  2  0
  2  3  1  0
  3  6  2  0
  6  5  1  0
  5  4  2  0
  4  1  1  0
 10 11  2  0
 11 12  1  0
 12 13  2  0
 13 15  1  0
 15 14  2  0
 14 10  1  0
M  END
$$$$
