No_6946-complexes_sdf/6BKW-FPZ/2024-09-17-14-21-01/
     RDKit          3D

 34 37  0  0  0  0  0  0  0  0999 V2000
   -7.7129    4.2099   27.0854 C   0  0  0  0  0  0  0  0  0  0  0  0
   -8.9133    4.4736   27.0998 C   0  0  0  0  0  0  0  0  0  0  0  0
   -9.4643    5.5426   27.7628 C   0  0  0  0  0  0  0  0  0  0  0  0
   -7.2009    2.9448   26.6134 C   0  0  0  0  0  0  0  0  0  0  0  0
   -8.1365    1.9533   26.2981 C   0  0  0  0  0  0  0  0  0  0  0  0
   -7.6295    0.6861   25.9574 C   0  0  0  0  0  0  0  0  0  0  0  0
   -9.7499    3.3946   26.7517 C   0  0  2  0  0  0  0  0  0  0  0  0
   -9.3701    2.2245   26.3076 C   0  0  0  0  0  0  0  0  0  0  0  0
   -7.6790    0.2406   24.8504 O   0  0  0  0  0  0  0  0  0  0  0  0
   -7.3302   -0.2055   27.0022 O   0  0  0  0  0  0  0  0  0  0  0  0
   -6.8056   -1.3795   26.9070 C   0  0  0  0  0  0  0  0  0  0  0  0
   -7.5849   -2.4662   27.0204 C   0  0  0  0  0  0  0  0  0  0  0  0
   -7.2220   -3.3926   26.6264 F   0  0  0  0  0  0  0  0  0  0  0  0
   -7.8246   -2.6077   28.4255 F   0  0  0  0  0  0  0  0  0  0  0  0
   -8.8334   -2.1939   26.5289 F   0  0  0  0  0  0  0  0  0  0  0  0
   -5.8084   -1.2473   27.9662 F   0  0  0  0  0  0  0  0  0  0  0  0
   -5.9557   -1.4402   25.8866 F   0  0  0  0  0  0  0  0  0  0  0  0
  -11.2843    3.6744   26.8007 C   0  0  0  0  0  0  0  0  0  0  0  0
  -11.9778    3.6425   25.7523 C   0  0  0  0  0  0  0  0  0  0  0  0
  -11.8638    4.0110   28.1124 C   0  0  0  0  0  0  0  0  0  0  0  0
  -11.4406    3.8668   24.5356 C   0  0  0  0  0  0  0  0  0  0  0  0
  -11.9342    3.8901   23.3403 C   0  0  0  0  0  0  0  0  0  0  0  0
  -13.3466    3.7276   23.2763 C   0  0  0  0  0  0  0  0  0  0  0  0
  -13.3749    3.5303   25.7439 C   0  0  0  0  0  0  0  0  0  0  0  0
  -14.0561    3.3371   26.9622 C   0  0  0  0  0  0  0  0  0  0  0  0
  -14.0969    3.5826   24.5050 C   0  0  0  0  0  0  0  0  0  0  0  0
  -13.2802    3.7254   28.2088 C   0  0  0  0  0  0  0  0  0  0  0  0
  -13.9925    3.7622   29.4707 C   0  0  0  0  0  0  0  0  0  0  0  0
  -14.5348    2.7749   29.9985 C   0  0  0  0  0  0  0  0  0  0  0  0
  -15.0942    2.7708   31.3246 C   0  0  0  0  0  0  0  0  0  0  0  0
  -14.9752    3.9382   32.1158 C   0  0  0  0  0  0  0  0  0  0  0  0
  -14.3684    5.0612   31.5005 C   0  0  0  0  0  0  0  0  0  0  0  0
  -13.8680    4.9860   30.2683 C   0  0  0  0  0  0  0  0  0  0  0  0
  -15.2898    3.0947   27.0587 O   0  0  0  0  0  0  0  0  0  0  0  0
  1  2  1  0
  2  3  2  0
  1  4  1  0
  4  5  1  0
  5  6  1  0
  2  7  1  0
  5  8  1  0
  7  8  1  0
  6  9  2  0
  6 10  1  0
 10 11  1  0
 11 12  1  0
 12 13  1  0
 12 14  1  0
 12 15  1  0
 11 16  1  0
 11 17  1  0
  7 18  1  6
 18 19  1  0
 18 20  1  0
 24 25  1  0
 20 27  1  0
 25 27  1  0
 27 28  1  0
 25 34  2  0
 28 29  2  0
 29 30  1  0
 30 31  2  0
 31 32  1  0
 32 33  2  0
 33 28  1  0
 19 21  2  0
 21 22  1  0
 22 23  2  0
 23 26  1  0
 26 24  2  0
 24 19  1  0
M  END
$$$$
