No_6189-complexes_sdf/6BKW-FPZ/2024-09-17-14-21-01/
     RDKit          3D

 13 14  0  0  0  0  0  0  0  0999 V2000
   -7.2496    3.8871   27.4508 C   0  0  0  0  0  0  0  0  0  0  0  0
   -7.9379    4.9063   27.8518 C   0  0  0  0  0  0  0  0  0  0  0  0
   -9.3460    4.8223   27.8695 C   0  0  0  0  0  0  0  0  0  0  0  0
   -7.8628    2.6163   27.1065 C   0  0  0  0  0  0  0  0  0  0  0  0
   -9.2787    2.5744   27.1970 C   0  0  0  0  0  0  0  0  0  0  0  0
  -10.0108    3.6770   27.6340 C   0  0  0  0  0  0  0  0  0  0  0  0
  -11.4855    3.5731   27.7420 C   0  0  0  0  0  0  0  0  0  0  0  0
  -12.0293    2.8456   27.0189 C   0  0  0  0  0  0  0  0  0  0  0  0
  -13.5102    2.7812   27.1373 C   0  0  0  0  0  0  0  0  0  0  0  0
  -14.2437    1.8253   26.3806 C   0  0  0  0  0  0  0  0  0  0  0  0
  -14.1510    3.7475   28.0451 C   0  0  0  0  0  0  0  0  0  0  0  0
  -13.4133    4.6723   28.7480 C   0  0  0  0  0  0  0  0  0  0  0  0
  -12.0381    4.6363   28.6461 C   0  0  0  0  0  0  0  0  0  0  0  0
  6  7  1  0
 10  9  1  0
  7  8  2  0
  8  9  1  0
  9 11  2  0
 11 12  1  0
 12 13  2  0
 13  7  1  0
  1  2  2  0
  2  3  1  0
  3  6  2  0
  6  5  1  0
  5  4  2  0
  4  1  1  0
M  END
$$$$
