No_6219-complexes_sdf/6BKW-FPZ/2024-09-17-14-21-01/
     RDKit          3D

 23 25  0  0  0  0  0  0  0  0999 V2000
   -7.9040    3.9820   27.1177 C   0  0  0  0  0  0  0  0  0  0  0  0
   -7.8663    4.8694   27.9238 C   0  0  0  0  0  0  0  0  0  0  0  0
   -9.0806    3.1428   27.1220 C   0  0  0  0  0  0  0  0  0  0  0  0
  -10.0909    3.4892   26.5180 C   0  0  0  0  0  0  0  0  0  0  0  0
   -9.0818    5.8025   27.6063 C   0  0  0  0  0  0  0  0  0  0  0  0
   -9.9922    5.1589   26.8194 C   0  0  0  0  0  0  0  0  0  0  0  0
   -8.6737    1.6121   26.7184 C   0  0  0  0  0  0  0  0  0  0  0  0
   -8.2093    1.2113   25.8818 C   0  0  0  0  0  0  0  0  0  0  0  0
   -7.9049   -0.1778   25.6267 C   0  0  0  0  0  0  0  0  0  0  0  0
   -8.0251   -1.0368   26.6853 C   0  0  0  0  0  0  0  0  0  0  0  0
   -8.5791   -0.5879   27.8594 C   0  0  0  0  0  0  0  0  0  0  0  0
   -8.9292    0.7101   27.9747 C   0  0  0  0  0  0  0  0  0  0  0  0
   -6.6765    5.8685   27.8446 C   0  0  0  0  0  0  0  0  0  0  0  0
  -10.9859    3.0347   25.6616 C   0  0  0  0  0  0  0  0  0  0  0  0
  -12.2021    2.6684   26.0722 C   0  0  0  0  0  0  0  0  0  0  0  0
  -10.6563    2.8934   24.2665 C   0  0  0  0  0  0  0  0  0  0  0  0
  -11.4001    3.4062   23.4143 C   0  0  0  0  0  0  0  0  0  0  0  0
  -13.2624    2.8444   25.0578 C   0  0  0  0  0  0  0  0  0  0  0  0
  -12.8918    3.1406   23.7108 C   0  0  0  0  0  0  0  0  0  0  0  0
  -11.1126    3.6387   21.9608 C   0  0  0  0  0  0  0  0  0  0  0  0
  -11.4910    4.7028   21.6675 F   0  0  0  0  0  0  0  0  0  0  0  0
  -11.6249    2.7276   21.1450 F   0  0  0  0  0  0  0  0  0  0  0  0
   -9.7231    3.6325   21.7849 F   0  0  0  0  0  0  0  0  0  0  0  0
  3  7  1  0
  2 13  1  0
  4 14  1  0
 17 20  1  0
 20 21  1  0
 20 22  1  0
 20 23  1  0
 14 15  2  0
 15 18  1  0
 18 19  2  0
 19 17  1  0
 17 16  2  0
 16 14  1  0
  1  2  2  0
  2  5  1  0
  5  6  2  0
  6  4  1  0
  4  3  2  0
  3  1  1  0
  7  8  2  0
  8  9  1  0
  9 10  2  0
 10 11  1  0
 11 12  2  0
 12  7  1  0
M  END
$$$$
