No_6021-complexes_sdf/6BKW-FPZ/2024-09-17-14-21-01/
     RDKit          3D

 12 13  0  0  0  0  0  0  0  0999 V2000
   -7.2496    3.8871   27.4508 C   0  0  0  0  0  0  0  0  0  0  0  0
   -8.5096    4.0291   27.2770 C   0  0  0  0  0  0  0  0  0  0  0  0
   -9.2669    5.1645   27.5845 C   0  0  0  0  0  0  0  0  0  0  0  0
   -8.4566    6.3212   27.8001 C   0  0  0  0  0  0  0  0  0  0  0  0
   -6.4744    5.0029   27.8552 C   0  0  0  0  0  0  0  0  0  0  0  0
   -7.1338    6.2312   27.9553 C   0  0  0  0  0  0  0  0  0  0  0  0
   -9.5001    2.9153   27.0183 C   0  0  0  0  0  0  0  0  0  0  0  0
   -9.8018    2.6315   26.0968 C   0  0  0  0  0  0  0  0  0  0  0  0
  -10.4985    1.4669   25.6576 C   0  0  0  0  0  0  0  0  0  0  0  0
  -10.8390    0.5873   26.6984 C   0  0  0  0  0  0  0  0  0  0  0  0
  -10.4385    0.8883   28.0143 C   0  0  0  0  0  0  0  0  0  0  0  0
   -9.6903    2.0264   28.2332 C   0  0  0  0  0  0  0  0  0  0  0  0
  2  7  1  0
  1  2  2  0
  2  3  1  0
  3  4  2  0
  4  6  1  0
  6  5  2  0
  5  1  1  0
  7  8  2  0
  8  9  1  0
  9 10  2  0
 10 11  1  0
 11 12  2  0
 12  7  1  0
M  END
$$$$
