No_6709-complexes_sdf/6BKW-FPZ/2024-09-17-14-21-01/
     RDKit          3D

 28 30  0  0  0  0  0  0  0  0999 V2000
   -7.9040    3.9820   27.1177 C   0  0  0  0  0  0  0  0  0  0  0  0
   -7.8663    4.8694   27.9238 C   0  0  0  0  0  0  0  0  0  0  0  0
   -9.0501    3.8017   26.2617 C   0  0  0  0  0  0  0  0  0  0  0  0
  -10.0189    4.7608   26.3707 C   0  0  0  0  0  0  0  0  0  0  0  0
   -8.6973    5.9722   27.8968 C   0  0  0  0  0  0  0  0  0  0  0  0
   -9.8216    5.8946   27.1241 C   0  0  0  0  0  0  0  0  0  0  0  0
   -9.1720    2.3872   25.2694 P   0  0  1  0  0  0  0  0  0  0  0  0
  -10.3718    1.6024   25.9065 O   0  0  0  0  0  0  0  0  0  0  0  0
   -9.7233    2.8364   23.9416 O   0  0  0  0  0  0  0  0  0  0  0  0
   -8.0392    1.6206   25.2305 O   0  0  0  0  0  0  0  0  0  0  0  0
  -10.3679    3.9803   23.6960 C   0  0  0  0  0  0  0  0  0  0  0  0
  -10.8886    0.8036   26.2445 C   0  0  1  0  0  0  0  0  0  0  0  0
  -11.9062    1.1397   27.3168 C   0  0  0  0  0  0  0  0  0  0  0  0
  -13.0685    1.4553   26.9687 C   0  0  0  0  0  0  0  0  0  0  0  0
  -13.8936    2.0198   27.9468 C   0  0  0  0  0  0  0  0  0  0  0  0
  -15.1060    2.6961   27.7197 C   0  0  0  0  0  0  0  0  0  0  0  0
  -15.2223    3.4053   27.0063 C   0  0  0  0  0  0  0  0  0  0  0  0
  -14.3820    3.2178   25.6864 C   0  0  0  0  0  0  0  0  0  0  0  0
  -13.2517    2.4381   25.8828 C   0  0  0  0  0  0  0  0  0  0  0  0
  -14.5925    4.0618   24.5267 C   0  0  0  0  0  0  0  0  0  0  0  0
  -15.2498    5.1089   24.4081 C   0  0  0  0  0  0  0  0  0  0  0  0
  -13.4082    4.1814   23.7490 C   0  0  0  0  0  0  0  0  0  0  0  0
  -13.3652    4.9350   22.5825 C   0  0  0  0  0  0  0  0  0  0  0  0
  -15.3934    5.9991   23.3374 C   0  0  0  0  0  0  0  0  0  0  0  0
  -14.3300    5.9426   22.4772 C   0  0  0  0  0  0  0  0  0  0  0  0
  -10.8061   -0.4719   25.7317 C   0  0  0  0  0  0  0  0  0  0  0  0
  -10.6003   -1.5355   26.2208 C   0  0  0  0  0  0  0  0  0  0  0  0
  -10.4163   -2.7025   25.5611 C   0  0  0  0  0  0  0  0  0  0  0  0
  3  7  1  0
  7  8  1  1
  7  9  1  0
  7 10  2  0
  9 11  1  0
  8 12  1  0
 12 13  1  6
 13 14  1  0
 18 20  1  0
 12 26  1  0
 26 27  1  0
 27 28  2  0
 14 15  2  0
 15 16  1  0
 16 17  2  0
 17 18  1  0
 18 19  2  0
 19 14  1  0
  1  2  2  0
  2  5  1  0
  5  6  2  0
  6  4  1  0
  4  3  2  0
  3  1  1  0
 20 21  2  0
 21 24  1  0
 24 25  2  0
 25 23  1  0
 23 22  2  0
 22 20  1  0
M  END
$$$$
