No_6653-complexes_sdf/6BKW-FPZ/2024-09-17-14-21-01/
     RDKit          3D

 21 23  0  0  0  0  0  0  0  0999 V2000
   -7.9040    3.9820   27.1177 C   0  0  0  0  0  0  0  0  0  0  0  0
   -7.8663    4.8694   27.9238 C   0  0  0  0  0  0  0  0  0  0  0  0
   -9.0501    3.8017   26.2617 C   0  0  0  0  0  0  0  0  0  0  0  0
  -10.0189    4.7608   26.3707 C   0  0  0  0  0  0  0  0  0  0  0  0
   -8.6973    5.9722   27.8968 C   0  0  0  0  0  0  0  0  0  0  0  0
   -9.8216    5.8946   27.1241 C   0  0  0  0  0  0  0  0  0  0  0  0
   -8.9544    2.5594   25.4484 C   0  0  0  0  0  0  0  0  0  0  0  0
   -8.6296    1.3862   26.0657 C   0  0  0  0  0  0  0  0  0  0  0  0
   -8.2447    1.3555   27.3069 C   0  0  0  0  0  0  0  0  0  0  0  0
   -7.7711    0.0821   27.7665 C   0  0  0  0  0  0  0  0  0  0  0  0
   -7.8773   -1.0288   27.0613 C   0  0  0  0  0  0  0  0  0  0  0  0
   -8.6348    0.0963   25.4922 C   0  0  0  0  0  0  0  0  0  0  0  0
   -8.3208   -1.0200   25.8769 C   0  0  0  0  0  0  0  0  0  0  0  0
   -9.5838    2.6363   24.1809 C   0  0  0  0  0  0  0  0  0  0  0  0
  -10.8524    2.8174   24.0249 C   0  0  0  0  0  0  0  0  0  0  0  0
  -11.8000    2.6201   24.7283 C   0  0  0  0  0  0  0  0  0  0  0  0
  -13.1353    2.9438   24.4348 C   0  0  0  0  0  0  0  0  0  0  0  0
  -11.1762    3.5394   22.7498 C   0  0  0  0  0  0  0  0  0  0  0  0
  -10.1257    3.8981   21.7988 C   0  0  0  0  0  0  0  0  0  0  0  0
  -12.4728    3.7826   22.4404 C   0  0  0  0  0  0  0  0  0  0  0  0
  -13.4595    3.5783   23.3137 C   0  0  0  0  0  0  0  0  0  0  0  0
  3  7  1  0
  7  8  1  0
  7 14  1  0
 14 15  1  0
 18 19  1  0
  1  2  2  0
  2  5  1  0
  5  6  2  0
  6  4  1  0
  4  3  2  0
  3  1  1  0
 15 16  2  0
 16 17  1  0
 17 21  2  0
 21 20  1  0
 20 18  2  0
 18 15  1  0
  8  9  2  0
  9 10  1  0
 10 11  2  0
 11 13  1  0
 13 12  2  0
 12  8  1  0
M  END
$$$$
