No_6873-complexes_sdf/6BKW-FPZ/2024-09-17-14-21-01/
     RDKit          3D

  9  9  0  0  0  0  0  0  0  0999 V2000
   -7.9040    3.9820   27.1177 C   0  0  0  0  0  0  0  0  0  0  0  0
   -7.8663    4.8694   27.9238 C   0  0  0  0  0  0  0  0  0  0  0  0
   -9.0806    3.1428   27.1220 C   0  0  0  0  0  0  0  0  0  0  0  0
   -8.9544    1.8782   26.5467 C   0  0  0  0  0  0  0  0  0  0  0  0
   -8.5076    6.0545   27.5968 C   0  0  0  0  0  0  0  0  0  0  0  0
   -7.9578    1.0658   26.7288 C   0  0  0  0  0  0  0  0  0  0  0  0
   -9.9234    5.8117   27.2702 C   0  0  0  0  0  0  0  0  0  0  0  0
  -10.1055    4.4163   26.7056 C   0  0  0  0  0  0  0  0  0  0  0  0
   -7.9221   -0.2616   26.2764 C   0  0  0  0  0  0  0  0  0  0  0  0
  1  2  1  0
  1  3  1  0
  3  4  1  0
  2  5  1  0
  4  6  2  3
  5  7  1  0
  3  8  1  0
  7  8  1  0
  6  9  1  0
M  END
$$$$
