No_6362-complexes_sdf/6BKW-FPZ/2024-09-17-14-21-01/
     RDKit          3D

 40 44  0  0  0  0  0  0  0  0999 V2000
   -7.2496    3.8871   27.4508 C   0  0  0  0  0  0  0  0  0  0  0  0
   -7.9379    4.9063   27.8518 C   0  0  0  0  0  0  0  0  0  0  0  0
   -9.3376    4.8647   27.7795 C   0  0  0  0  0  0  0  0  0  0  0  0
   -7.8544    2.6294   27.0414 C   0  0  0  0  0  0  0  0  0  0  0  0
   -9.2852    2.6570   27.0666 C   0  0  0  0  0  0  0  0  0  0  0  0
  -10.0126    3.7528   27.4890 C   0  0  0  0  0  0  0  0  0  0  0  0
  -11.4946    3.6924   27.5201 C   0  0  0  0  0  0  0  0  0  0  0  0
  -12.0181    2.6419   28.0792 C   0  0  0  0  0  0  0  0  0  0  0  0
  -13.4558    2.4682   28.2693 C   0  0  0  0  0  0  0  0  0  0  0  0
  -14.2214    3.5827   27.8675 C   0  0  0  0  0  0  0  0  0  0  0  0
  -13.6463    4.6925   27.3441 C   0  0  0  0  0  0  0  0  0  0  0  0
  -12.2538    4.8357   27.2257 C   0  0  0  0  0  0  0  0  0  0  0  0
   -6.9792    1.6672   26.8129 N   0  0  0  0  0  0  0  0  0  0  0  0
   -7.4378    0.5016   26.3618 C   0  0  2  0  0  0  0  0  0  0  0  0
   -6.5111   -0.5781   26.3523 C   0  0  0  0  0  0  0  0  0  0  0  0
   -8.1844    0.5226   25.0434 C   0  0  0  0  0  0  0  0  0  0  0  0
   -7.3164    6.0931   28.1858 O   0  0  0  0  0  0  0  0  0  0  0  0
   -9.2115    1.0222   24.9073 N   0  0  0  0  0  0  0  0  0  0  0  0
  -10.0509    0.9160   23.9664 C   0  0  0  0  0  0  0  0  0  0  0  0
  -11.2497    1.6997   23.8641 C   0  0  0  0  0  0  0  0  0  0  0  0
  -12.3607    1.3929   23.9851 C   0  0  1  0  0  0  0  0  0  0  0  0
  -12.6829    0.0283   24.2704 C   0  0  0  0  0  0  0  0  0  0  0  0
  -11.8524   -0.8732   23.7945 C   0  0  0  0  0  0  0  0  0  0  0  0
   -9.7215    0.4545   22.6299 C   0  0  0  0  0  0  0  0  0  0  0  0
  -10.7299   -0.8140   22.9725 C   0  0  2  0  0  0  0  0  0  0  0  0
   -7.4189    0.2517   24.0374 O   0  0  0  0  0  0  0  0  0  0  0  0
  -13.4875    2.3517   24.4554 C   0  0  0  0  0  0  0  0  0  0  0  0
  -14.2564    2.8650   23.4260 C   0  0  0  0  0  0  0  0  0  0  0  0
  -13.9887    2.6356   22.1625 C   0  0  0  0  0  0  0  0  0  0  0  0
  -14.8432    3.2562   21.1500 C   0  0  0  0  0  0  0  0  0  0  0  0
  -15.4000    3.6864   23.7547 C   0  0  0  0  0  0  0  0  0  0  0  0
  -16.2044    4.2931   22.8451 C   0  0  0  0  0  0  0  0  0  0  0  0
  -15.8849    4.0719   21.4972 C   0  0  0  0  0  0  0  0  0  0  0  0
  -15.9209    3.4957   28.0603 Cl  0  0  0  0  0  0  0  0  0  0  0  0
   -5.3928   -0.6863   26.1043 C   0  0  0  0  0  0  0  0  0  0  0  0
   -4.4878   -1.7716   26.1883 C   0  0  0  0  0  0  0  0  0  0  0  0
   -5.0060   -2.9213   26.7613 C   0  0  0  0  0  0  0  0  0  0  0  0
   -6.3203   -2.8836   27.1974 C   0  0  0  0  0  0  0  0  0  0  0  0
   -7.1402   -1.7915   27.1012 C   0  0  0  0  0  0  0  0  0  0  0  0
  -10.2707   -1.8753   22.0086 C   0  0  0  0  0  0  0  0  0  0  0  0
  6  7  1  0
  4 13  1  0
 14 13  1  6
 14 15  1  0
 14 16  1  0
  2 17  1  0
 16 18  1  0
 18 19  2  3
 19 20  1  0
 20 21  1  0
 21 22  1  0
 22 23  2  0
 19 24  1  0
 23 25  1  0
 24 25  1  0
 16 26  2  0
 21 27  1  1
 10 34  1  0
 25 40  1  6
 27 28  1  0
 15 35  2  0
 35 36  1  0
 36 37  2  0
 37 38  1  0
 38 39  2  0
 39 15  1  0
 28 29  2  0
 29 30  1  0
 30 33  2  0
 33 32  1  0
 32 31  2  0
 31 28  1  0
  1  2  2  0
  2  3  1  0
  3  6  2  0
  6  5  1  0
  5  4  2  0
  4  1  1  0
  7  8  2  0
  8  9  1  0
  9 10  2  0
 10 11  1  0
 11 12  2  0
 12  7  1  0
M  END
$$$$
