No_667-complexes_sdf/6BKW-FPZ/2024-09-17-14-21-01/
     RDKit          3D

 24 25  0  0  0  0  0  0  0  0999 V2000
   -7.2496    3.8871   27.4508 C   0  0  0  0  0  0  0  0  0  0  0  0
   -8.5096    4.0291   27.2770 C   0  0  0  0  0  0  0  0  0  0  0  0
   -9.3451    2.8786   26.9046 C   0  0  0  0  0  0  0  0  0  0  0  0
   -6.6065    2.5680   27.5073 C   0  0  0  0  0  0  0  0  0  0  0  0
   -7.4233    1.4858   27.2402 C   0  0  0  0  0  0  0  0  0  0  0  0
   -8.7362    1.6525   26.9989 C   0  0  0  0  0  0  0  0  0  0  0  0
   -9.1023    5.3710   27.2131 C   0  0  0  0  0  0  0  0  0  0  0  0
   -8.3961    6.4213   26.9458 N   0  0  0  0  0  0  0  0  0  0  0  0
  -10.3445    5.5191   27.4895 O   0  0  0  0  0  0  0  0  0  0  0  0
   -6.7864    0.1806   27.2533 C   0  0  0  0  0  0  0  0  0  0  0  0
   -5.6223    0.0294   27.7695 N   0  0  0  0  0  0  0  0  0  0  0  0
   -4.9831   -1.1294   28.0503 C   0  0  0  0  0  0  0  0  0  0  0  0
   -5.4370   -2.0423   28.1806 C   0  0  0  0  0  0  0  0  0  0  0  0
   -7.5079   -0.9687   27.3324 N   0  0  0  0  0  0  0  0  0  0  0  0
   -6.9174   -2.1367   27.7335 C   0  0  0  0  0  0  0  0  0  0  0  0
   -8.7943    7.8120   26.9535 C   0  0  0  0  0  0  0  0  0  0  0  0
   -3.4839   -0.8794   28.5589 C   0  0  1  0  0  0  0  0  0  0  0  0
   -3.4228   -0.0732   29.6538 C   0  0  0  0  0  0  0  0  0  0  0  0
   -2.7359   -2.0470   28.6973 C   0  0  0  0  0  0  0  0  0  0  0  0
   -2.7980    0.0444   27.3855 C   0  0  0  0  0  0  0  0  0  0  0  0
   -3.1846    1.2914   27.1052 C   0  0  0  0  0  0  0  0  0  0  0  0
   -2.4675    1.9296   26.1661 O   0  0  0  0  0  0  0  0  0  0  0  0
   -2.5862   -0.3217   30.6151 F   0  0  0  0  0  0  0  0  0  0  0  0
   -4.1227    1.0384   29.9570 F   0  0  0  0  0  0  0  0  0  0  0  0
  2  7  1  0
  7  8  1  0
  7  9  2  0
  5 10  1  0
  8 16  1  0
 12 17  1  0
 17 18  1  0
 17 19  1  1
 17 20  1  0
 20 21  1  0
 21 22  1  0
 18 23  1  0
 18 24  1  0
  1  2  2  0
  2  3  1  0
  3  6  2  0
  6  5  1  0
  5  4  2  0
  4  1  1  0
 10 11  2  0
 11 12  1  0
 12 13  2  0
 13 15  1  0
 15 14  2  0
 14 10  1  0
M  END
$$$$
