No_648-complexes_sdf/6BKW-FPZ/2024-09-17-14-21-01/
     RDKit          3D

 33 40  0  0  0  0  0  0  0  0999 V2000
   -7.9040    3.9820   27.1177 C   0  0  0  0  0  0  0  0  0  0  0  0
   -8.2057    2.8231   26.8733 C   0  0  0  0  0  0  0  0  0  0  0  0
   -8.7695    5.0740   26.7916 C   0  0  0  0  0  0  0  0  0  0  0  0
   -8.4337    6.4678   27.0913 C   0  0  0  0  0  0  0  0  0  0  0  0
   -9.3742    2.4311   26.2346 C   0  0  0  0  0  0  0  0  0  0  0  0
  -10.2395    3.4267   25.8887 C   0  0  0  0  0  0  0  0  0  0  0  0
   -9.9567    4.7548   26.1374 C   0  0  0  0  0  0  0  0  0  0  0  0
   -7.9449    7.5014   26.9590 N   0  0  0  0  0  0  0  0  0  0  0  0
   -7.2426    1.6814   27.2966 C   0  0  0  0  0  0  0  0  0  0  0  0
   -7.5505    0.3972   27.2174 N   0  0  0  0  0  0  0  0  0  0  0  0
   -6.0337    1.9869   27.7369 N   0  0  0  0  0  0  0  0  0  0  0  0
   -6.4459   -0.2041   27.7257 C   0  0  0  0  0  0  0  0  0  0  0  0
   -6.2602   -1.5943   27.9105 C   0  0  0  0  0  0  0  0  0  0  0  0
   -5.4778    0.6895   28.0497 C   0  0  0  0  0  0  0  0  0  0  0  0
   -6.8994   -2.4139   27.6881 C   0  0  0  0  0  0  0  0  0  0  0  0
   -8.3044   -2.0783   27.1609 C   0  0  0  0  0  0  0  0  0  0  0  0
   -9.0794   -1.2259   26.8568 C   0  0  0  0  0  0  0  0  0  0  0  0
   -8.6426    0.0696   26.9112 C   0  0  2  0  0  0  0  0  0  0  0  0
   -9.6392    1.0695   26.3813 C   0  0  0  0  0  0  0  0  0  0  0  0
   -4.1228    0.5932   28.5463 C   0  0  0  0  0  0  0  0  0  0  0  0
   -3.6320   -0.5880   29.0558 C   0  0  0  0  0  0  0  0  0  0  0  0
   -2.6324   -0.4407   30.1193 C   0  0  0  0  0  0  0  0  0  0  0  0
   -2.1810   -1.5701   30.7196 C   0  0  0  0  0  0  0  0  0  0  0  0
   -2.6223   -2.7766   30.3026 C   0  0  0  0  0  0  0  0  0  0  0  0
   -3.4987   -2.9032   29.3207 C   0  0  0  0  0  0  0  0  0  0  0  0
   -4.0142   -1.7943   28.7211 C   0  0  0  0  0  0  0  0  0  0  0  0
   -4.8442   -1.8259   28.4768 C   0  0  2  0  0  0  0  0  0  0  0  0
   -4.8707   -3.1893   28.0659 O   0  0  0  0  0  0  0  0  0  0  0  0
   -3.2858   -4.3695   28.7716 C   0  0  0  0  0  0  0  0  0  0  0  0
   -4.9519   -3.5046   26.8784 C   0  0  1  0  0  0  0  0  0  0  0  0
   -3.9698   -4.4055   26.5314 C   0  0  0  0  0  0  0  0  0  0  0  0
   -3.2237   -4.8765   27.7453 C   0  0  0  0  0  0  0  0  0  0  0  0
   -6.1374   -3.3481   26.1897 C   0  0  0  0  0  0  0  0  0  0  0  0
  3  4  1  0
  4  8  3  0
  2  9  1  0
  9 10  1  0
 10 12  1  0
 12 13  1  0
 11 14  1  0
 12 14  1  0
 13 15  2  0
 15 16  1  0
 16 17  2  0
 10 18  1  0
 17 18  1  0
  5 19  1  0
 18 19  1  6
 14 20  1  0
 13 27  1  0
 26 27  1  0
 27 28  1  6
 25 29  1  0
 28 30  1  0
 30 31  1  0
 29 32  1  0
 31 32  2  3
 15 33  1  0
 30 33  1  1
 11  9  1  0
 20 21  1  0
  1  2  2  0
  2  5  1  0
  5  6  2  0
  6  7  1  0
  7  3  2  0
  3  1  1  0
 21 22  2  0
 22 23  1  0
 23 24  2  0
 24 25  1  0
 25 26  2  0
 26 21  1  0
M  END
$$$$
