No_6176-complexes_sdf/6BKW-FPZ/2024-09-17-14-21-01/
     RDKit          3D

 30 34  0  0  0  0  0  0  0  0999 V2000
   -7.9040    3.9820   27.1177 C   0  0  0  0  0  0  0  0  0  0  0  0
   -8.2057    2.8231   26.8733 C   0  0  0  0  0  0  0  0  0  0  0  0
   -9.2962    2.4021   26.1155 C   0  0  0  0  0  0  0  0  0  0  0  0
   -8.7358    5.0662   26.5917 C   0  0  0  0  0  0  0  0  0  0  0  0
   -9.7618    4.7023   25.7546 C   0  0  0  0  0  0  0  0  0  0  0  0
  -10.0066    3.4105   25.4922 C   0  0  0  0  0  0  0  0  0  0  0  0
   -8.3936    6.4769   26.8843 C   0  0  0  0  0  0  0  0  0  0  0  0
   -8.6672    7.3248   26.1418 F   0  0  0  0  0  0  0  0  0  0  0  0
   -7.0254    6.5035   27.1659 F   0  0  0  0  0  0  0  0  0  0  0  0
   -9.0366    6.6263   28.1853 F   0  0  0  0  0  0  0  0  0  0  0  0
   -7.3512    1.6649   27.4944 C   0  0  0  0  0  0  0  0  0  0  0  0
   -7.7138    0.3363   27.3901 C   0  0  0  0  0  0  0  0  0  0  0  0
   -6.8527   -0.6335   27.8702 C   0  0  0  0  0  0  0  0  0  0  0  0
   -5.5733   -0.2520   28.3580 C   0  0  0  0  0  0  0  0  0  0  0  0
   -5.1622    1.0917   28.2914 C   0  0  0  0  0  0  0  0  0  0  0  0
   -5.9736    2.0130   27.8516 C   0  0  0  0  0  0  0  0  0  0  0  0
   -4.6598   -1.3031   28.9023 C   0  0  0  0  0  0  0  0  0  0  0  0
   -3.5063   -1.0907   29.0394 C   0  0  0  0  0  0  0  0  0  0  0  0
   -2.5463   -2.0660   29.5781 C   0  0  0  0  0  0  0  0  0  0  0  0
   -3.0570   -3.2583   29.8573 C   0  0  0  0  0  0  0  0  0  0  0  0
   -5.3227   -2.3973   29.5054 C   0  0  0  0  0  0  0  0  0  0  0  0
   -6.7034   -2.5651   29.5422 C   0  0  0  0  0  0  0  0  0  0  0  0
   -4.4616   -3.4032   30.0216 C   0  0  0  0  0  0  0  0  0  0  0  0
   -7.4872   -1.7976   28.5302 C   0  0  0  0  0  0  0  0  0  0  0  0
   -8.8236   -2.1765   28.1773 C   0  0  0  0  0  0  0  0  0  0  0  0
   -9.4422   -3.0914   28.7584 C   0  0  0  0  0  0  0  0  0  0  0  0
  -10.8206   -3.2933   28.5008 C   0  0  0  0  0  0  0  0  0  0  0  0
  -11.3728   -2.5493   27.4829 C   0  0  0  0  0  0  0  0  0  0  0  0
  -10.6905   -1.5669   26.8200 C   0  0  0  0  0  0  0  0  0  0  0  0
   -9.4174   -1.3036   27.1871 C   0  0  0  0  0  0  0  0  0  0  0  0
  4  7  1  0
  7  8  1  0
  7  9  1  0
  7 10  1  0
  2 11  1  0
 14 17  1  0
 21 22  1  0
 13 24  1  0
 22 24  1  0
 24 25  1  0
 25 26  2  0
 26 27  1  0
 27 28  2  0
 28 29  1  0
 29 30  2  0
 30 25  1  0
  1  2  2  0
  2  3  1  0
  3  6  2  0
  6  5  1  0
  5  4  2  0
  4  1  1  0
 11 12  2  0
 12 13  1  0
 13 14  2  0
 14 15  1  0
 15 16  2  0
 16 11  1  0
 17 18  2  0
 18 19  1  0
 19 20  2  0
 20 23  1  0
 23 21  2  0
 21 17  1  0
M  END
$$$$
