No_6007-complexes_sdf/6BKW-FPZ/2024-09-17-14-21-01/
     RDKit          3D

 14 14  0  0  0  0  0  0  0  0999 V2000
   -7.9040    3.9820   27.1177 C   0  0  0  0  0  0  0  0  0  0  0  0
   -7.8663    4.8694   27.9238 C   0  0  0  0  0  0  0  0  0  0  0  0
   -9.0501    3.8017   26.2617 C   0  0  0  0  0  0  0  0  0  0  0  0
   -9.1826    2.7026   25.3575 C   0  0  0  0  0  0  0  0  0  0  0  0
   -6.7437    5.1641   28.6994 C   0  0  0  0  0  0  0  0  0  0  0  0
  -10.1820    2.8063   24.4201 C   0  0  0  0  0  0  0  0  0  0  0  0
  -10.9744    3.9849   24.3912 C   0  0  0  0  0  0  0  0  0  0  0  0
  -10.7665    5.0100   25.2130 C   0  0  0  0  0  0  0  0  0  0  0  0
   -9.6927    5.0078   26.0989 C   0  0  2  0  0  0  0  0  0  0  0  0
   -9.4715    6.0885   26.9241 C   0  0  0  0  0  0  0  0  0  0  0  0
   -8.9043    5.6358   25.7396 F   0  0  0  0  0  0  0  0  0  0  0  0
   -9.9886    3.2768   27.4104 O   0  0  0  0  0  0  0  0  0  0  0  0
   -8.2760    6.1620   27.8200 C   0  0  0  0  0  0  0  0  0  0  0  0
   -8.3359    3.0917   26.1819 O   0  0  0  0  0  0  0  0  0  0  0  0
  1  2  2  3
  1  3  1  0
  3  4  1  0
  2  5  1  0
  4  6  2  3
  6  7  1  0
  7  8  2  3
  8  9  1  0
  9 10  1  0
  9 11  1  6
  3 12  1  0
  2 13  1  0
 10 13  1  0
  3 14  1  0
M  END
$$$$
