No_6142-complexes_sdf/6BKW-FPZ/2024-09-17-14-21-01/
     RDKit          3D

 40 45  0  0  0  0  0  0  0  0999 V2000
   -7.9040    3.9820   27.1177 C   0  0  0  0  0  0  0  0  0  0  0  0
   -9.0711    4.3164   27.0630 C   0  0  2  0  0  0  0  0  0  0  0  0
   -9.8698    3.9665   25.9495 C   0  0  0  0  0  0  0  0  0  0  0  0
   -6.9515    4.6878   28.0207 C   0  0  1  0  0  0  0  0  0  0  0  0
   -9.6406    4.4469   24.7375 C   0  0  0  0  0  0  0  0  0  0  0  0
   -7.6317    5.5566   28.8289 N   0  0  0  0  0  0  0  0  0  0  0  0
  -10.4238    4.2193   23.5949 C   0  0  0  0  0  0  0  0  0  0  0  0
  -11.4568    3.3417   23.6440 C   0  0  0  0  0  0  0  0  0  0  0  0
  -11.0423    3.2391   26.0314 C   0  0  0  0  0  0  0  0  0  0  0  0
  -11.8361    2.9325   24.9441 C   0  0  0  0  0  0  0  0  0  0  0  0
   -9.3179    5.4430   28.0025 C   0  0  0  0  0  0  0  0  0  0  0  0
   -5.7794    4.3185   28.3282 N   0  0  0  0  0  0  0  0  0  0  0  0
  -12.2969    3.1411   22.4853 C   0  0  0  0  0  0  0  0  0  0  0  0
  -11.7309    3.1451   21.3002 C   0  0  0  0  0  0  0  0  0  0  0  0
  -12.4686    2.8328   20.0603 C   0  0  0  0  0  0  0  0  0  0  0  0
  -13.8204    2.6528   20.1677 C   0  0  0  0  0  0  0  0  0  0  0  0
  -13.6848    2.9558   22.5424 C   0  0  0  0  0  0  0  0  0  0  0  0
  -14.4147    2.7469   21.4025 C   0  0  0  0  0  0  0  0  0  0  0  0
  -11.5002    2.7503   27.3843 C   0  0  0  0  0  0  0  0  0  0  0  0
  -12.4007    2.1684   27.7888 C   0  0  0  0  0  0  0  0  0  0  0  0
  -13.4730    1.8896   26.9123 C   0  0  0  0  0  0  0  0  0  0  0  0
  -13.1341    2.2065   25.4501 C   0  0  0  0  0  0  0  0  0  0  0  0
  -14.5558    1.2287   27.0517 O   0  0  0  0  0  0  0  0  0  0  0  0
  -16.0902    2.5273   21.3070 Cl  0  0  0  0  0  0  0  0  0  0  0  0
  -12.7266    1.7570   29.1914 C   0  0  0  0  0  0  0  0  0  0  0  0
  -13.6178    2.0864   29.8548 N   0  0  0  0  0  0  0  0  0  0  0  0
  -13.6580    3.3188   30.4102 C   0  0  0  0  0  0  0  0  0  0  0  0
  -14.4827    3.9178   30.8445 C   0  0  0  0  0  0  0  0  0  0  0  0
  -14.6458    1.2658   30.1872 C   0  0  0  0  0  0  0  0  0  0  0  0
  -15.7636    1.8694   30.9068 C   0  0  0  0  0  0  0  0  0  0  0  0
  -15.6411    3.2023   31.3449 C   0  0  0  0  0  0  0  0  0  0  0  0
  -15.7133    1.7778   26.6967 C   0  0  0  0  0  0  0  0  0  0  0  0
  -16.7962    0.9016   26.8724 C   0  0  0  0  0  0  0  0  0  0  0  0
  -16.7209   -0.2834   27.0549 C   0  0  0  0  0  0  0  0  0  0  0  0
  -17.8552   -1.1986   27.1888 C   0  0  0  0  0  0  0  0  0  0  0  0
  -18.0942    1.3178   26.5004 C   0  0  0  0  0  0  0  0  0  0  0  0
  -19.2307    0.5851   26.5653 C   0  0  0  0  0  0  0  0  0  0  0  0
  -19.0668   -0.7359   26.9071 C   0  0  0  0  0  0  0  0  0  0  0  0
  -20.1825   -1.5151   26.9943 O   0  0  0  0  0  0  0  0  0  0  0  0
  -12.0821    0.6181   29.4475 O   0  0  0  0  0  0  0  0  0  0  0  0
  1  2  1  0
  2  3  1  6
  1  4  1  0
  4  6  1  0
  2 11  1  0
  6 11  1  0
  4 12  1  1
  8 13  1  0
 21 23  1  0
 18 24  1  0
 20 25  1  0
 25 26  1  0
 26 27  1  0
 26 29  1  0
 28 31  1  0
 30 31  1  0
 23 32  1  0
 38 39  1  0
 25 40  2  0
 32 33  1  0
 27 28  1  0
 30 29  1  0
  3  5  2  0
  5  7  1  0
  7  8  2  0
  8 10  1  0
  9  3  1  0
 33 34  2  0
 34 35  1  0
 35 38  2  0
 38 37  1  0
 37 36  2  0
 36 33  1  0
  9 10  2  0
 10 22  1  0
 22 21  2  0
 21 20  1  0
 20 19  2  0
 19  9  1  0
 13 14  2  0
 14 15  1  0
 15 16  2  0
 16 18  1  0
 18 17  2  0
 17 13  1  0
M  END
$$$$
