No_6257-complexes_sdf/6BKW-FPZ/2024-09-17-14-21-01/
     RDKit          3D

 40 46  0  0  0  0  0  0  0  0999 V2000
   -7.7129    4.2099   27.0854 C   0  0  0  0  0  0  0  0  0  0  0  0
   -8.9133    4.4736   27.0998 C   0  0  0  0  0  0  0  0  0  0  0  0
   -9.4643    5.5426   27.7628 C   0  0  0  0  0  0  0  0  0  0  0  0
   -7.2009    2.9448   26.6134 C   0  0  0  0  0  0  0  0  0  0  0  0
   -8.1365    1.9533   26.2981 C   0  0  1  0  0  0  0  0  0  0  0  0
   -9.4501    2.2651   26.2497 C   0  0  1  0  0  0  0  0  0  0  0  0
   -9.8615    3.4703   26.6763 C   0  0  0  0  0  0  0  0  0  0  0  0
   -7.5839    0.6450   25.9087 C   0  0  0  0  0  0  0  0  0  0  0  0
   -6.7587    0.0396   26.7477 N   0  0  0  0  0  0  0  0  0  0  0  0
   -5.8000   -0.7466   26.4275 C   0  0  0  0  0  0  0  0  0  0  0  0
   -4.8978   -1.1122   27.0859 C   0  0  0  0  0  0  0  0  0  0  0  0
   -4.8450   -0.6989   28.5224 C   0  0  0  0  0  0  0  0  0  0  0  0
   -3.9075   -1.0805   29.4743 C   0  0  0  0  0  0  0  0  0  0  0  0
   -4.0074   -0.5818   30.8217 C   0  0  0  0  0  0  0  0  0  0  0  0
   -3.2074   -1.0331   31.8447 C   0  0  0  0  0  0  0  0  0  0  0  0
   -2.1414   -1.8638   31.5656 C   0  0  0  0  0  0  0  0  0  0  0  0
   -2.0025   -2.2792   30.2465 C   0  0  0  0  0  0  0  0  0  0  0  0
   -2.8186   -1.8936   29.2286 C   0  0  0  0  0  0  0  0  0  0  0  0
   -6.0037    0.1716   28.8480 C   0  0  0  0  0  0  0  0  0  0  0  0
   -6.5109    0.9021   27.9856 C   0  0  0  0  0  0  0  0  0  0  0  0
  -10.3588    1.3064   25.6241 C   0  0  2  0  0  0  0  0  0  0  0  0
  -10.3249    1.1382   24.3394 C   0  0  0  0  0  0  0  0  0  0  0  0
  -10.7134    2.1819   23.5189 C   0  0  0  0  0  0  0  0  0  0  0  0
  -10.3990    2.2497   22.1719 C   0  0  0  0  0  0  0  0  0  0  0  0
  -10.6384    3.3808   21.3293 C   0  0  0  0  0  0  0  0  0  0  0  0
  -11.0596    4.5730   21.9452 C   0  0  0  0  0  0  0  0  0  0  0  0
  -11.2018    4.5966   23.3691 C   0  0  0  0  0  0  0  0  0  0  0  0
  -10.9776    3.5117   24.0727 C   0  0  0  0  0  0  0  0  0  0  0  0
  -10.1243   -0.1105   23.6759 C   0  0  0  0  0  0  0  0  0  0  0  0
   -9.7809   -0.2247   22.4517 C   0  0  0  0  0  0  0  0  0  0  0  0
  -10.0075    1.0260   21.5129 C   0  0  0  0  0  0  0  0  0  0  0  0
  -11.7753    1.5619   26.1766 C   0  0  0  0  0  0  0  0  0  0  0  0
  -12.2898    0.5669   27.0973 C   0  0  0  0  0  0  0  0  0  0  0  0
  -11.4448   -0.3126   27.6224 C   0  0  0  0  0  0  0  0  0  0  0  0
  -11.6424   -1.1132   28.4426 C   0  0  0  0  0  0  0  0  0  0  0  0
  -10.6402   -2.0800   28.9658 C   0  0  0  0  0  0  0  0  0  0  0  0
   -9.3402   -2.0014   28.4441 C   0  0  0  0  0  0  0  0  0  0  0  0
   -9.0534   -0.9847   27.5508 C   0  0  0  0  0  0  0  0  0  0  0  0
  -10.0391   -0.1777   27.1344 C   0  0  0  0  0  0  0  0  0  0  0  0
   -9.8307    0.6049   26.0590 N   0  0  0  0  0  0  0  0  0  0  0  0
  1  2  1  0
  2  3  2  0
  1  4  1  0
  4  5  1  0
  5  6  1  0
  2  7  1  0
  6  7  1  6
  5  8  1  6
  8  9  1  0
  9 10  1  0
 11 12  1  0
 12 19  1  0
  9 20  1  0
 19 20  1  0
  6 21  1  0
 21 22  1  6
 21 32  1  0
 32 33  1  0
 21 40  1  0
 39 40  1  0
 13 12  1  0
 10 11  1  0
 33 34  1  0
 24 25  2  0
 25 26  1  0
 26 27  2  0
 27 28  1  0
 28 23  2  0
 22 23  1  0
 23 24  1  0
 24 31  1  0
 31 30  2  0
 30 29  1  0
 29 22  2  0
 34 35  2  0
 35 36  1  0
 36 37  2  0
 37 38  1  0
 38 39  2  0
 39 34  1  0
 13 14  2  0
 14 15  1  0
 15 16  2  0
 16 17  1  0
 17 18  2  0
 18 13  1  0
M  END
$$$$
