No_675-complexes_sdf/6BKW-FPZ/2024-09-17-14-21-01/
     RDKit          3D

 31 35  0  0  0  0  0  0  0  0999 V2000
   -7.9040    3.9820   27.1177 C   0  0  0  0  0  0  0  0  0  0  0  0
   -7.8663    4.8694   27.9238 C   0  0  0  0  0  0  0  0  0  0  0  0
   -9.0491    3.8523   26.2542 C   0  0  0  0  0  0  0  0  0  0  0  0
   -8.7661    5.9491   27.9690 C   0  0  0  0  0  0  0  0  0  0  0  0
   -9.9295    4.8502   26.2323 C   0  0  0  0  0  0  0  0  0  0  0  0
   -9.8077    5.9288   27.0933 C   0  0  0  0  0  0  0  0  0  0  0  0
   -6.8002    2.6256   27.2024 Cl  0  0  0  0  0  0  0  0  0  0  0  0
   -9.0815    2.8240   25.3662 F   0  0  0  0  0  0  0  0  0  0  0  0
  -10.8957    4.8227   25.3016 O   0  0  0  0  0  0  0  0  0  0  0  0
  -11.8722    3.9891   25.4528 C   0  0  0  0  0  0  0  0  0  0  0  0
  -12.4292    3.7944   26.4454 C   0  0  0  0  0  0  0  0  0  0  0  0
  -12.1059    4.4638   27.7327 C   0  0  0  0  0  0  0  0  0  0  0  0
  -12.9250    4.2025   28.9260 C   0  0  0  0  0  0  0  0  0  0  0  0
  -14.0345    3.3544   28.8605 C   0  0  0  0  0  0  0  0  0  0  0  0
  -14.3481    2.7437   27.6357 C   0  0  0  0  0  0  0  0  0  0  0  0
  -13.6379    2.9566   26.5246 C   0  0  0  0  0  0  0  0  0  0  0  0
  -12.3701    3.5149   24.1387 C   0  0  0  0  0  0  0  0  0  0  0  0
  -12.0582    3.7698   23.1771 C   0  0  0  0  0  0  0  0  0  0  0  0
  -12.4955    3.2583   21.8383 C   0  0  0  0  0  0  0  0  0  0  0  0
  -13.4653    2.3241   21.9319 C   0  0  0  0  0  0  0  0  0  0  0  0
  -13.9807    1.9941   23.1398 C   0  0  0  0  0  0  0  0  0  0  0  0
  -13.4532    2.5022   24.2823 C   0  0  0  0  0  0  0  0  0  0  0  0
  -14.0497    2.3313   25.3881 C   0  0  0  0  0  0  0  0  0  0  0  0
  -14.7468    3.1237   30.1229 C   0  0  2  0  0  0  0  0  0  0  0  0
  -15.0794    3.9131   30.9573 C   0  0  0  0  0  0  0  0  0  0  0  0
  -15.3193    4.1437   31.9958 C   0  0  0  0  0  0  0  0  0  0  0  0
  -15.5833    5.4057   32.7205 C   0  0  0  0  0  0  0  0  0  0  0  0
  -15.6667    6.4435   31.8092 C   0  0  0  0  0  0  0  0  0  0  0  0
  -15.4536    6.3200   30.4779 C   0  0  0  0  0  0  0  0  0  0  0  0
  -15.1075    5.2227   30.0425 C   0  0  0  0  0  0  0  0  0  0  0  0
  -13.9396    2.1929   30.8966 F   0  0  0  0  0  0  0  0  0  0  0  0
  1  7  1  0
  3  8  1  0
  5  9  1  0
  9 10  1  0
 14 24  1  0
 24 31  1  1
 24 25  1  0
 25 26  2  0
 26 27  1  0
 27 28  2  0
 28 29  1  0
 29 30  2  0
 30 25  1  0
 11 12  2  0
 12 13  1  0
 13 14  2  0
 14 15  1  0
 15 16  2  0
 10 11  1  0
 11 16  1  0
 16 23  1  0
 23 22  2  0
 17 10  2  0
 17 18  1  0
 18 19  2  0
 19 20  1  0
 20 21  2  0
 21 22  1  0
 22 17  1  0
  1  2  2  0
  2  4  1  0
  4  6  2  0
  6  5  1  0
  5  3  2  0
  3  1  1  0
M  END
$$$$
