No_69-complexes_sdf/6BKW-FPZ/2024-09-17-14-21-01/
     RDKit          3D

  8  8  0  0  0  0  0  0  0  0999 V2000
   -7.2496    3.8871   27.4508 C   0  0  0  0  0  0  0  0  0  0  0  0
   -7.9379    4.9063   27.8518 C   0  0  0  0  0  0  0  0  0  0  0  0
   -9.3376    4.8647   27.7795 C   0  0  0  0  0  0  0  0  0  0  0  0
   -5.8493    3.7505   27.7216 C   0  0  0  0  0  0  0  0  0  0  0  0
   -7.9991    2.7137   26.9865 C   0  0  0  0  0  0  0  0  0  0  0  0
   -7.3233    1.5157   26.6466 C   0  0  0  0  0  0  0  0  0  0  0  0
  -10.1073    3.8754   27.3696 C   0  0  0  0  0  0  0  0  0  0  0  0
   -9.3978    2.6991   26.9743 C   0  0  0  0  0  0  0  0  0  0  0  0
  1  4  1  0
  5  6  1  0
  1  2  2  0
  2  3  1  0
  3  7  2  0
  7  8  1  0
  8  5  2  0
  5  1  1  0
M  END
$$$$
