No_6072-complexes_sdf/6BKW-FPZ/2024-09-17-14-21-01/
     RDKit          3D

 35 39  0  0  0  0  0  0  0  0999 V2000
   -7.7129    4.2099   27.0854 C   0  0  0  0  0  0  0  0  0  0  0  0
   -8.2112    3.0637   26.9225 C   0  0  2  0  0  0  0  0  0  0  0  0
   -7.0021    4.5281   28.2396 C   0  0  0  0  0  0  0  0  0  0  0  0
   -9.4237    2.7810   26.2714 C   0  0  0  0  0  0  0  0  0  0  0  0
   -9.8781    3.7859   25.4663 C   0  0  2  0  0  0  0  0  0  0  0  0
   -9.3689    5.0975   25.5965 C   0  0  0  0  0  0  0  0  0  0  0  0
   -8.4784    5.3402   26.5448 C   0  0  0  0  0  0  0  0  0  0  0  0
  -10.9798    3.5389   24.5162 C   0  0  0  0  0  0  0  0  0  0  0  0
  -12.1748    3.3346   24.9229 C   0  0  0  0  0  0  0  0  0  0  0  0
  -10.6839    3.5580   23.1254 C   0  0  0  0  0  0  0  0  0  0  0  0
  -11.5176    3.4105   22.1098 C   0  0  0  0  0  0  0  0  0  0  0  0
  -13.2412    3.2038   23.9166 C   0  0  0  0  0  0  0  0  0  0  0  0
  -12.8955    3.2493   22.5777 C   0  0  0  0  0  0  0  0  0  0  0  0
   -7.6035    1.8324   27.6131 C   0  0  0  0  0  0  0  0  0  0  0  0
   -6.8216    0.9609   26.8269 C   0  0  0  0  0  0  0  0  0  0  0  0
   -6.1821   -0.0712   27.5495 C   0  0  0  0  0  0  0  0  0  0  0  0
   -5.4476   -0.8186   27.1352 C   0  0  0  0  0  0  0  0  0  0  0  0
   -5.3909   -0.9945   25.6901 C   0  0  0  0  0  0  0  0  0  0  0  0
   -6.2864   -0.2786   24.9165 C   0  0  0  0  0  0  0  0  0  0  0  0
   -7.0383    0.6811   25.5167 C   0  0  0  0  0  0  0  0  0  0  0  0
   -4.4717   -1.7446   27.8801 C   0  0  0  0  0  0  0  0  0  0  0  0
   -3.3671   -1.6448   27.9247 C   0  0  0  0  0  0  0  0  0  0  0  0
   -2.4272   -2.4147   28.7709 C   0  0  0  0  0  0  0  0  0  0  0  0
   -2.9857   -3.3124   29.6204 C   0  0  0  0  0  0  0  0  0  0  0  0
   -5.1393   -2.6112   28.9061 C   0  0  0  0  0  0  0  0  0  0  0  0
   -4.3808   -3.3714   29.7322 C   0  0  0  0  0  0  0  0  0  0  0  0
   -5.0329   -4.2669   30.6826 C   0  0  0  0  0  0  0  0  0  0  0  0
   -4.7107   -4.7952   31.5471 O   0  0  0  0  0  0  0  0  0  0  0  0
   -6.4041   -4.3762   30.3295 O   0  0  0  0  0  0  0  0  0  0  0  0
  -12.6380    3.3631   26.3159 C   0  0  0  0  0  0  0  0  0  0  0  0
  -12.1021    3.5347   27.2304 C   0  0  0  0  0  0  0  0  0  0  0  0
  -12.6012    3.5550   28.6419 C   0  0  0  0  0  0  0  0  0  0  0  0
  -13.9096    3.3022   28.8820 C   0  0  0  0  0  0  0  0  0  0  0  0
  -14.6955    3.1408   27.7105 C   0  0  0  0  0  0  0  0  0  0  0  0
  -14.1525    3.1629   26.4723 C   0  0  0  0  0  0  0  0  0  0  0  0
  1  2  1  0
  1  3  2  0
  2  4  1  0
  4  5  1  0
  5  6  1  0
  1  7  1  0
  6  7  1  0
  5  8  1  1
  2 14  1  1
 17 21  1  0
 26 27  1  0
 27 28  2  0
 27 29  1  0
  9 30  1  0
 14 15  1  0
 15 16  2  0
 16 17  1  0
 17 18  2  0
 18 19  1  0
 19 20  2  0
 20 15  1  0
 21 22  2  0
 22 23  1  0
 23 24  2  0
 24 26  1  0
 26 25  2  0
 25 21  1  0
 30 31  2  0
 31 32  1  0
 32 33  2  0
 33 34  1  0
 34 35  2  0
 35 30  1  0
  8  9  2  0
  9 12  1  0
 12 13  2  0
 13 11  1  0
 11 10  2  0
 10  8  1  0
M  END
$$$$
