No_6813-complexes_sdf/6BKW-FPZ/2024-09-17-14-21-01/
     RDKit          3D

 17 18  0  0  0  0  0  0  0  0999 V2000
   -7.2496    3.8871   27.4508 C   0  0  1  0  0  0  0  0  0  0  0  0
   -8.5096    4.0291   27.2770 C   0  0  0  0  0  0  0  0  0  0  0  0
   -9.2677    5.1714   27.5773 C   0  0  0  0  0  0  0  0  0  0  0  0
   -9.2765    2.8248   26.8371 C   0  0  0  0  0  0  0  0  0  0  0  0
  -10.4623    3.0171   26.3236 C   0  0  0  0  0  0  0  0  0  0  0  0
  -10.6079    5.2706   27.2578 C   0  0  0  0  0  0  0  0  0  0  0  0
  -11.2590    4.1999   26.7166 C   0  0  0  0  0  0  0  0  0  0  0  0
   -6.5429    4.9253   27.9393 N   0  0  0  0  0  0  0  0  0  0  0  0
   -6.4220    2.3708   27.4236 Cl  0  0  0  0  0  0  0  0  0  0  0  0
  -12.6714    4.3239   26.3238 C   0  0  0  0  0  0  0  0  0  0  0  0
  -13.6488    4.4680   27.3587 C   0  0  0  0  0  0  0  0  0  0  0  0
  -13.3232    4.3063   28.6433 C   0  0  0  0  0  0  0  0  0  0  0  0
  -15.0014    4.9133   26.9345 C   0  0  0  0  0  0  0  0  0  0  0  0
  -14.3720    4.3203   29.6699 C   0  0  0  0  0  0  0  0  0  0  0  0
  -15.9830    4.9780   27.9765 C   0  0  0  0  0  0  0  0  0  0  0  0
  -15.6385    4.7328   29.3263 C   0  0  0  0  0  0  0  0  0  0  0  0
  -13.0324    3.9650   25.1782 O   0  0  0  0  0  0  0  0  0  0  0  0
  1  2  1  0
  1  8  1  1
  1  9  1  0
  7 10  1  0
 10 11  1  0
 10 17  2  0
 11 12  2  0
 12 14  1  0
 14 16  2  0
 16 15  1  0
 15 13  2  0
 13 11  1  0
  2  3  2  0
  3  6  1  0
  6  7  2  0
  7  5  1  0
  5  4  2  0
  4  2  1  0
M  END
$$$$
