No_6906-complexes_sdf/6BKW-FPZ/2024-09-17-14-21-01/
     RDKit          3D

 24 26  0  0  0  0  0  0  0  0999 V2000
   -7.7129    4.2099   27.0854 C   0  0  0  0  0  0  0  0  0  0  0  0
   -7.7814    5.1722   27.8972 C   0  0  0  0  0  0  0  0  0  0  0  0
   -8.8255    3.2789   27.1191 C   0  0  0  0  0  0  0  0  0  0  0  0
   -9.9209    3.4734   27.9101 C   0  0  0  0  0  0  0  0  0  0  0  0
   -9.9736    4.7085   28.6831 C   0  0  0  0  0  0  0  0  0  0  0  0
   -8.8840    5.5441   28.6612 C   0  0  0  0  0  0  0  0  0  0  0  0
   -8.5122    2.0593   26.2511 C   0  0  0  0  0  0  0  0  0  0  0  0
   -9.3307    1.9224   25.1580 N   0  0  0  0  0  0  0  0  0  0  0  0
   -9.2468    0.8748   24.3575 C   0  0  0  0  0  0  0  0  0  0  0  0
   -9.8795    0.9973   23.0631 C   0  0  0  0  0  0  0  0  0  0  0  0
   -9.7586    0.0122   22.0933 C   0  0  0  0  0  0  0  0  0  0  0  0
   -8.9472   -1.1294   22.3926 C   0  0  0  0  0  0  0  0  0  0  0  0
   -8.4128   -0.2093   24.5614 C   0  0  0  0  0  0  0  0  0  0  0  0
   -8.2618   -1.2005   23.5937 C   0  0  0  0  0  0  0  0  0  0  0  0
   -7.6363    1.3236   26.6061 O   0  0  0  0  0  0  0  0  0  0  0  0
  -11.0328    2.5784   27.9269 C   0  0  0  0  0  0  0  0  0  0  0  0
  -12.1750    2.8948   28.6276 C   0  0  0  0  0  0  0  0  0  0  0  0
  -13.1982    1.9446   28.9850 C   0  0  0  0  0  0  0  0  0  0  0  0
  -12.9957    0.6705   28.4282 C   0  0  0  0  0  0  0  0  0  0  0  0
  -11.8641    0.3151   27.6708 C   0  0  0  0  0  0  0  0  0  0  0  0
  -10.8522    1.2818   27.5326 C   0  0  0  0  0  0  0  0  0  0  0  0
  -11.6935   -1.0606   27.2232 C   0  0  0  0  0  0  0  0  0  0  0  0
  -11.7378   -1.1971   25.9617 O   0  0  0  0  0  0  0  0  0  0  0  0
  -11.4413   -2.0269   27.9841 O   0  0  0  0  0  0  0  0  0  0  0  0
  3  7  1  0
  7  8  1  0
  8  9  1  0
  7 15  2  0
  4 16  1  0
 20 22  1  0
 22 23  2  0
 22 24  1  0
  1  2  2  0
  2  6  1  0
  6  5  2  0
  5  4  1  0
  4  3  2  0
  3  1  1  0
  9 10  2  0
 10 11  1  0
 11 12  2  0
 12 14  1  0
 14 13  2  0
 13  9  1  0
 16 17  2  0
 17 18  1  0
 18 19  2  0
 19 20  1  0
 20 21  2  0
 21 16  1  0
M  END
$$$$
