No_6095-complexes_sdf/6BKW-FPZ/2024-09-17-14-21-01/
     RDKit          3D

 17 18  0  0  0  0  0  0  0  0999 V2000
   -7.9040    3.9820   27.1177 C   0  0  0  0  0  0  0  0  0  0  0  0
   -9.0711    4.3164   27.0630 C   0  0  0  0  0  0  0  0  0  0  0  0
   -9.5294    5.4517   27.7215 C   0  0  0  0  0  0  0  0  0  0  0  0
   -7.4336    2.7132   26.5681 C   0  0  0  0  0  0  0  0  0  0  0  0
   -8.3353    1.8569   26.0442 C   0  0  0  0  0  0  0  0  0  0  0  0
   -7.9243    0.5609   25.6726 C   0  0  2  0  0  0  0  0  0  0  0  0
   -9.9858    3.3264   26.6599 C   0  0  0  0  0  0  0  0  0  0  0  0
   -9.6166    2.1642   26.1249 C   0  0  0  0  0  0  0  0  0  0  0  0
   -6.6167   -0.3676   26.4306 Br  0  0  0  0  0  0  0  0  0  0  0  0
   -7.7269    0.1144   24.3383 C   0  0  0  0  0  0  0  0  0  0  0  0
   -6.8826    4.8477   27.6539 N   0  0  0  0  0  0  0  0  0  0  0  0
   -7.2333    6.0357   28.2017 C   0  0  0  0  0  0  0  0  0  0  0  0
   -8.5740    6.3565   28.1790 N   0  0  0  0  0  0  0  0  0  0  0  0
   -8.5657    0.6397   23.4522 N   0  0  0  0  0  0  0  0  0  0  0  0
   -9.6663    0.2639   22.9407 C   0  0  0  0  0  0  0  0  0  0  0  0
  -10.3650    1.0497   21.9757 C   0  0  0  0  0  0  0  0  0  0  0  0
  -11.4238    0.6633   21.2663 C   0  0  0  0  0  0  0  0  0  0  0  0
  5  6  1  0
  6  9  1  1
  6 10  1  0
 10 14  1  0
 14 15  1  0
 15 16  2  3
 16 17  1  0
  2  7  1  0
  7  8  2  0
  8  5  1  0
  5  4  2  0
  4  1  1  0
  1  2  1  0
  2  3  2  0
  3 13  1  0
 13 12  2  0
 12 11  1  0
 11  1  2  0
M  END
$$$$
