No_6210-complexes_sdf/6BKW-FPZ/2024-09-17-14-21-01/
     RDKit          3D

 29 32  0  0  0  0  0  0  0  0999 V2000
   -7.2496    3.8871   27.4508 C   0  0  0  0  0  0  0  0  0  0  0  0
   -7.6161    2.7143   27.1523 C   0  0  0  0  0  0  0  0  0  0  0  0
   -6.9719    1.5838   27.5324 C   0  0  0  0  0  0  0  0  0  0  0  0
   -7.4590    0.2827   27.2615 C   0  0  0  0  0  0  0  0  0  0  0  0
   -8.8629    2.3938   26.5063 C   0  0  0  0  0  0  0  0  0  0  0  0
   -9.3223    1.1948   26.1623 C   0  0  0  0  0  0  0  0  0  0  0  0
   -8.5674    0.0945   26.6187 C   0  0  0  0  0  0  0  0  0  0  0  0
   -8.0621    5.0458   27.1866 C   0  0  0  0  0  0  0  0  0  0  0  0
   -9.2131    4.9547   26.3859 C   0  0  0  0  0  0  0  0  0  0  0  0
   -9.6635    3.6444   26.1149 C   0  0  0  0  0  0  0  0  0  0  0  0
   -7.7413    6.6334   27.8473 Cl  0  0  0  0  0  0  0  0  0  0  0  0
  -10.8394    3.5229   25.2605 C   0  0  0  0  0  0  0  0  0  0  0  0
  -11.2823    2.6323   24.5474 C   0  0  0  0  0  0  0  0  0  0  0  0
  -11.9537    2.6378   23.7219 C   0  0  0  0  0  0  0  0  0  0  0  0
  -12.7340    3.8600   23.4866 C   0  0  0  0  0  0  0  0  0  0  0  0
  -12.4708    4.9385   24.2591 C   0  0  0  0  0  0  0  0  0  0  0  0
  -11.4350    4.8850   25.1206 C   0  0  0  0  0  0  0  0  0  0  0  0
   -6.6392   -0.8937   27.7732 C   0  0  0  0  0  0  0  0  0  0  0  0
   -7.1114   -1.7611   28.4294 O   0  0  0  0  0  0  0  0  0  0  0  0
   -5.3069   -0.6757   27.8797 O   0  0  0  0  0  0  0  0  0  0  0  0
   -4.4883   -1.5926   28.2519 C   0  0  0  0  0  0  0  0  0  0  0  0
   -4.1298   -1.6376   29.4786 C   0  0  2  0  0  0  0  0  0  0  0  0
   -4.1961   -0.3863   30.1606 C   0  0  0  0  0  0  0  0  0  0  0  0
   -4.2433   -0.3180   31.6554 C   0  0  0  0  0  0  0  0  0  0  0  0
   -3.2412   -1.0093   32.3082 C   0  0  2  0  0  0  0  0  0  0  0  0
   -2.8878   -2.2933   31.7517 C   0  0  0  0  0  0  0  0  0  0  0  0
   -2.8490   -2.2228   30.2662 C   0  0  0  0  0  0  0  0  0  0  0  0
   -2.6214   -0.5755   33.5205 C   0  0  0  0  0  0  0  0  0  0  0  0
   -2.3879    0.4215   33.7777 O   0  0  0  0  0  0  0  0  0  0  0  0
  8 11  1  0
 10 12  1  0
  4 18  1  0
 18 19  2  0
 18 20  1  0
 20 21  1  0
 22 21  1  6
 22 23  1  0
 23 24  1  0
 24 25  1  0
 25 26  1  0
 22 27  1  0
 26 27  1  0
 25 28  1  1
 28 29  2  0
 12 13  2  0
 13 14  1  0
 14 15  2  0
 15 16  1  0
 16 17  2  0
 17 12  1  0
  1  2  2  0
  5 10  2  0
 10  9  1  0
  9  8  2  0
  8  1  1  0
  2  3  1  0
  3  4  2  0
  4  7  1  0
  7  6  2  0
  6  5  1  0
  5  2  1  0
M  END
$$$$
