No_6398-complexes_sdf/6BKW-FPZ/2024-09-17-14-21-01/
     RDKit          3D

  9  8  0  0  0  0  0  0  0  0999 V2000
   -7.2496    3.8871   27.4508 C   0  0  0  0  0  0  0  0  0  0  0  0
   -7.9379    4.9063   27.8518 C   0  0  0  0  0  0  0  0  0  0  0  0
   -7.5112    6.1898   27.6280 C   0  0  0  0  0  0  0  0  0  0  0  0
   -9.3085    4.6933   28.2930 C   0  0  0  0  0  0  0  0  0  0  0  0
   -6.9422    2.7756   27.7940 C   0  0  0  0  0  0  0  0  0  0  0  0
   -6.4780    1.5534   27.2632 C   0  0  0  0  0  0  0  0  0  0  0  0
   -5.6090    0.7999   27.9488 C   0  0  0  0  0  0  0  0  0  0  0  0
   -5.6482   -0.5623   27.9153 C   0  0  0  0  0  0  0  0  0  0  0  0
   -6.5135   -1.1479   26.9735 C   0  0  0  0  0  0  0  0  0  0  0  0
  1  2  1  0
  2  3  1  0
  2  4  1  0
  1  5  2  3
  5  6  1  0
  6  7  2  3
  7  8  1  0
  8  9  2  0
M  END
$$$$
