No_6436-complexes_sdf/6BKW-FPZ/2024-09-17-14-21-01/
     RDKit          3D

 31 34  0  0  0  0  0  0  0  0999 V2000
   -7.7129    4.2099   27.0854 C   0  0  0  0  0  0  0  0  0  0  0  0
   -8.2112    3.0637   26.9225 C   0  0  0  0  0  0  0  0  0  0  0  0
   -9.4446    2.8304   26.1868 C   0  0  0  0  0  0  0  0  0  0  0  0
   -8.4697    5.3956   26.7238 C   0  0  0  0  0  0  0  0  0  0  0  0
   -9.6172    5.2111   25.9513 C   0  0  0  0  0  0  0  0  0  0  0  0
  -10.0424    3.9782   25.6873 C   0  0  0  0  0  0  0  0  0  0  0  0
   -7.7142    1.7268   27.3793 C   0  0  0  0  0  0  0  0  0  0  0  0
   -7.0696    0.8698   26.6118 C   0  0  0  0  0  0  0  0  0  0  0  0
   -7.0730   -0.1208   26.9022 C   0  0  0  0  0  0  0  0  0  0  0  0
   -6.1321   -1.0533   26.4514 C   0  0  0  0  0  0  0  0  0  0  0  0
   -7.9439    6.7279   27.0547 C   0  0  0  0  0  0  0  0  0  0  0  0
   -7.0889    6.7807   27.9659 O   0  0  0  0  0  0  0  0  0  0  0  0
   -8.4057    7.8027   26.5720 O   0  0  0  0  0  0  0  0  0  0  0  0
   -6.1271   -2.1022   26.3415 C   0  0  0  0  0  0  0  0  0  0  0  0
   -8.0694   -0.9048   27.7268 C   0  0  0  0  0  0  0  0  0  0  0  0
   -8.0850   -2.2639   27.8149 C   0  0  0  0  0  0  0  0  0  0  0  0
   -7.0409   -2.9503   27.1722 C   0  0  0  0  0  0  0  0  0  0  0  0
  -11.2441    3.8401   24.8206 C   0  0  0  0  0  0  0  0  0  0  0  0
  -12.4640    3.7068   25.2533 C   0  0  0  0  0  0  0  0  0  0  0  0
  -13.5589    3.6786   24.4183 C   0  0  0  0  0  0  0  0  0  0  0  0
  -11.0097    3.8364   23.4080 C   0  0  0  0  0  0  0  0  0  0  0  0
  -11.9951    3.8807   22.5021 C   0  0  0  0  0  0  0  0  0  0  0  0
  -13.2976    3.7822   23.0216 C   0  0  0  0  0  0  0  0  0  0  0  0
   -9.9096    1.7031   25.8921 F   0  0  0  0  0  0  0  0  0  0  0  0
   -9.0507   -2.9504   28.6549 C   0  0  0  0  0  0  0  0  0  0  0  0
   -8.6929   -3.3177   29.8633 C   0  0  0  0  0  0  0  0  0  0  0  0
   -7.3886   -3.0914   30.3571 C   0  0  0  0  0  0  0  0  0  0  0  0
   -7.1067   -3.3287   31.7635 C   0  0  0  0  0  0  0  0  0  0  0  0
   -8.1738   -3.8343   32.5418 C   0  0  0  0  0  0  0  0  0  0  0  0
   -9.4205   -4.0033   32.1073 C   0  0  0  0  0  0  0  0  0  0  0  0
   -9.7096   -3.6823   30.8225 C   0  0  0  0  0  0  0  0  0  0  0  0
  2  7  1  0
  7  8  1  0
  8  9  1  0
  4 11  1  0
 11 12  1  0
 11 13  2  0
  6 18  1  0
  3 24  1  0
 16 25  1  0
 25 26  1  0
 26 27  2  0
 27 28  1  0
 28 29  2  0
 29 30  1  0
 30 31  2  0
 31 26  1  0
  1  2  2  0
  2  3  1  0
  3  6  2  0
  6  5  1  0
  5  4  2  0
  4  1  1  0
  9 10  2  0
 10 14  1  0
 14 17  2  0
 17 16  1  0
 16 15  2  0
 15  9  1  0
 18 19  2  0
 19 20  1  0
 20 23  2  0
 23 22  1  0
 22 21  2  0
 21 18  1  0
M  END
$$$$
