No_6412-complexes_sdf/6BKW-FPZ/2024-09-17-14-21-01/
     RDKit          3D

 25 28  0  0  0  0  0  0  0  0999 V2000
   -7.9040    3.9820   27.1177 C   0  0  0  0  0  0  0  0  0  0  0  0
   -8.2057    2.8231   26.8733 C   0  0  0  0  0  0  0  0  0  0  0  0
   -9.2962    2.4021   26.1155 C   0  0  0  0  0  0  0  0  0  0  0  0
   -8.7358    5.0662   26.5917 C   0  0  0  0  0  0  0  0  0  0  0  0
   -9.7618    4.7023   25.7546 C   0  0  0  0  0  0  0  0  0  0  0  0
  -10.0066    3.4105   25.4922 C   0  0  0  0  0  0  0  0  0  0  0  0
   -8.3943    6.4760   26.8801 C   0  0  0  0  0  0  0  0  0  0  0  0
   -8.0574    7.5061   27.0291 N   0  0  0  0  0  0  0  0  0  0  0  0
   -7.3437    1.6766   27.4898 C   0  0  0  0  0  0  0  0  0  0  0  0
   -5.9994    1.9655   27.8367 C   0  0  0  0  0  0  0  0  0  0  0  0
   -5.1697    0.9109   28.3402 C   0  0  0  0  0  0  0  0  0  0  0  0
   -5.6476   -0.3821   28.3939 C   0  0  0  0  0  0  0  0  0  0  0  0
   -7.6887    0.3331   27.4855 C   0  0  0  0  0  0  0  0  0  0  0  0
   -6.9107   -0.6326   28.0192 C   0  0  0  0  0  0  0  0  0  0  0  0
   -4.7685   -1.4262   28.9860 C   0  0  0  0  0  0  0  0  0  0  0  0
   -3.7316   -1.7011   28.4925 C   0  0  0  0  0  0  0  0  0  0  0  0
   -3.1905   -0.9602   27.2962 C   0  0  0  0  0  0  0  0  0  0  0  0
   -3.5442   -0.3097   26.6194 C   0  0  0  0  0  0  0  0  0  0  0  0
   -3.9926    1.0581   27.1008 C   0  0  0  0  0  0  0  0  0  0  0  0
   -5.4117   -2.0647   30.1888 C   0  0  0  0  0  0  0  0  0  0  0  0
   -4.6010   -2.2785   31.1300 C   0  0  0  0  0  0  0  0  0  0  0  0
   -5.0876   -2.8649   32.3978 C   0  0  0  0  0  0  0  0  0  0  0  0
   -6.4860   -3.1168   32.5103 C   0  0  0  0  0  0  0  0  0  0  0  0
   -7.3165   -2.8111   31.4589 C   0  0  0  0  0  0  0  0  0  0  0  0
   -6.7923   -2.2377   30.3080 C   0  0  0  0  0  0  0  0  0  0  0  0
  4  7  1  0
  7  8  3  0
  2  9  1  0
 12 15  1  0
 15 16  2  0
 16 17  1  0
 17 18  2  0
 11 19  1  0
 18 19  1  0
 15 20  1  0
 20 21  2  0
 21 22  1  0
 22 23  2  0
 23 24  1  0
 24 25  2  0
 25 20  1  0
  1  2  2  0
  2  3  1  0
  3  6  2  0
  6  5  1  0
  5  4  2  0
  4  1  1  0
  9 10  2  0
 10 11  1  0
 11 12  2  0
 12 14  1  0
 14 13  2  0
 13  9  1  0
M  END
$$$$
