No_6881-complexes_sdf/6BKW-FPZ/2024-09-17-14-21-01/
     RDKit          3D

 26 28  0  0  0  0  0  0  0  0999 V2000
   -7.9040    3.9820   27.1177 C   0  0  0  0  0  0  0  0  0  0  0  0
   -9.0711    4.3164   27.0630 C   0  0  2  0  0  0  0  0  0  0  0  0
   -9.8698    3.9665   25.9495 C   0  0  0  0  0  0  0  0  0  0  0  0
   -7.0332    4.5030   28.2025 C   0  0  0  0  0  0  0  0  0  0  0  0
   -9.4357    2.9501   25.1393 C   0  0  0  0  0  0  0  0  0  0  0  0
  -10.2810    2.6266   24.0411 C   0  0  0  0  0  0  0  0  0  0  0  0
   -7.7787    5.4357   28.8257 N   0  0  0  0  0  0  0  0  0  0  0  0
   -9.0362    5.3819   28.0762 C   0  0  0  0  0  0  0  0  0  0  0  0
  -11.2749    3.4805   23.6196 C   0  0  0  0  0  0  0  0  0  0  0  0
  -11.5734    4.4538   24.3623 C   0  0  0  0  0  0  0  0  0  0  0  0
  -10.8795    4.8505   25.5315 C   0  0  0  0  0  0  0  0  0  0  0  0
   -9.8944    1.4187   23.2141 C   0  0  0  0  0  0  0  0  0  0  0  0
   -8.9855    0.5769   23.6572 C   0  0  0  0  0  0  0  0  0  0  0  0
   -8.6664   -0.5819   22.9079 C   0  0  0  0  0  0  0  0  0  0  0  0
   -9.2716   -0.7600   21.6397 C   0  0  0  0  0  0  0  0  0  0  0  0
  -10.1777    0.1829   21.1985 C   0  0  0  0  0  0  0  0  0  0  0  0
  -10.4605    1.2824   21.9847 C   0  0  0  0  0  0  0  0  0  0  0  0
   -5.7705    4.1864   28.4281 N   0  0  0  0  0  0  0  0  0  0  0  0
   -8.9508   -1.9205   20.8158 C   0  0  0  0  0  0  0  0  0  0  0  0
   -9.5834   -3.0032   21.0002 N   0  0  0  0  0  0  0  0  0  0  0  0
  -10.3110   -3.3264   21.8380 C   0  0  0  0  0  0  0  0  0  0  0  0
  -10.4659   -2.8822   22.8757 C   0  0  0  0  0  0  0  0  0  0  0  0
  -11.4792   -3.3800   23.9746 C   0  0  0  0  0  0  0  0  0  0  0  0
  -11.4623   -2.8371   25.2628 C   0  0  0  0  0  0  0  0  0  0  0  0
  -10.5998   -1.7830   25.5908 C   0  0  0  0  0  0  0  0  0  0  0  0
   -9.6334   -1.3685   24.7142 C   0  0  0  0  0  0  0  0  0  0  0  0
  1  2  1  0
  1  4  1  0
  4  7  2  0
  2  8  1  0
  7  8  1  0
  6 12  1  0
  4 18  1  0
 15 19  1  0
 19 20  1  0
 20 21  1  0
 21 22  2  3
 22 23  1  0
 23 24  2  3
 24 25  1  0
 25 26  2  0
  2  3  1  6
 12 13  2  0
 13 14  1  0
 14 15  2  0
 15 16  1  0
 16 17  2  0
 17 12  1  0
  3  5  2  0
  5  6  1  0
  6  9  2  0
  9 10  1  0
 10 11  2  0
 11  3  1  0
M  END
$$$$
