No_6847-complexes_sdf/6BKW-FPZ/2024-09-17-14-21-01/
     RDKit          3D

 32 35  0  0  0  0  0  0  0  0999 V2000
   -7.2496    3.8871   27.4508 C   0  0  0  0  0  0  0  0  0  0  0  0
   -7.9379    4.9063   27.8518 C   0  0  0  0  0  0  0  0  0  0  0  0
   -7.5112    6.1898   27.6280 C   0  0  0  0  0  0  0  0  0  0  0  0
   -9.3085    4.6933   28.2930 C   0  0  0  0  0  0  0  0  0  0  0  0
   -7.7804    2.5137   27.6845 C   0  0  0  0  0  0  0  0  0  0  0  0
   -9.9044    3.4743   28.4314 C   0  0  0  0  0  0  0  0  0  0  0  0
   -9.1503    2.3917   28.0533 C   0  0  0  0  0  0  0  0  0  0  0  0
   -7.0844    1.3249   27.2385 C   0  0  0  0  0  0  0  0  0  0  0  0
   -5.8949    1.1617   27.6864 O   0  0  0  0  0  0  0  0  0  0  0  0
   -5.3716    1.4606   28.5685 C   0  0  0  0  0  0  0  0  0  0  0  0
   -4.1790    0.4681   28.9395 C   0  0  0  0  0  0  0  0  0  0  0  0
   -3.5829   -0.2078   27.9999 C   0  0  0  0  0  0  0  0  0  0  0  0
   -3.8502   -0.0488   26.7310 C   0  0  0  0  0  0  0  0  0  0  0  0
   -3.2451   -0.8376   25.6787 C   0  0  0  0  0  0  0  0  0  0  0  0
   -3.2520   -2.2455   25.8469 C   0  0  0  0  0  0  0  0  0  0  0  0
   -2.8477   -2.9992   24.9210 C   0  0  0  0  0  0  0  0  0  0  0  0
   -3.0656   -4.3498   25.0635 C   0  0  0  0  0  0  0  0  0  0  0  0
   -3.5199   -4.8963   26.2672 C   0  0  0  0  0  0  0  0  0  0  0  0
   -3.9028   -4.0893   27.2516 C   0  0  0  0  0  0  0  0  0  0  0  0
   -3.8410   -2.7079   27.1275 C   0  0  0  0  0  0  0  0  0  0  0  0
   -2.1497   -0.5601   28.4199 C   0  0  0  0  0  0  0  0  0  0  0  0
  -11.2948    3.3219   28.8557 C   0  0  0  0  0  0  0  0  0  0  0  0
  -12.3178    3.2560   28.0120 N   0  0  0  0  0  0  0  0  0  0  0  0
  -12.3599    3.5741   26.9043 C   0  0  0  0  0  0  0  0  0  0  0  0
  -13.5534    3.6960   26.0960 C   0  0  0  0  0  0  0  0  0  0  0  0
  -13.6062    2.6824   28.5232 C   0  0  0  0  0  0  0  0  0  0  0  0
  -14.7474    2.7784   27.8755 C   0  0  0  0  0  0  0  0  0  0  0  0
  -14.7083    3.2880   26.5914 C   0  0  0  0  0  0  0  0  0  0  0  0
   -8.2573    7.2129   27.1152 N   0  0  0  0  0  0  0  0  0  0  0  0
   -2.0076   -1.0328   29.7963 C   0  0  0  0  0  0  0  0  0  0  0  0
   -2.8673   -0.4077   30.7931 C   0  0  0  0  0  0  0  0  0  0  0  0
   -3.8563    0.3748   30.4171 C   0  0  0  0  0  0  0  0  0  0  0  0
  2  3  1  0
  5  8  1  0
  8  9  1  0
  9 10  1  0
 13 14  1  0
  6 22  1  0
 22 23  1  0
 23 24  1  0
 23 26  1  0
 25 28  1  0
 27 28  1  0
  3 29  1  0
 13 12  1  0
 14 15  1  0
 10 11  1  0
 24 25  1  0
 27 26  1  0
 15 16  2  0
 16 17  1  0
 17 18  2  0
 18 19  1  0
 19 20  2  0
 20 15  1  0
  1  2  2  0
  2  4  1  0
  4  6  2  0
  6  7  1  0
  7  5  2  0
  5  1  1  0
 11 12  1  0
 12 21  2  0
 21 30  1  0
 30 31  2  0
 31 32  1  0
 32 11  2  0
M  END
$$$$
