No_6203-complexes_sdf/6BKW-FPZ/2024-09-17-14-21-01/
     RDKit          3D

 22 24  0  0  0  0  0  0  0  0999 V2000
   -7.9040    3.9820   27.1177 C   0  0  0  0  0  0  0  0  0  0  0  0
   -9.0711    4.3164   27.0630 C   0  0  0  0  0  0  0  0  0  0  0  0
   -9.5182    5.5541   27.5777 C   0  0  0  0  0  0  0  0  0  0  0  0
   -6.9424    4.7983   27.8424 C   0  0  0  0  0  0  0  0  0  0  0  0
   -7.3526    5.9739   28.3909 C   0  0  0  0  0  0  0  0  0  0  0  0
   -8.6479    6.3742   28.2169 C   0  0  0  0  0  0  0  0  0  0  0  0
  -10.0793    3.4689   26.3368 C   0  0  0  0  0  0  0  0  0  0  0  0
   -9.6567    2.5965   25.4484 C   0  0  0  0  0  0  0  0  0  0  0  0
  -10.5086    1.8159   24.6228 C   0  0  0  0  0  0  0  0  0  0  0  0
  -11.8698    2.1070   24.6818 C   0  0  0  0  0  0  0  0  0  0  0  0
  -11.4792    3.7192   26.2197 C   0  0  0  0  0  0  0  0  0  0  0  0
  -12.3318    3.0883   25.5323 C   0  0  0  0  0  0  0  0  0  0  0  0
   -9.9717    0.7869   23.7393 C   0  0  0  0  0  0  0  0  0  0  0  0
   -9.0596   -0.0645   24.1392 C   0  0  0  0  0  0  0  0  0  0  0  0
   -8.3832   -0.8907   23.2086 C   0  0  0  0  0  0  0  0  0  0  0  0
   -7.2556   -1.7215   23.5183 C   0  0  0  0  0  0  0  0  0  0  0  0
   -6.7658   -1.6641   24.8280 C   0  0  0  0  0  0  0  0  0  0  0  0
   -7.3869   -0.8266   25.7562 C   0  0  0  0  0  0  0  0  0  0  0  0
   -8.4025   -0.0230   25.4729 C   0  0  0  0  0  0  0  0  0  0  0  0
  -10.4988    0.7341   22.4297 C   0  0  0  0  0  0  0  0  0  0  0  0
  -11.7249    1.0923   22.3476 F   0  0  0  0  0  0  0  0  0  0  0  0
  -10.2832   -0.4670   21.9080 F   0  0  0  0  0  0  0  0  0  0  0  0
  2  7  1  0
  9 13  1  0
 13 14  1  0
 13 20  1  0
 20 21  1  0
 20 22  1  0
  7  8  2  0
  8  9  1  0
  9 10  2  0
 10 12  1  0
 12 11  2  0
 11  7  1  0
 14 15  2  0
 15 16  1  0
 16 17  2  0
 17 18  1  0
 18 19  2  0
 19 14  1  0
  1  2  2  0
  2  3  1  0
  3  6  2  0
  6  5  1  0
  5  4  2  0
  4  1  1  0
M  END
$$$$
