No_6424-complexes_sdf/6BKW-FPZ/2024-09-17-14-21-01/
     RDKit          3D

 24 26  0  0  0  0  0  0  0  0999 V2000
   -7.7129    4.2099   27.0854 C   0  0  0  0  0  0  0  0  0  0  0  0
   -8.9133    4.4736   27.0998 C   0  0  0  0  0  0  0  0  0  0  0  0
   -9.7937    3.7367   26.2091 C   0  0  0  0  0  0  0  0  0  0  0  0
   -6.8266    5.0441   28.0594 C   0  0  0  0  0  0  0  0  0  0  0  0
  -11.0884    4.1572   25.9278 C   0  0  0  0  0  0  0  0  0  0  0  0
  -11.6770    4.9422   26.9825 C   0  0  0  0  0  0  0  0  0  0  0  0
  -10.9362    5.5084   27.9806 C   0  0  0  0  0  0  0  0  0  0  0  0
   -9.5453    5.3326   28.0614 C   0  0  0  0  0  0  0  0  0  0  0  0
  -11.9312    3.5037   24.9551 C   0  0  2  0  0  0  0  0  0  0  0  0
  -11.8011    4.0626   23.6354 C   0  0  0  0  0  0  0  0  0  0  0  0
  -11.1730    3.5789   22.8831 C   0  0  0  0  0  0  0  0  0  0  0  0
  -11.0229    4.2634   21.4772 C   0  0  0  0  0  0  0  0  0  0  0  0
  -10.0813    3.7505   20.5702 C   0  0  0  0  0  0  0  0  0  0  0  0
   -9.3831    2.5630   20.8750 C   0  0  0  0  0  0  0  0  0  0  0  0
   -9.4962    1.9999   22.1513 C   0  0  0  0  0  0  0  0  0  0  0  0
  -10.2846    2.4875   23.0701 C   0  0  0  0  0  0  0  0  0  0  0  0
  -12.8121    2.5116   25.2088 C   0  0  1  0  0  0  0  0  0  0  0  0
  -12.5715    1.5004   25.9859 N   0  0  0  0  0  0  0  0  0  0  0  0
  -13.2845    0.4608   26.2152 C   0  0  0  0  0  0  0  0  0  0  0  0
  -14.4077    2.7679   24.9565 Cl  0  0  0  0  0  0  0  0  0  0  0  0
  -12.7673   -0.6046   26.7580 C   0  0  0  0  0  0  0  0  0  0  0  0
  -11.7682   -0.7278   27.0502 C   0  0  0  0  0  0  0  0  0  0  0  0
  -10.7360    0.3964   26.9700 C   0  0  0  0  0  0  0  0  0  0  0  0
  -11.1823    1.5127   26.3769 C   0  0  0  0  0  0  0  0  0  0  0  0
  1  4  1  0
  5  9  1  0
  9 10  1  1
  9 17  1  0
 17 18  1  0
 18 19  1  0
 17 20  1  1
 21 22  1  0
 18 24  1  0
 23 24  1  0
  1  2  1  0
 10 11  1  0
 19 21  1  0
 22 23  1  0
 11 12  2  0
 12 13  1  0
 13 14  2  0
 14 15  1  0
 15 16  2  0
 16 11  1  0
  2  3  2  0
  3  5  1  0
  5  6  2  0
  6  7  1  0
  7  8  2  0
  8  2  1  0
M  END
$$$$
