No_6756-complexes_sdf/6BKW-FPZ/2024-09-17-14-21-01/
     RDKit          3D

 36 39  0  0  0  0  0  0  0  0999 V2000
   -7.2496    3.8871   27.4508 C   0  0  0  0  0  0  0  0  0  0  0  0
   -7.9379    4.9063   27.8518 C   0  0  0  0  0  0  0  0  0  0  0  0
   -7.4895    6.2027   27.7481 C   0  0  0  0  0  0  0  0  0  0  0  0
   -7.4700    2.5429   27.5231 C   0  0  0  0  0  0  0  0  0  0  0  0
   -8.8176    2.1756   27.8084 C   0  0  0  0  0  0  0  0  0  0  0  0
   -9.7372    3.2213   28.0689 C   0  0  0  0  0  0  0  0  0  0  0  0
   -9.3485    4.7065   28.1560 C   0  0  0  0  0  0  0  0  0  0  0  0
   -6.4129    1.3338   27.0657 Cl  0  0  0  0  0  0  0  0  0  0  0  0
  -11.1334    2.8790   28.4207 C   0  0  0  0  0  0  0  0  0  0  0  0
  -11.5695    1.6237   28.4023 C   0  0  0  0  0  0  0  0  0  0  0  0
  -12.8942    1.2818   28.8093 C   0  0  0  0  0  0  0  0  0  0  0  0
  -13.7107    2.3487   29.2823 C   0  0  0  0  0  0  0  0  0  0  0  0
  -13.2890    3.6330   29.2938 C   0  0  0  0  0  0  0  0  0  0  0  0
  -12.0132    3.9619   28.9160 C   0  0  0  0  0  0  0  0  0  0  0  0
   -7.6558    7.3335   27.0850 N   0  0  0  0  0  0  0  0  0  0  0  0
   -8.7078    7.2788   26.2307 C   0  0  0  0  0  0  0  0  0  0  0  0
  -15.1353    2.0013   29.6768 C   0  0  0  0  0  0  0  0  0  0  0  0
  -15.7220    1.1924   29.4447 O   0  0  0  0  0  0  0  0  0  0  0  0
  -15.7044    2.9649   30.5549 O   0  0  0  0  0  0  0  0  0  0  0  0
  -16.8784    2.9847   30.9459 C   0  0  1  0  0  0  0  0  0  0  0  0
  -17.2193    2.5334   32.2056 C   0  0  0  0  0  0  0  0  0  0  0  0
  -16.2779    2.7428   33.1678 C   0  0  0  0  0  0  0  0  0  0  0  0
  -16.0137    1.8682   33.9406 C   0  0  0  0  0  0  0  0  0  0  0  0
  -15.0794    1.4612   34.4479 C   0  0  0  0  0  0  0  0  0  0  0  0
  -13.8240    2.3885   34.5643 C   0  0  0  0  0  0  0  0  0  0  0  0
  -14.0492    3.5438   33.7707 C   0  0  0  0  0  0  0  0  0  0  0  0
  -15.2051    3.6926   33.0594 C   0  0  0  0  0  0  0  0  0  0  0  0
  -12.6384    2.1745   35.3230 C   0  0  0  0  0  0  0  0  0  0  0  0
  -11.6431    2.7667   35.0339 O   0  0  0  0  0  0  0  0  0  0  0  0
  -12.7300    1.5700   36.4983 O   0  0  0  0  0  0  0  0  0  0  0  0
  -17.7792    3.5677   30.0373 C   0  0  0  0  0  0  0  0  0  0  0  0
  -18.9283    3.1337   29.9146 C   0  0  0  0  0  0  0  0  0  0  0  0
  -19.8349    3.6648   28.9706 C   0  0  0  0  0  0  0  0  0  0  0  0
  -17.5651    4.8718   29.4823 C   0  0  0  0  0  0  0  0  0  0  0  0
  -18.3247    5.5368   28.6369 C   0  0  0  0  0  0  0  0  0  0  0  0
  -19.5540    4.8918   28.3994 C   0  0  0  0  0  0  0  0  0  0  0  0
  2  3  1  0
  4  8  1  0
  6  9  1  0
  3 15  2  3
 15 16  1  0
 12 17  1  0
 17 18  2  0
 17 19  1  0
 19 20  1  0
 20 21  1  1
 21 22  1  0
 25 28  1  0
 28 29  2  0
 28 30  1  0
 20 31  1  0
 31 32  2  0
 32 33  1  0
 33 36  2  0
 36 35  1  0
 35 34  2  0
 34 31  1  0
 22 23  2  0
 23 24  1  0
 24 25  2  0
 25 26  1  0
 26 27  2  0
 27 22  1  0
  1  2  2  0
  2  7  1  0
  7  6  2  0
  6  5  1  0
  5  4  2  0
  4  1  1  0
  9 10  2  0
 10 11  1  0
 11 12  2  0
 12 13  1  0
 13 14  2  0
 14  9  1  0
M  END
$$$$
