No_6663-complexes_sdf/6BKW-FPZ/2024-09-17-14-21-01/
     RDKit          3D

 31 34  0  0  0  0  0  0  0  0999 V2000
   -7.7129    4.2099   27.0854 C   0  0  0  0  0  0  0  0  0  0  0  0
   -8.2112    3.0637   26.9225 C   0  0  0  0  0  0  0  0  0  0  0  0
   -8.5108    5.3904   26.9436 C   0  0  0  0  0  0  0  0  0  0  0  0
   -9.7256    5.1955   26.3518 C   0  0  0  0  0  0  0  0  0  0  0  0
   -9.4995    2.8258   26.4878 C   0  0  0  0  0  0  0  0  0  0  0  0
  -10.2542    3.9691   26.2055 C   0  0  0  0  0  0  0  0  0  0  0  0
   -7.9135    6.7086   27.1885 C   0  0  0  0  0  0  0  0  0  0  0  0
   -7.3624    1.8198   27.2561 C   0  0  0  0  0  0  0  0  0  0  0  0
   -7.8317    0.5143   27.1524 C   0  0  0  0  0  0  0  0  0  0  0  0
   -6.9670   -0.5025   27.3942 C   0  0  0  0  0  0  0  0  0  0  0  0
   -5.6379   -0.2379   27.7804 C   0  0  0  0  0  0  0  0  0  0  0  0
   -4.6889   -1.2784   28.0610 C   0  0  0  0  0  0  0  0  0  0  0  0
   -5.1943    1.0886   27.9290 C   0  0  0  0  0  0  0  0  0  0  0  0
   -5.9679    2.0753   27.6374 C   0  0  0  0  0  0  0  0  0  0  0  0
   -4.7222   -2.2973   28.0711 O   0  0  0  0  0  0  0  0  0  0  0  0
   -3.3447   -0.7767   28.2899 O   0  0  0  0  0  0  0  0  0  0  0  0
   -8.6002    7.8087   26.8171 N   0  0  0  0  0  0  0  0  0  0  0  0
   -6.9855    6.8594   28.0887 O   0  0  0  0  0  0  0  0  0  0  0  0
   -2.4282   -1.4503   28.5204 C   0  0  0  0  0  0  0  0  0  0  0  0
   -1.8091   -1.2829   29.7023 C   0  0  0  0  0  0  0  0  0  0  0  0
   -0.6913   -2.1329   30.0735 C   0  0  0  0  0  0  0  0  0  0  0  0
   -0.0968   -2.8904   29.0888 C   0  0  0  0  0  0  0  0  0  0  0  0
   -1.5576   -2.3248   27.8275 C   0  0  0  0  0  0  0  0  0  0  0  0
   -0.6116   -2.9742   27.9058 C   0  0  0  0  0  0  0  0  0  0  0  0
   -2.3244   -0.4603   30.7165 O   0  0  0  0  0  0  0  0  0  0  0  0
   -3.4079   -0.7601   31.5810 C   0  0  0  0  0  0  0  0  0  0  0  0
   -2.9487   -1.1751   32.7333 C   0  0  0  0  0  0  0  0  0  0  0  0
   -3.9490   -1.3896   33.7704 C   0  0  0  0  0  0  0  0  0  0  0  0
   -5.3118   -1.2494   33.3868 C   0  0  0  0  0  0  0  0  0  0  0  0
   -5.6755   -0.7863   32.1597 C   0  0  0  0  0  0  0  0  0  0  0  0
   -4.6548   -0.5309   31.2456 C   0  0  0  0  0  0  0  0  0  0  0  0
  3  7  1  0
  2  8  1  0
 11 12  1  0
 12 15  2  0
 12 16  1  0
  7 17  2  0
  7 18  1  0
 16 19  1  0
 20 25  1  0
 25 26  1  0
 26 27  2  0
 27 28  1  0
 28 29  2  0
 29 30  1  0
 30 31  2  0
 31 26  1  0
  8  9  2  0
  9 10  1  0
 10 11  2  0
 11 13  1  0
 13 14  2  0
 14  8  1  0
  1  2  2  0
  2  5  1  0
  5  6  2  0
  6  4  1  0
  4  3  2  0
  3  1  1  0
 19 20  1  0
 20 21  2  0
 21 22  1  0
 22 24  2  0
 24 23  1  0
 23 19  2  0
M  END
$$$$
