No_6618-complexes_sdf/6BKW-FPZ/2024-09-17-14-21-01/
     RDKit          3D

 27 32  0  0  0  0  0  0  0  0999 V2000
   -7.9040    3.9820   27.1177 C   0  0  0  0  0  0  0  0  0  0  0  0
   -7.8663    4.8694   27.9238 C   0  0  0  0  0  0  0  0  0  0  0  0
   -7.4698    2.6989   27.4277 C   0  0  2  0  0  0  0  0  0  0  0  0
   -6.1691    2.6024   27.7920 C   0  0  0  0  0  0  0  0  0  0  0  0
   -8.5251    6.1376   27.6596 C   0  0  0  0  0  0  0  0  0  0  0  0
   -8.9724    4.1320   26.1724 C   0  0  0  0  0  0  0  0  0  0  0  0
   -9.4178    2.9911   25.3255 C   0  0  0  0  0  0  0  0  0  0  0  0
   -9.6341    5.3153   25.9061 C   0  0  0  0  0  0  0  0  0  0  0  0
   -9.3516    6.4126   26.6976 C   0  0  0  0  0  0  0  0  0  0  0  0
   -5.4975    1.3211   27.9585 C   0  0  0  0  0  0  0  0  0  0  0  0
   -4.1519    1.2663   28.4817 C   0  0  0  0  0  0  0  0  0  0  0  0
   -6.0195    0.1824   27.2482 C   0  0  0  0  0  0  0  0  0  0  0  0
   -3.5340    0.0585   28.7572 C   0  0  0  0  0  0  0  0  0  0  0  0
   -5.2918   -1.0646   27.4861 C   0  0  0  0  0  0  0  0  0  0  0  0
   -4.0667   -1.0919   28.1970 C   0  0  0  0  0  0  0  0  0  0  0  0
   -9.7896    3.0425   24.1739 C   0  0  0  0  0  0  0  0  0  0  0  0
   -8.7289    1.7888   25.7814 C   0  0  0  0  0  0  0  0  0  0  0  0
   -9.1818    0.5758   25.1273 C   0  0  0  0  0  0  0  0  0  0  0  0
   -7.9020    1.7071   26.8677 C   0  0  1  0  0  0  0  0  0  0  0  0
   -7.2620    0.2701   26.7955 N   0  0  0  0  0  0  0  0  0  0  0  0
   -9.9237    0.6907   23.9862 C   0  0  0  0  0  0  0  0  0  0  0  0
  -10.2992    1.9506   23.5457 C   0  0  0  0  0  0  0  0  0  0  0  0
   -7.9751   -0.8151   26.3906 C   0  0  0  0  0  0  0  0  0  0  0  0
   -8.7483   -0.5911   25.4179 O   0  0  0  0  0  0  0  0  0  0  0  0
  -11.1298    2.1182   22.3072 C   0  0  0  0  0  0  0  0  0  0  0  0
  -12.1822    2.6155   22.4171 O   0  0  0  0  0  0  0  0  0  0  0  0
  -10.6932    1.5744   21.1983 O   0  0  0  0  0  0  0  0  0  0  0  0
  1  3  1  0
  6  7  1  0
  4 10  1  0
  3 19  1  0
 17 19  1  0
 12 20  1  0
 19 20  1  6
 20 23  1  0
 18 24  1  0
 23 24  1  0
 22 25  1  0
 25 26  2  0
 25 27  1  0
  3  4  1  6
  7 16  2  0
 16 22  1  0
 22 21  2  0
 21 18  1  0
 18 17  2  0
 17  7  1  0
  1  2  2  0
  2  5  1  0
  5  9  2  0
  9  8  1  0
  8  6  2  0
  6  1  1  0
 10 11  2  0
 11 13  1  0
 13 15  2  0
 15 14  1  0
 14 12  2  0
 12 10  1  0
M  END
$$$$
