No_6952-complexes_sdf/6BKW-FPZ/2024-09-17-14-21-01/
     RDKit          3D

 16 16  0  0  0  0  0  0  0  0999 V2000
   -7.7129    4.2099   27.0854 C   0  0  0  0  0  0  0  0  0  0  0  0
   -8.2112    3.0637   26.9225 C   0  0  0  0  0  0  0  0  0  0  0  0
   -8.5108    5.3904   26.9436 C   0  0  0  0  0  0  0  0  0  0  0  0
   -7.9752    6.6981   27.2112 C   0  0  0  0  0  0  0  0  0  0  0  0
   -9.5213    2.8208   26.4688 C   0  0  0  0  0  0  0  0  0  0  0  0
  -10.2979    3.9327   26.2378 C   0  0  0  0  0  0  0  0  0  0  0  0
   -9.7894    5.2123   26.4395 C   0  0  0  0  0  0  0  0  0  0  0  0
   -7.5808    1.7032   27.1517 C   0  0  2  0  0  0  0  0  0  0  0  0
   -6.5836    1.9259   27.9645 F   0  0  0  0  0  0  0  0  0  0  0  0
   -7.4164    0.7873   26.0639 C   0  0  0  0  0  0  0  0  0  0  0  0
   -8.6157    7.8110   26.8128 N   0  0  0  0  0  0  0  0  0  0  0  0
   -6.8355    6.7864   27.7904 O   0  0  0  0  0  0  0  0  0  0  0  0
   -8.3436    0.5382   25.3608 N   0  0  0  0  0  0  0  0  0  0  0  0
   -8.1813   -0.3988   24.3388 C   0  0  0  0  0  0  0  0  0  0  0  0
   -7.0918   -1.1516   24.4207 C   0  0  0  0  0  0  0  0  0  0  0  0
   -6.0739   -0.9699   25.3869 C   0  0  0  0  0  0  0  0  0  0  0  0
  3  4  1  0
  2  8  1  0
  8  9  1  6
  8 10  1  0
  4 11  1  0
  4 12  2  0
 10 13  2  3
 13 14  1  0
 14 15  1  0
 15 16  2  0
  1  2  2  0
  2  5  1  0
  5  6  2  0
  6  7  1  0
  7  3  2  0
  3  1  1  0
M  END
$$$$
