No_6800-complexes_sdf/6BKW-FPZ/2024-09-17-14-21-01/
     RDKit          3D

 21 23  0  0  0  0  0  0  0  0999 V2000
   -7.7129    4.2099   27.0854 C   0  0  0  0  0  0  0  0  0  0  0  0
   -7.7814    5.1722   27.8972 C   0  0  0  0  0  0  0  0  0  0  0  0
   -7.2983    2.9533   27.5684 C   0  0  0  0  0  0  0  0  0  0  0  0
   -7.6908    1.8111   26.9553 C   0  0  1  0  0  0  0  0  0  0  0  0
   -8.6533    1.9165   25.9430 C   0  0  2  0  0  0  0  0  0  0  0  0
   -9.2376    3.0581   25.6387 C   0  0  0  0  0  0  0  0  0  0  0  0
   -8.8901    4.1760   26.2867 C   0  0  0  0  0  0  0  0  0  0  0  0
   -8.3432    6.4292   27.5920 N   0  0  0  0  0  0  0  0  0  0  0  0
  -10.2443    3.1171   24.5317 C   0  0  0  0  0  0  0  0  0  0  0  0
   -9.3995    5.3793   25.9689 N   0  0  0  0  0  0  0  0  0  0  0  0
   -9.1786    6.5176   26.6169 C   0  0  0  0  0  0  0  0  0  0  0  0
  -11.1721    2.7528   24.7624 C   0  0  0  0  0  0  0  0  0  0  0  0
  -12.2748    2.7968   23.6886 C   0  0  0  0  0  0  0  0  0  0  0  0
  -11.9610    3.4346   22.5126 C   0  0  0  0  0  0  0  0  0  0  0  0
  -10.6808    3.9842   22.3302 C   0  0  0  0  0  0  0  0  0  0  0  0
   -9.7720    3.9142   23.4049 C   0  0  0  0  0  0  0  0  0  0  0  0
   -7.0347    0.5043   27.2525 C   0  0  0  0  0  0  0  0  0  0  0  0
   -7.5875   -0.6839   27.0129 C   0  0  0  0  0  0  0  0  0  0  0  0
   -8.6454   -0.9013   26.6928 C   0  0  0  0  0  0  0  0  0  0  0  0
   -9.0734   -2.3352   26.5880 C   0  0  0  0  0  0  0  0  0  0  0  0
   -9.3125    0.6632   25.5033 C   0  0  0  0  0  0  0  0  0  0  0  0
  1  3  1  0
  3  4  1  0
  4  5  1  0
  5  6  1  0
  6  7  1  0
  6  9  1  0
  4 17  1  6
 17 18  1  0
 18 19  2  3
 19 20  1  0
  5 21  1  1
  9 12  2  0
 12 13  1  0
 13 14  2  0
 14 15  1  0
 15 16  2  0
 16  9  1  0
  1  2  2  0
  2  8  1  0
  8 11  2  0
 11 10  1  0
 10  7  2  0
  7  1  1  0
M  END
$$$$
