No_6468-complexes_sdf/6BKW-FPZ/2024-09-17-14-21-01/
     RDKit          3D

 13 13  0  0  0  0  0  0  0  0999 V2000
   -7.9040    3.9820   27.1177 C   0  0  0  0  0  0  0  0  0  0  0  0
   -7.8663    4.8694   27.9238 C   0  0  0  0  0  0  0  0  0  0  0  0
   -9.0491    3.8523   26.2542 C   0  0  0  0  0  0  0  0  0  0  0  0
   -9.7161    4.8785   25.9890 C   0  0  0  0  0  0  0  0  0  0  0  0
   -8.5086    6.0982   27.7096 C   0  0  0  0  0  0  0  0  0  0  0  0
   -9.5239    6.1123   26.7949 C   0  0  0  0  0  0  0  0  0  0  0  0
   -7.1478    2.4520   27.3464 Cl  0  0  0  0  0  0  0  0  0  0  0  0
   -9.2195    2.6197   25.3881 C   0  0  0  0  0  0  0  0  0  0  0  0
   -8.9710    1.4310   25.8428 C   0  0  0  0  0  0  0  0  0  0  0  0
   -9.3265    0.2517   25.1481 C   0  0  0  0  0  0  0  0  0  0  0  0
   -9.0364   -1.0185   25.6426 C   0  0  0  0  0  0  0  0  0  0  0  0
   -8.3572   -1.0567   26.8945 C   0  0  0  0  0  0  0  0  0  0  0  0
   -8.0274    0.0323   27.6099 C   0  0  0  0  0  0  0  0  0  0  0  0
  1  7  1  0
  3  8  1  0
  8  9  2  3
  9 10  1  0
 10 11  2  3
 11 12  1  0
 12 13  2  0
  1  2  2  0
  2  5  1  0
  5  6  2  0
  6  4  1  0
  4  3  2  0
  3  1  1  0
M  END
$$$$
