No_6771-complexes_sdf/6BKW-FPZ/2024-09-17-14-21-01/
     RDKit          3D

 15 17  0  0  0  0  0  0  0  0999 V2000
   -7.9040    3.9820   27.1177 C   0  0  0  0  0  0  0  0  0  0  0  0
   -8.2057    2.8231   26.8733 C   0  0  0  0  0  0  0  0  0  0  0  0
   -7.0130    4.3706   28.1140 C   0  0  0  0  0  0  0  0  0  0  0  0
   -9.3829    2.4374   26.1668 C   0  0  0  0  0  0  0  0  0  0  0  0
  -10.0975    3.4171   25.5988 C   0  0  0  0  0  0  0  0  0  0  0  0
   -9.7335    4.7745   25.7705 C   0  0  0  0  0  0  0  0  0  0  0  0
   -8.7317    5.1107   26.5933 C   0  0  0  0  0  0  0  0  0  0  0  0
   -8.6354    6.4981   26.8551 C   0  0  0  0  0  0  0  0  0  0  0  0
   -9.3934    7.4532   26.7717 N   0  0  0  0  0  0  0  0  0  0  0  0
   -7.4664    6.8174   27.7265 N   0  0  0  0  0  0  0  0  0  0  0  0
   -6.8209    5.7641   28.3455 C   0  0  0  0  0  0  0  0  0  0  0  0
   -7.4129    1.6493   27.4503 C   0  0  0  0  0  0  0  0  0  0  0  0
   -7.7674    0.3017   27.2008 C   0  0  0  0  0  0  0  0  0  0  0  0
   -8.9733    0.1325   26.4923 C   0  0  0  0  0  0  0  0  0  0  0  0
   -9.7355    1.1225   25.9079 C   0  0  0  0  0  0  0  0  0  0  0  0
  9  8  1  0
  4 15  2  0
 15 14  1  0
 14 13  2  0
 13 12  1  0
 12  2  2  0
  1  3  2  0
  3 11  1  0
 11 10  2  0
 10  8  1  0
  8  7  2  0
  1  2  1  0
  2  4  1  0
  4  5  1  0
  5  6  2  0
  6  7  1  0
  7  1  1  0
M  END
$$$$
