No_6254-complexes_sdf/6BKW-FPZ/2024-09-17-14-21-01/
     RDKit          3D

 16 18  0  0  0  0  0  0  0  0999 V2000
   -7.9040    3.9820   27.1177 C   0  0  0  0  0  0  0  0  0  0  0  0
   -7.8663    4.8694   27.9238 C   0  0  0  0  0  0  0  0  0  0  0  0
   -9.0953    3.1697   27.0532 C   0  0  0  0  0  0  0  0  0  0  0  0
  -10.1313    3.4052   27.8871 C   0  0  0  0  0  0  0  0  0  0  0  0
  -10.1178    4.5885   28.6885 C   0  0  0  0  0  0  0  0  0  0  0  0
   -8.9412    5.2994   28.7548 C   0  0  0  0  0  0  0  0  0  0  0  0
   -9.0660    1.9572   26.1818 C   0  0  0  0  0  0  0  0  0  0  0  0
   -9.7644    1.1443   26.4615 C   0  0  0  0  0  0  0  0  0  0  0  0
  -10.9713    1.2925   27.3345 C   0  0  0  0  0  0  0  0  0  0  0  0
  -11.1154    2.4197   28.0577 C   0  0  1  0  0  0  0  0  0  0  0  0
  -12.0600    2.5217   28.9518 F   0  0  0  0  0  0  0  0  0  0  0  0
   -9.8141   -0.2065   25.6376 C   0  0  0  0  0  0  0  0  0  0  0  0
   -8.8658   -0.5937   25.0552 C   0  0  0  0  0  0  0  0  0  0  0  0
   -7.6454    0.1946   25.1921 C   0  0  0  0  0  0  0  0  0  0  0  0
   -7.7744    1.5427   25.6805 C   0  0  0  0  0  0  0  0  0  0  0  0
  -11.8437    0.2972   27.4843 O   0  0  0  0  0  0  0  0  0  0  0  0
  3  7  1  0
  8  9  1  0
  4 10  1  0
  9 10  1  0
 10 11  1  1
  9 16  2  0
  1  2  2  0
  2  6  1  0
  6  5  2  0
  5  4  1  0
  4  3  2  0
  3  1  1  0
  7 15  2  0
 15 14  1  0
 14 13  2  0
 13 12  1  0
 12  8  2  0
  8  7  1  0
M  END
$$$$
