No_6348-complexes_sdf/6BKW-FPZ/2024-09-17-14-21-01/
     RDKit          3D

 31 36  0  0  0  0  0  0  0  0999 V2000
   -7.9040    3.9820   27.1177 C   0  0  0  0  0  0  0  0  0  0  0  0
   -7.8663    4.8694   27.9238 C   0  0  0  0  0  0  0  0  0  0  0  0
   -9.0491    3.8523   26.2542 C   0  0  0  0  0  0  0  0  0  0  0  0
   -8.7661    5.9491   27.9690 C   0  0  0  0  0  0  0  0  0  0  0  0
   -9.9295    4.8502   26.2323 C   0  0  0  0  0  0  0  0  0  0  0  0
   -9.8077    5.9288   27.0933 C   0  0  0  0  0  0  0  0  0  0  0  0
   -7.0120    2.8934   27.1747 N   0  0  0  0  0  0  0  0  0  0  0  0
   -7.2911    1.5905   26.8161 C   0  0  0  0  0  0  0  0  0  0  0  0
   -6.3069    0.6382   27.1886 C   0  0  0  0  0  0  0  0  0  0  0  0
   -6.4807   -0.7081   27.0199 C   0  0  0  0  0  0  0  0  0  0  0  0
   -7.7240   -1.0827   26.4388 C   0  0  0  0  0  0  0  0  0  0  0  0
   -8.7130   -0.1865   26.1634 C   0  0  0  0  0  0  0  0  0  0  0  0
   -8.4880    1.1779   26.4202 C   0  0  0  0  0  0  0  0  0  0  0  0
   -9.3140    2.4942   25.6643 C   0  0  0  0  0  0  0  0  0  0  0  0
  -10.1775    2.2441   24.6840 C   0  0  0  0  0  0  0  0  0  0  0  0
  -11.4825    2.5241   24.8245 C   0  0  0  0  0  0  0  0  0  0  0  0
   -9.6624    1.7520   23.4581 C   0  0  0  0  0  0  0  0  0  0  0  0
  -10.3599    1.6755   22.3054 C   0  0  0  0  0  0  0  0  0  0  0  0
  -12.3167    2.4517   23.6148 C   0  0  0  0  0  0  0  0  0  0  0  0
  -11.7417    2.0007   22.4018 C   0  0  0  0  0  0  0  0  0  0  0  0
  -10.0164   -0.6174   25.6376 C   0  0  0  0  0  0  0  0  0  0  0  0
  -10.5074   -1.6527   26.3963 C   0  0  0  0  0  0  0  0  0  0  0  0
  -11.8409   -1.7505   26.3940 C   0  0  0  0  0  0  0  0  0  0  0  0
  -12.4998   -2.4383   27.4070 C   0  0  0  0  0  0  0  0  0  0  0  0
  -11.7001   -3.2224   28.2931 C   0  0  0  0  0  0  0  0  0  0  0  0
  -10.3440   -3.1221   28.2911 C   0  0  0  0  0  0  0  0  0  0  0  0
   -9.7640   -2.2732   27.4385 C   0  0  0  0  0  0  0  0  0  0  0  0
   -7.6438   -2.1922   25.4566 C   0  0  0  0  0  0  0  0  0  0  0  0
   -6.5827   -2.1545   24.6447 C   0  0  0  0  0  0  0  0  0  0  0  0
   -5.4658   -1.5331   24.9954 C   0  0  0  0  0  0  0  0  0  0  0  0
   -5.2601   -1.0395   26.3233 C   0  0  0  0  0  0  0  0  0  0  0  0
 14 15  1  0
 12 21  1  0
 21 22  1  0
 11 28  1  0
 28 29  2  0
 29 30  1  0
 30 31  2  0
 31 10  1  0
 15 16  2  0
 16 19  1  0
 19 20  2  0
 20 18  1  0
 18 17  2  0
 17 15  1  0
 22 23  2  0
 23 24  1  0
 24 25  2  0
 25 26  1  0
 26 27  2  0
 27 22  1  0
  3 14  1  0
 14 13  2  0
  8  7  2  0
  7  1  1  0
  1  2  2  0
  2  4  1  0
  4  6  2  0
  6  5  1  0
  5  3  2  0
  3  1  1  0
  8  9  1  0
  9 10  2  0
 10 11  1  0
 11 12  2  0
 12 13  1  0
 13  8  1  0
M  END
$$$$
