No_6511-complexes_sdf/6BKW-FPZ/2024-09-17-14-21-01/
     RDKit          3D

 33 37  0  0  0  0  0  0  0  0999 V2000
   -7.7129    4.2099   27.0854 C   0  0  0  0  0  0  0  0  0  0  0  0
   -8.9133    4.4736   27.0998 C   0  0  0  0  0  0  0  0  0  0  0  0
   -9.4643    5.5426   27.7628 C   0  0  0  0  0  0  0  0  0  0  0  0
   -7.2009    2.9448   26.6134 C   0  0  0  0  0  0  0  0  0  0  0  0
   -8.1365    1.9533   26.2981 C   0  0  0  0  0  0  0  0  0  0  0  0
   -9.4501    2.2651   26.2497 C   0  0  0  0  0  0  0  0  0  0  0  0
   -9.8615    3.4703   26.6763 C   0  0  0  0  0  0  0  0  0  0  0  0
   -7.5886    0.6540   25.9006 C   0  0  0  0  0  0  0  0  0  0  0  0
   -8.0320    0.0657   24.7672 C   0  0  0  0  0  0  0  0  0  0  0  0
   -6.6858   -0.0368   26.7682 C   0  0  0  0  0  0  0  0  0  0  0  0
   -6.0464   -1.1151   26.5070 C   0  0  0  0  0  0  0  0  0  0  0  0
   -8.8596    0.6844   23.8548 C   0  0  0  0  0  0  0  0  0  0  0  0
   -6.4779   -1.7217   25.2317 C   0  0  0  0  0  0  0  0  0  0  0  0
   -7.3717   -1.1118   24.3629 C   0  0  0  0  0  0  0  0  0  0  0  0
   -9.8772    0.2656   23.4740 C   0  0  0  0  0  0  0  0  0  0  0  0
  -10.7821    0.9141   22.5064 C   0  0  0  0  0  0  0  0  0  0  0  0
  -10.4095    2.2193   22.1100 C   0  0  0  0  0  0  0  0  0  0  0  0
  -11.2132    2.9247   21.1607 C   0  0  0  0  0  0  0  0  0  0  0  0
  -10.8459    4.2769   20.8954 C   0  0  0  0  0  0  0  0  0  0  0  0
  -10.1110    4.9502   21.8250 C   0  0  0  0  0  0  0  0  0  0  0  0
   -9.8881    4.3811   23.1239 C   0  0  0  0  0  0  0  0  0  0  0  0
  -10.0121    3.0112   23.2623 C   0  0  0  0  0  0  0  0  0  0  0  0
   -9.0500    2.3412   24.2862 C   0  0  0  0  0  0  0  0  0  0  0  0
   -8.1795    2.9351   24.3976 O   0  0  0  0  0  0  0  0  0  0  0  0
  -10.2174    1.3693   25.9280 O   0  0  0  0  0  0  0  0  0  0  0  0
  -11.3841    1.1577   26.9808 C   0  0  0  0  0  0  0  0  0  0  0  0
  -12.2476    0.2373   26.7109 C   0  0  0  0  0  0  0  0  0  0  0  0
  -12.0655   -0.7218   25.8934 C   0  0  0  0  0  0  0  0  0  0  0  0
  -12.6543   -1.6895   25.7210 C   0  0  0  0  0  0  0  0  0  0  0  0
  -12.3101   -2.8240   24.7859 C   0  0  0  0  0  0  0  0  0  0  0  0
  -11.0958   -2.6279   24.1881 C   0  0  0  0  0  0  0  0  0  0  0  0
  -10.2661   -1.5954   24.4813 C   0  0  0  0  0  0  0  0  0  0  0  0
  -10.1904   -0.9899   23.8132 N   0  0  0  0  0  0  0  0  0  0  0  0
  5  8  1  0
  9 12  1  0
 23 24  1  0
  6 25  1  0
 25 26  1  0
 26 27  1  0
 27 28  2  3
 28 29  1  0
 29 30  2  3
 30 31  1  0
 31 32  2  3
 15 33  1  0
 32 33  1  0
  3  2  1  0
  8  9  2  0
  9 14  1  0
 14 13  2  0
 13 11  1  0
 11 10  2  0
 10  8  1  0
 12 15  2  0
 15 16  1  0
 16 17  2  0
 22 23  2  0
 23 12  1  0
  1  2  2  0
  2  7  1  0
  7  6  2  0
  6  5  1  0
  5  4  2  0
  4  1  1  0
 17 18  1  0
 18 19  2  0
 19 20  1  0
 20 21  2  0
 21 22  1  0
 22 17  1  0
M  END
$$$$
