No_6795-complexes_sdf/6BKW-FPZ/2024-09-17-14-21-01/
     RDKit          3D

 14 15  0  0  0  0  0  0  0  0999 V2000
   -7.7129    4.2099   27.0854 C   0  0  0  0  0  0  0  0  0  0  0  0
   -8.2112    3.0637   26.9225 C   0  0  0  0  0  0  0  0  0  0  0  0
   -7.5138    1.9223   27.4249 C   0  0  0  0  0  0  0  0  0  0  0  0
   -8.5309    5.4147   26.8151 C   0  0  0  0  0  0  0  0  0  0  0  0
   -8.1184    6.7672   27.1362 C   0  0  0  0  0  0  0  0  0  0  0  0
   -6.4469    1.6612   27.1686 C   0  0  0  0  0  0  0  0  0  0  0  0
   -5.7520    0.5355   27.7851 C   0  0  0  0  0  0  0  0  0  0  0  0
   -4.3462    0.5909   28.1064 C   0  0  0  0  0  0  0  0  0  0  0  0
   -3.7329   -0.4651   28.7554 C   0  0  0  0  0  0  0  0  0  0  0  0
   -4.4460   -1.5399   29.1843 C   0  0  0  0  0  0  0  0  0  0  0  0
   -6.2676   -0.6478   28.3200 C   0  0  0  0  0  0  0  0  0  0  0  0
   -7.7051   -0.6883   27.9735 C   0  0  0  0  0  0  0  0  0  0  0  0
   -8.3765    0.6052   27.5657 C   0  0  0  0  0  0  0  0  0  0  0  0
   -5.7584   -1.6460   28.9519 C   0  0  0  0  0  0  0  0  0  0  0  0
  1  2  2  3
  2  3  1  0
  1  4  1  0
  4  5  1  0
  3  6  2  0
  6  7  1  0
 11 12  1  0
 12 13  2  0
 13  3  1  0
  7  8  2  0
  8  9  1  0
  9 10  2  0
 10 14  1  0
 14 11  2  0
 11  7  1  0
M  END
$$$$
