No_6652-complexes_sdf/6BKW-FPZ/2024-09-17-14-21-01/
     RDKit          3D

 22 24  0  0  0  0  0  0  0  0999 V2000
   -7.2496    3.8871   27.4508 C   0  0  0  0  0  0  0  0  0  0  0  0
   -7.9379    4.9063   27.8518 C   0  0  0  0  0  0  0  0  0  0  0  0
   -8.9501    5.3664   27.1340 C   0  0  0  0  0  0  0  0  0  0  0  0
   -7.8820    2.8617   26.9644 C   0  0  0  0  0  0  0  0  0  0  0  0
   -9.1643    3.0889   26.3622 C   0  0  0  0  0  0  0  0  0  0  0  0
   -9.6921    4.3341   26.4886 C   0  0  0  0  0  0  0  0  0  0  0  0
   -7.5015    1.4718   26.8091 C   0  0  0  0  0  0  0  0  0  0  0  0
   -6.3639    1.1289   27.4828 N   0  0  0  0  0  0  0  0  0  0  0  0
   -5.9938   -0.1660   27.4215 C   0  0  0  0  0  0  0  0  0  0  0  0
   -6.8321   -1.0449   26.8710 C   0  0  0  0  0  0  0  0  0  0  0  0
   -8.0907    0.2933   26.4330 C   0  0  0  0  0  0  0  0  0  0  0  0
   -4.7105   -0.6290   28.0839 C   0  0  2  0  0  0  0  0  0  0  0  0
   -4.1208    0.0748   29.0407 C   0  0  0  0  0  0  0  0  0  0  0  0
   -4.5411    1.1482   29.6219 C   0  0  0  0  0  0  0  0  0  0  0  0
   -2.8019   -0.5692   29.4655 C   0  0  0  0  0  0  0  0  0  0  0  0
   -9.5113    6.5784   27.3265 F   0  0  0  0  0  0  0  0  0  0  0  0
   -2.7204   -0.9898   30.8021 C   0  0  0  0  0  0  0  0  0  0  0  0
   -3.2892   -0.0795   31.7851 C   0  0  0  0  0  0  0  0  0  0  0  0
   -4.4488    1.4611   31.0441 N   0  0  0  0  0  0  0  0  0  0  0  0
   -3.7688    0.7824   31.9514 C   0  0  0  0  0  0  0  0  0  0  0  0
   -4.1564   -1.7806   27.3686 C   0  0  0  0  0  0  0  0  0  0  0  0
   -3.6291   -1.5850   26.1433 C   0  0  0  0  0  0  0  0  0  0  0  0
  4  7  1  0
  7  8  2  0
  8  9  1  0
  9 10  2  0
  7 11  1  0
 10 11  1  0
  9 12  1  0
 12 13  1  0
 13 14  1  0
 13 15  1  0
  3 16  1  0
 15 17  1  0
 17 18  2  0
 14 19  1  0
 18 20  1  0
 19 20  1  0
 12 21  1  6
 21 22  1  0
  1  2  2  0
  2  3  1  0
  3  6  2  0
  6  5  1  0
  5  4  2  0
  4  1  1  0
M  END
$$$$
