No_6400-complexes_sdf/6BKW-FPZ/2024-09-17-14-21-01/
     RDKit          3D

 40 44  0  0  0  0  0  0  0  0999 V2000
   -7.2496    3.8871   27.4508 C   0  0  0  0  0  0  0  0  0  0  0  0
   -7.9379    4.9063   27.8518 C   0  0  0  0  0  0  0  0  0  0  0  0
   -7.4895    6.2027   27.7481 C   0  0  0  0  0  0  0  0  0  0  0  0
   -7.8057    2.6324   27.3137 C   0  0  0  0  0  0  0  0  0  0  0  0
   -9.1872    2.4678   27.5434 C   0  0  0  0  0  0  0  0  0  0  0  0
   -9.9237    3.5447   27.9999 C   0  0  0  0  0  0  0  0  0  0  0  0
   -9.3832    4.8080   28.1012 C   0  0  0  0  0  0  0  0  0  0  0  0
  -11.3761    3.3018   28.3126 C   0  0  0  0  0  0  0  0  0  0  0  0
  -12.2410    3.1455   27.4378 C   0  0  0  0  0  0  0  0  0  0  0  0
  -13.6409    2.9316   27.8079 C   0  0  0  0  0  0  0  0  0  0  0  0
  -13.9980    2.9095   29.1629 C   0  0  0  0  0  0  0  0  0  0  0  0
  -13.0285    3.0476   30.1284 C   0  0  0  0  0  0  0  0  0  0  0  0
  -11.7187    3.2610   29.7972 C   0  0  0  0  0  0  0  0  0  0  0  0
   -7.0365    1.4364   26.9173 C   0  0  0  0  0  0  0  0  0  0  0  0
   -7.1887    0.4826   27.5048 O   0  0  0  0  0  0  0  0  0  0  0  0
   -6.2474   -0.5005   27.5558 C   0  0  0  0  0  0  0  0  0  0  0  0
   -5.8123   -0.8354   28.7881 C   0  0  0  0  0  0  0  0  0  0  0  0
   -4.6513   -1.6013   28.9795 C   0  0  0  0  0  0  0  0  0  0  0  0
   -4.0168   -2.1195   27.8514 C   0  0  0  0  0  0  0  0  0  0  0  0
   -4.4473   -1.7650   26.5990 C   0  0  0  0  0  0  0  0  0  0  0  0
   -5.5549   -0.8726   26.4480 C   0  0  0  0  0  0  0  0  0  0  0  0
   -4.1957   -1.9649   30.3593 C   0  0  0  0  0  0  0  0  0  0  0  0
   -4.1337   -1.0055   31.1687 C   0  0  0  0  0  0  0  0  0  0  0  0
   -3.7545    0.2389   30.9031 C   0  0  0  0  0  0  0  0  0  0  0  0
   -4.7295   -1.2581   32.5326 C   0  0  0  0  0  0  0  0  0  0  0  0
   -4.1672   -1.9718   33.3829 C   0  0  0  0  0  0  0  0  0  0  0  0
   -4.7188   -2.1026   34.7604 C   0  0  0  0  0  0  0  0  0  0  0  0
   -5.8706   -1.3882   35.0269 C   0  0  0  0  0  0  0  0  0  0  0  0
   -6.4669   -0.6928   33.9956 C   0  0  0  0  0  0  0  0  0  0  0  0
   -5.9395   -0.5367   32.8388 C   0  0  0  0  0  0  0  0  0  0  0  0
   -7.4104    6.6000   26.6477 F   0  0  0  0  0  0  0  0  0  0  0  0
   -6.1723    6.3166   28.2964 F   0  0  0  0  0  0  0  0  0  0  0  0
   -8.1257    7.0672   28.5277 F   0  0  0  0  0  0  0  0  0  0  0  0
  -13.3279    3.0127   31.8745 Cl  0  0  0  0  0  0  0  0  0  0  0  0
  -11.9919    3.2855   25.9918 C   0  0  0  0  0  0  0  0  0  0  0  0
  -10.9703    3.8958   25.5298 C   0  0  0  0  0  0  0  0  0  0  0  0
  -10.7716    4.0557   24.0843 C   0  0  0  0  0  0  0  0  0  0  0  0
  -11.6339    3.5625   23.2110 C   0  0  0  0  0  0  0  0  0  0  0  0
  -12.7808    2.9344   23.7745 C   0  0  0  0  0  0  0  0  0  0  0  0
  -12.9949    2.8077   25.1122 C   0  0  0  0  0  0  0  0  0  0  0  0
  2  3  1  0
  6  8  1  0
  4 14  1  0
 14 15  1  0
 15 16  1  0
 18 22  1  0
 22 23  1  0
 23 24  2  0
 23 25  1  0
  3 31  1  0
  3 32  1  0
  3 33  1  0
 12 34  1  0
  9 35  1  0
 25 26  2  0
 26 27  1  0
 27 28  2  0
 28 29  1  0
 29 30  2  0
 30 25  1  0
 35 36  2  0
 36 37  1  0
 37 38  2  0
 38 39  1  0
 39 40  2  0
 40 35  1  0
  1  2  2  0
  2  7  1  0
  7  6  2  0
  6  5  1  0
  5  4  2  0
  4  1  1  0
  8  9  1  0
  9 10  2  0
 10 11  1  0
 11 12  2  0
 12 13  1  0
 13  8  2  0
 16 17  2  0
 17 18  1  0
 18 19  2  0
 19 20  1  0
 20 21  2  0
 21 16  1  0
M  END
$$$$
