No_6872-complexes_sdf/6BKW-FPZ/2024-09-17-14-21-01/
     RDKit          3D

 34 38  0  0  0  0  0  0  0  0999 V2000
   -7.9040    3.9820   27.1177 C   0  0  0  0  0  0  0  0  0  0  0  0
   -7.8663    4.8694   27.9238 C   0  0  0  0  0  0  0  0  0  0  0  0
   -9.0501    3.8017   26.2617 C   0  0  0  0  0  0  0  0  0  0  0  0
  -10.0189    4.7608   26.3707 C   0  0  0  0  0  0  0  0  0  0  0  0
   -8.6973    5.9722   27.8968 C   0  0  0  0  0  0  0  0  0  0  0  0
   -9.8216    5.8946   27.1241 C   0  0  0  0  0  0  0  0  0  0  0  0
   -9.1437    2.6293   25.4175 C   0  0  0  0  0  0  0  0  0  0  0  0
  -10.1321    1.8510   25.6641 C   0  0  0  0  0  0  0  0  0  0  0  0
  -11.0784    1.8265   26.2198 C   0  0  0  0  0  0  0  0  0  0  0  0
  -12.0430    0.6917   26.3793 C   0  0  0  0  0  0  0  0  0  0  0  0
  -11.7039   -0.4037   25.6784 C   0  0  0  0  0  0  0  0  0  0  0  0
   -9.9185    0.4815   24.8947 C   0  0  0  0  0  0  0  0  0  0  0  0
  -10.7256   -0.5154   24.9510 C   0  0  0  0  0  0  0  0  0  0  0  0
   -8.6902    0.1960   24.0223 C   0  0  0  0  0  0  0  0  0  0  0  0
   -8.5698    0.2316   22.9978 C   0  0  2  0  0  0  0  0  0  0  0  0
   -9.6599    0.4490   22.0137 C   0  0  0  0  0  0  0  0  0  0  0  0
  -10.0094    1.7411   21.6754 C   0  0  0  0  0  0  0  0  0  0  0  0
  -11.0619    2.0300   20.8228 C   0  0  0  0  0  0  0  0  0  0  0  0
  -11.7203    0.9221   20.2457 C   0  0  0  0  0  0  0  0  0  0  0  0
  -10.3230   -0.5684   21.3757 C   0  0  0  0  0  0  0  0  0  0  0  0
  -11.3793   -0.3413   20.5547 C   0  0  0  0  0  0  0  0  0  0  0  0
   -7.3061   -0.2640   22.2886 C   0  0  0  0  0  0  0  0  0  0  0  0
   -6.7042   -1.5321   22.6568 C   0  0  0  0  0  0  0  0  0  0  0  0
   -6.0699   -1.4821   23.9018 C   0  0  0  0  0  0  0  0  0  0  0  0
   -5.5354   -2.6216   24.4164 C   0  0  0  0  0  0  0  0  0  0  0  0
   -5.4729   -3.7201   23.5791 C   0  0  0  0  0  0  0  0  0  0  0  0
   -6.0914   -3.7412   22.3495 C   0  0  0  0  0  0  0  0  0  0  0  0
   -6.6893   -2.5693   21.8927 C   0  0  0  0  0  0  0  0  0  0  0  0
   -7.2332   -2.5748   20.5331 C   0  0  0  0  0  0  0  0  0  0  0  0
   -6.8605   -3.2881   19.5379 C   0  0  0  0  0  0  0  0  0  0  0  0
   -7.5006   -3.1838   18.2760 C   0  0  0  0  0  0  0  0  0  0  0  0
   -8.7281   -2.4782   18.2166 C   0  0  0  0  0  0  0  0  0  0  0  0
   -9.1821   -1.7851   19.3669 C   0  0  0  0  0  0  0  0  0  0  0  0
   -8.5253   -1.8545   20.5146 C   0  0  0  0  0  0  0  0  0  0  0  0
  3  7  1  0
  7  8  1  0
 12 14  1  0
 15 14  1  1
 15 16  1  0
 15 22  1  0
 22 23  1  0
 28 29  1  0
 23 24  2  0
 24 25  1  0
 25 26  2  0
 26 27  1  0
 27 28  2  0
 28 23  1  0
 16 17  2  0
 17 18  1  0
 18 19  2  0
 19 21  1  0
 21 20  2  0
 20 16  1  0
 29 30  2  0
 30 31  1  0
 31 32  2  0
 32 33  1  0
 33 34  2  0
 34 29  1  0
  1  2  2  0
  2  5  1  0
  5  6  2  0
  6  4  1  0
  4  3  2  0
  3  1  1  0
  8  9  2  0
  9 10  1  0
 10 11  2  0
 11 13  1  0
 13 12  2  0
 12  8  1  0
M  END
$$$$
