No_6960-complexes_sdf/6BKW-FPZ/2024-09-17-14-21-01/
     RDKit          3D

 15 15  0  0  0  0  0  0  0  0999 V2000
   -7.7129    4.2099   27.0854 C   0  0  0  0  0  0  0  0  0  0  0  0
   -8.9133    4.4736   27.0998 C   0  0  0  0  0  0  0  0  0  0  0  0
   -9.7937    3.7367   26.2091 C   0  0  0  0  0  0  0  0  0  0  0  0
   -7.2496    2.8647   26.8496 C   0  0  0  0  0  0  0  0  0  0  0  0
   -8.1891    1.9790   26.3454 C   0  0  0  0  0  0  0  0  0  0  0  0
  -11.0808    4.1954   25.9087 C   0  0  0  0  0  0  0  0  0  0  0  0
   -9.4405    2.4420   25.9289 C   0  0  0  0  0  0  0  0  0  0  0  0
  -12.1404    3.6931   25.6693 C   0  0  0  0  0  0  0  0  0  0  0  0
  -13.3119    4.3281   25.2053 C   0  0  0  0  0  0  0  0  0  0  0  0
  -14.3068    4.4154   24.7320 C   0  0  0  0  0  0  0  0  0  0  0  0
  -14.9550    5.6238   24.2546 C   0  0  0  0  0  0  0  0  0  0  0  0
  -15.4088    6.7572   24.1949 C   0  0  0  0  0  0  0  0  0  0  0  0
  -15.2184    3.3633   24.2891 C   0  0  0  0  0  0  0  0  0  0  0  0
  -16.3918    3.4809   23.8843 C   0  0  0  0  0  0  0  0  0  0  0  0
  -16.3158    7.6024   24.0864 C   0  0  0  0  0  0  0  0  0  0  0  0
  3  6  1  0
  6  8  2  3
  8  9  1  0
  9 10  2  3
 10 11  1  0
 11 12  2  3
 10 13  1  0
 13 14  1  0
 12 15  1  0
  1  2  2  0
  2  3  1  0
  3  7  2  0
  7  5  1  0
  5  4  2  0
  4  1  1  0
M  END
$$$$
