No_6231-complexes_sdf/6BKW-FPZ/2024-09-17-14-21-01/
     RDKit          3D

 21 23  0  0  0  0  0  0  0  0999 V2000
   -7.7129    4.2099   27.0854 C   0  0  0  0  0  0  0  0  0  0  0  0
   -7.7814    5.1722   27.8972 C   0  0  0  0  0  0  0  0  0  0  0  0
   -8.8998    3.8713   26.3707 C   0  0  0  0  0  0  0  0  0  0  0  0
   -9.9938    4.6774   26.5446 C   0  0  0  0  0  0  0  0  0  0  0  0
   -8.7789    6.1536   27.9256 C   0  0  0  0  0  0  0  0  0  0  0  0
   -9.9428    5.8398   27.2296 C   0  0  0  0  0  0  0  0  0  0  0  0
   -8.9119    2.6447   25.5685 C   0  0  0  0  0  0  0  0  0  0  0  0
   -9.7335    1.6985   26.0442 C   0  0  0  0  0  0  0  0  0  0  0  0
   -9.5708    0.4804   25.5508 C   0  0  0  0  0  0  0  0  0  0  0  0
  -10.3219   -0.6047   26.0815 C   0  0  0  0  0  0  0  0  0  0  0  0
  -11.2152   -0.3456   27.1669 C   0  0  0  0  0  0  0  0  0  0  0  0
  -11.3081    0.9063   27.7182 C   0  0  0  0  0  0  0  0  0  0  0  0
  -10.5353    1.9458   27.2517 C   0  0  0  0  0  0  0  0  0  0  0  0
   -8.7398    0.1510   24.4124 C   0  0  0  0  0  0  0  0  0  0  0  0
   -9.1981    0.3407   23.0743 C   0  0  2  0  0  0  0  0  0  0  0  0
   -7.4109   -0.3303   24.5950 C   0  0  0  0  0  0  0  0  0  0  0  0
   -6.7154   -0.7479   23.5580 N   0  0  0  0  0  0  0  0  0  0  0  0
  -10.3722    1.0179   22.7727 C   0  0  0  0  0  0  0  0  0  0  0  0
  -10.7463    1.2819   21.5137 C   0  0  0  0  0  0  0  0  0  0  0  0
   -9.9812    0.5120   20.5451 C   0  0  0  0  0  0  0  0  0  0  0  0
   -8.6330   -0.1789   21.8435 C   0  0  0  0  0  0  0  0  0  0  0  0
  3  7  1  0
  7  8  1  0
  9 14  1  0
 15 14  1  1
 14 16  1  0
 16 17  2  0
 15 18  1  0
 18 19  2  0
 19 20  1  0
 15 21  1  0
 20 21  1  0
  8  9  1  0
  9 10  2  0
 10 11  1  0
 11 12  2  0
 12 13  1  0
 13  8  2  0
  1  2  2  0
  2  5  1  0
  5  6  2  0
  6  4  1  0
  4  3  2  0
  3  1  1  0
M  END
$$$$
