No_6552-complexes_sdf/6BKW-FPZ/2024-09-17-14-21-01/
     RDKit          3D

 23 26  0  0  0  0  0  0  0  0999 V2000
   -7.9040    3.9820   27.1177 C   0  0  0  0  0  0  0  0  0  0  0  0
   -7.8663    4.8694   27.9238 C   0  0  0  0  0  0  0  0  0  0  0  0
   -9.0501    3.8017   26.2617 C   0  0  0  0  0  0  0  0  0  0  0  0
  -10.0189    4.7608   26.3707 C   0  0  0  0  0  0  0  0  0  0  0  0
   -8.6973    5.9722   27.8968 C   0  0  0  0  0  0  0  0  0  0  0  0
   -9.8216    5.8946   27.1241 C   0  0  0  0  0  0  0  0  0  0  0  0
   -9.1437    2.6293   25.4175 C   0  0  0  0  0  0  0  0  0  0  0  0
   -8.6100    1.5009   25.7781 N   0  0  0  0  0  0  0  0  0  0  0  0
   -9.8595    2.6803   24.2027 C   0  0  0  0  0  0  0  0  0  0  0  0
   -8.6655    0.4468   24.9762 C   0  0  0  0  0  0  0  0  0  0  0  0
   -9.9029    1.6170   23.3784 C   0  0  0  0  0  0  0  0  0  0  0  0
   -9.2527    0.4491   23.7806 C   0  0  2  0  0  0  0  0  0  0  0  0
   -9.3122   -0.7467   22.8867 C   0  0  0  0  0  0  0  0  0  0  0  0
   -8.1911   -1.3431   22.5986 C   0  0  0  0  0  0  0  0  0  0  0  0
   -8.1248   -2.4227   21.6289 C   0  0  0  0  0  0  0  0  0  0  0  0
   -9.3218   -2.7377   20.9433 C   0  0  0  0  0  0  0  0  0  0  0  0
  -10.4065   -1.0140   22.0646 C   0  0  0  0  0  0  0  0  0  0  0  0
  -10.4212   -1.9985   21.1626 C   0  0  0  0  0  0  0  0  0  0  0  0
   -8.0017   -0.6284   25.3916 O   0  0  0  0  0  0  0  0  0  0  0  0
  -11.6228   -2.3201   20.3688 C   0  0  0  0  0  0  0  0  0  0  0  0
  -12.7772   -1.8761   20.8441 C   0  0  0  0  0  0  0  0  0  0  0  0
  -12.7860   -0.7302   21.6557 C   0  0  0  0  0  0  0  0  0  0  0  0
  -11.7091   -0.3492   22.3980 C   0  0  0  0  0  0  0  0  0  0  0  0
  3  7  1  0
  7  9  1  0
  8 10  1  0
 10 12  1  0
 11 12  1  0
 12 13  1  1
 10 19  2  0
  8  7  1  0
  9 11  1  0
 13 14  2  0
 14 15  1  0
 15 16  2  0
 16 18  1  0
 17 13  1  0
  1  2  2  0
  2  5  1  0
  5  6  2  0
  6  4  1  0
  4  3  2  0
  3  1  1  0
 17 18  2  0
 18 20  1  0
 20 21  2  0
 21 22  1  0
 22 23  2  0
 23 17  1  0
M  END
$$$$
