No_6494-complexes_sdf/6BKW-FPZ/2024-09-17-14-21-01/
     RDKit          3D

 29 33  0  0  0  0  0  0  0  0999 V2000
   -7.7129    4.2099   27.0854 C   0  0  0  0  0  0  0  0  0  0  0  0
   -7.7814    5.1722   27.8972 C   0  0  0  0  0  0  0  0  0  0  0  0
   -8.8776    3.8408   26.3416 C   0  0  0  0  0  0  0  0  0  0  0  0
   -9.9844    4.6492   26.4743 C   0  0  0  0  0  0  0  0  0  0  0  0
   -8.8033    6.1375   27.8728 C   0  0  0  0  0  0  0  0  0  0  0  0
   -9.9554    5.8280   27.1736 C   0  0  0  0  0  0  0  0  0  0  0  0
   -8.8752    2.6155   25.5663 C   0  0  0  0  0  0  0  0  0  0  0  0
   -8.2801    1.4553   26.1648 C   0  0  1  0  0  0  0  0  0  0  0  0
   -7.8067    1.5204   27.3896 C   0  0  0  0  0  0  0  0  0  0  0  0
   -7.0350    2.7918   27.7630 C   0  0  0  0  0  0  0  0  0  0  0  0
   -8.5768    0.1774   25.5225 C   0  0  0  0  0  0  0  0  0  0  0  0
   -8.4709   -0.7856   25.8946 C   0  0  0  0  0  0  0  0  0  0  0  0
   -8.7086   -2.0917   25.2093 C   0  0  0  0  0  0  0  0  0  0  0  0
   -9.0753   -1.9657   23.8916 C   0  0  0  0  0  0  0  0  0  0  0  0
   -8.9382    0.3154   24.0501 C   0  0  0  0  0  0  0  0  0  0  0  0
   -9.1448   -0.7340   23.3166 C   0  0  0  0  0  0  0  0  0  0  0  0
  -11.1152    4.3733   25.5868 C   0  0  0  0  0  0  0  0  0  0  0  0
  -12.2164    3.7014   26.1100 C   0  0  0  0  0  0  0  0  0  0  0  0
  -13.2545    3.3174   25.3467 C   0  0  0  0  0  0  0  0  0  0  0  0
  -13.1541    3.5218   23.9620 C   0  0  0  0  0  0  0  0  0  0  0  0
  -12.0427    4.1382   23.3848 C   0  0  0  0  0  0  0  0  0  0  0  0
  -10.9723    4.5748   24.2362 C   0  0  0  0  0  0  0  0  0  0  0  0
  -12.3138    3.4464   27.5956 C   0  0  0  0  0  0  0  0  0  0  0  0
  -12.8486    2.4685   28.1691 C   0  0  0  0  0  0  0  0  0  0  0  0
  -12.8835    2.3364   29.5525 C   0  0  0  0  0  0  0  0  0  0  0  0
  -13.4381    1.2400   30.1334 C   0  0  0  0  0  0  0  0  0  0  0  0
  -13.8274    0.1637   29.3244 C   0  0  0  0  0  0  0  0  0  0  0  0
  -13.7379    0.2147   27.9800 C   0  0  0  0  0  0  0  0  0  0  0  0
  -13.2342    1.3009   27.4174 C   0  0  0  0  0  0  0  0  0  0  0  0
  3  7  1  0
  7  8  1  0
  8  9  1  0
  1 10  1  0
  9 10  3  0
  8 11  1  1
  4 17  1  0
 18 23  1  0
 23 24  1  0
 24 25  2  0
 25 26  1  0
 26 27  2  0
 27 28  1  0
 28 29  2  0
 29 24  1  0
 11 12  2  0
 12 13  1  0
 13 14  2  0
 14 16  1  0
 16 15  2  0
 15 11  1  0
 17 18  1  0
 18 19  2  0
 19 20  1  0
 20 21  2  0
 21 22  1  0
 22 17  2  0
  1  2  2  0
  2  5  1  0
  5  6  2  0
  6  4  1  0
  4  3  2  0
  3  1  1  0
M  END
$$$$
