No_6114-complexes_sdf/6BKW-FPZ/2024-09-17-14-21-01/
     RDKit          3D

 25 27  0  0  0  0  0  0  0  0999 V2000
   -7.2496    3.8871   27.4508 C   0  0  0  0  0  0  0  0  0  0  0  0
   -7.6161    2.7143   27.1523 C   0  0  0  0  0  0  0  0  0  0  0  0
   -8.8302    2.4659   26.5056 C   0  0  0  0  0  0  0  0  0  0  0  0
   -8.1584    5.0090   27.3234 C   0  0  0  0  0  0  0  0  0  0  0  0
   -9.3788    4.7965   26.7695 C   0  0  0  0  0  0  0  0  0  0  0  0
   -9.7028    3.5649   26.3276 C   0  0  0  0  0  0  0  0  0  0  0  0
   -6.7792    1.6348   27.3517 N   0  0  0  0  0  0  0  0  0  0  0  0
   -7.0195    0.3499   27.0368 C   0  0  0  0  0  0  0  0  0  0  0  0
   -6.1043   -0.6019   27.4919 C   0  0  0  0  0  0  0  0  0  0  0  0
   -5.0295    0.0488   28.1206 C   0  0  0  0  0  0  0  0  0  0  0  0
   -4.8465    1.3299   28.3937 C   0  0  0  0  0  0  0  0  0  0  0  0
   -5.6442    2.1581   28.0596 C   0  0  0  0  0  0  0  0  0  0  0  0
   -7.6543    6.5921   27.8926 Cl  0  0  0  0  0  0  0  0  0  0  0  0
  -10.9990    3.3457   25.6463 C   0  0  0  0  0  0  0  0  0  0  0  0
  -11.0005    3.2985   24.3096 C   0  0  0  0  0  0  0  0  0  0  0  0
  -10.2013    3.4490   23.4941 C   0  0  0  0  0  0  0  0  0  0  0  0
  -10.2314    3.4561   22.0451 C   0  0  0  0  0  0  0  0  0  0  0  0
  -11.4079    3.0729   21.4726 C   0  0  0  0  0  0  0  0  0  0  0  0
  -12.4664    2.8004   22.3422 C   0  0  0  0  0  0  0  0  0  0  0  0
  -12.3557    2.9438   23.6747 C   0  0  0  0  0  0  0  0  0  0  0  0
  -11.9930    3.3656   26.4477 O   0  0  0  0  0  0  0  0  0  0  0  0
   -3.9051   -0.9166   28.7535 C   0  0  0  0  0  0  0  0  0  0  0  0
   -3.0471   -0.4703   29.1162 F   0  0  0  0  0  0  0  0  0  0  0  0
   -4.5499   -1.7387   29.6872 F   0  0  0  0  0  0  0  0  0  0  0  0
   -3.5309   -1.7617   27.6946 F   0  0  0  0  0  0  0  0  0  0  0  0
  2  7  1  0
  7  8  1  0
  9 10  1  0
  7 12  1  0
 11 12  1  0
  4 13  1  0
  6 14  1  0
 14 15  1  0
 14 21  2  0
 10 22  1  0
 22 23  1  0
 22 24  1  0
 22 25  1  0
  8  9  1  0
 10 11  1  0
 15 16  2  0
 16 17  1  0
 17 18  2  0
 18 19  1  0
 19 20  2  0
 20 15  1  0
  1  2  2  0
  2  3  1  0
  3  6  2  0
  6  5  1  0
  5  4  2  0
  4  1  1  0
M  END
$$$$
