No_6112-complexes_sdf/6BKW-FPZ/2024-09-17-14-21-01/
     RDKit          3D

 30 34  0  0  0  0  0  0  0  0999 V2000
   -7.9040    3.9820   27.1177 C   0  0  0  0  0  0  0  0  0  0  0  0
   -7.8663    4.8694   27.9238 C   0  0  0  0  0  0  0  0  0  0  0  0
   -7.4547    2.7080   27.4594 C   0  0  0  0  0  0  0  0  0  0  0  0
   -7.9337    1.5946   26.8372 C   0  0  0  0  0  0  0  0  0  0  0  0
   -7.4947    0.3059   27.1189 C   0  0  0  0  0  0  0  0  0  0  0  0
   -8.1909    6.2127   27.7180 C   0  0  0  0  0  0  0  0  0  0  0  0
   -8.8830    6.5611   26.5006 C   0  0  0  0  0  0  0  0  0  0  0  0
   -8.6627    4.2361   25.9428 C   0  0  0  0  0  0  0  0  0  0  0  0
   -9.1787    5.4953   25.6819 C   0  0  0  0  0  0  0  0  0  0  0  0
   -6.3112    0.1955   27.8599 C   0  0  0  0  0  0  0  0  0  0  0  0
   -5.6059    1.3385   28.2876 C   0  0  0  0  0  0  0  0  0  0  0  0
   -6.0865    2.5482   28.0272 C   0  0  0  0  0  0  0  0  0  0  0  0
   -5.9075   -1.2167   28.0410 C   0  0  0  0  0  0  0  0  0  0  0  0
   -6.5682   -2.1711   27.9030 C   0  0  0  0  0  0  0  0  0  0  0  0
   -6.2181   -3.4632   28.2126 C   0  0  0  0  0  0  0  0  0  0  0  0
   -4.9051   -3.6556   28.7142 C   0  0  0  0  0  0  0  0  0  0  0  0
   -4.5166   -1.3974   28.6865 C   0  0  0  0  0  0  0  0  0  0  0  0
   -4.0825   -2.5998   28.9633 C   0  0  0  0  0  0  0  0  0  0  0  0
   -2.7272   -2.7731   29.5149 C   0  0  0  0  0  0  0  0  0  0  0  0
   -2.3931   -2.5571   30.6325 C   0  0  0  0  0  0  0  0  0  0  0  0
   -1.7105   -3.1187   28.5346 C   0  0  0  0  0  0  0  0  0  0  0  0
   -3.1803   -1.7185   31.5392 C   0  0  0  0  0  0  0  0  0  0  0  0
   -3.4125   -0.7181   31.6027 C   0  0  0  0  0  0  0  0  0  0  0  0
   -4.2451    0.1011   32.5749 C   0  0  0  0  0  0  0  0  0  0  0  0
   -5.0998   -0.7585   33.2925 C   0  0  0  0  0  0  0  0  0  0  0  0
   -5.0582   -2.1116   33.2591 C   0  0  0  0  0  0  0  0  0  0  0  0
   -4.0694   -2.7223   32.3549 C   0  0  0  0  0  0  0  0  0  0  0  0
   -1.0855   -2.9307   31.1612 C   0  0  0  0  0  0  0  0  0  0  0  0
   -0.0873   -3.2659   30.2975 C   0  0  0  0  0  0  0  0  0  0  0  0
   -0.4233   -3.4784   28.9474 C   0  0  0  0  0  0  0  0  0  0  0  0
 10 13  1  0
 18 19  1  0
 20 22  1  0
  3  1  1  0
 19 20  2  0
 20 28  1  0
 28 29  2  0
 29 30  1  0
 30 21  2  0
 21 19  1  0
 22 23  2  0
 23 24  1  0
 24 25  2  0
 25 26  1  0
 26 27  2  0
 27 22  1  0
  3  4  2  0
  4  5  1  0
  5 10  2  0
 10 11  1  0
 11 12  2  0
 12  3  1  0
 13 14  2  0
 14 15  1  0
 15 16  2  0
 16 18  1  0
 18 17  2  0
 17 13  1  0
  1  2  2  0
  2  6  1  0
  6  7  2  0
  7  9  1  0
  9  8  2  0
  8  1  1  0
M  END
$$$$
