No_6775-complexes_sdf/6BKW-FPZ/2024-09-17-14-21-01/
     RDKit          3D

 40 44  0  0  0  0  0  0  0  0999 V2000
   -7.9040    3.9820   27.1177 C   0  0  0  0  0  0  0  0  0  0  0  0
   -8.2057    2.8231   26.8733 C   0  0  0  0  0  0  0  0  0  0  0  0
   -8.7695    5.0740   26.7916 C   0  0  0  0  0  0  0  0  0  0  0  0
   -9.9618    4.7598   26.1630 C   0  0  0  0  0  0  0  0  0  0  0  0
   -9.4200    2.4524   26.2850 C   0  0  0  0  0  0  0  0  0  0  0  0
  -10.2590    3.4815   25.9250 C   0  0  0  0  0  0  0  0  0  0  0  0
   -8.3840    6.4693   27.0829 C   0  0  0  0  0  0  0  0  0  0  0  0
   -7.3884    6.7399   26.7883 F   0  0  0  0  0  0  0  0  0  0  0  0
   -8.7313    6.6911   28.4751 F   0  0  0  0  0  0  0  0  0  0  0  0
   -9.2867    7.3175   26.4320 F   0  0  0  0  0  0  0  0  0  0  0  0
   -7.2644    1.6878   27.3042 C   0  0  0  0  0  0  0  0  0  0  0  0
   -7.6184    0.3144   27.2465 C   0  0  0  0  0  0  0  0  0  0  0  0
   -6.7087   -0.6265   27.6548 C   0  0  0  0  0  0  0  0  0  0  0  0
   -5.4107   -0.2028   28.0879 C   0  0  0  0  0  0  0  0  0  0  0  0
   -5.0763    1.1479   28.0954 C   0  0  0  0  0  0  0  0  0  0  0  0
   -5.9200    2.0519   27.7225 C   0  0  0  0  0  0  0  0  0  0  0  0
   -4.2895   -1.4210   28.6682 S   0  0  0  0  0  0  0  0  0  0  0  0
   -3.3809   -0.8989   29.1223 O   0  0  0  0  0  0  0  0  0  0  0  0
   -5.0935   -2.2163   29.6116 O   0  0  0  0  0  0  0  0  0  0  0  0
   -3.9664   -2.2722   27.3764 N   0  0  0  0  0  0  0  0  0  0  0  0
  -11.5097    3.2006   25.1739 C   0  0  1  0  0  0  0  0  0  0  0  0
  -12.5461    2.7937   25.7604 N   0  0  0  0  0  0  0  0  0  0  0  0
  -12.6756    2.4153   26.8335 C   0  0  0  0  0  0  0  0  0  0  0  0
  -13.9935    2.0829   27.4438 C   0  0  0  0  0  0  0  0  0  0  0  0
  -13.8811    2.9008   24.9947 C   0  0  0  0  0  0  0  0  0  0  0  0
  -13.7791    3.2502   23.6678 C   0  0  0  0  0  0  0  0  0  0  0  0
  -11.4995    3.8189   23.8661 C   0  0  0  0  0  0  0  0  0  0  0  0
  -12.6050    3.8824   23.1339 C   0  0  0  0  0  0  0  0  0  0  0  0
  -13.9387    1.6693   28.8465 C   0  0  0  0  0  0  0  0  0  0  0  0
  -12.7154    1.5492   29.5380 C   0  0  0  0  0  0  0  0  0  0  0  0
  -11.5254    1.9165   28.9498 C   0  0  0  0  0  0  0  0  0  0  0  0
  -11.5217    2.3380   27.7794 C   0  0  0  0  0  0  0  0  0  0  0  0
  -10.2336    4.3677   23.2754 C   0  0  0  0  0  0  0  0  0  0  0  0
  -10.4563    4.9020   21.9384 C   0  0  0  0  0  0  0  0  0  0  0  0
  -11.5687    4.8773   21.2549 C   0  0  0  0  0  0  0  0  0  0  0  0
  -12.7259    4.3828   21.8654 C   0  0  0  0  0  0  0  0  0  0  0  0
  -15.2050    1.2582   29.5055 C   0  0  0  0  0  0  0  0  0  0  0  0
  -15.3632    0.1907   29.8862 C   0  0  0  0  0  0  0  0  0  0  0  0
  -14.6006   -0.7369   29.9775 C   0  0  0  0  0  0  0  0  0  0  0  0
  -13.4243   -0.7552   29.5148 C   0  0  0  0  0  0  0  0  0  0  0  0
  3  7  1  0
  7  8  1  0
  7  9  1  0
  7 10  1  0
  2 11  1  0
 14 17  1  0
 17 18  2  0
 17 19  2  0
 17 20  1  0
 21  6  1  1
 21 22  1  0
 22 23  1  0
 22 25  1  0
 21 27  1  0
 26 28  1  0
 29 37  1  0
 37 38  1  0
 38 39  2  3
 39 40  1  0
 26 25  1  0
 23 24  2  0
 24 29  1  0
 29 30  2  0
 30 31  1  0
 31 32  2  0
 32 23  1  0
 11 12  2  0
 12 13  1  0
 13 14  2  0
 14 15  1  0
 15 16  2  0
 16 11  1  0
 27 28  2  0
 28 36  1  0
 36 35  2  0
 35 34  1  0
 34 33  2  0
 33 27  1  0
  1  2  2  0
  2  5  1  0
  5  6  2  0
  6  4  1  0
  4  3  2  0
  3  1  1  0
M  END
$$$$
