No_6272-complexes_sdf/6BKW-FPZ/2024-09-17-14-21-01/
     RDKit          3D

 28 31  0  0  0  0  0  0  0  0999 V2000
   -7.9040    3.9820   27.1177 C   0  0  0  0  0  0  0  0  0  0  0  0
   -7.8663    4.8694   27.9238 C   0  0  0  0  0  0  0  0  0  0  0  0
   -9.0491    3.8523   26.2542 C   0  0  0  0  0  0  0  0  0  0  0  0
   -8.7661    5.9491   27.9690 C   0  0  0  0  0  0  0  0  0  0  0  0
   -9.9295    4.8502   26.2323 C   0  0  0  0  0  0  0  0  0  0  0  0
   -9.8077    5.9288   27.0933 C   0  0  0  0  0  0  0  0  0  0  0  0
   -6.8002    2.6256   27.2024 Cl  0  0  0  0  0  0  0  0  0  0  0  0
   -9.1191    2.6984   25.2948 C   0  0  0  0  0  0  0  0  0  0  0  0
  -10.1986    1.9895   25.5065 C   0  0  0  0  0  0  0  0  0  0  0  0
  -10.3317    0.8797   24.7074 C   0  0  0  0  0  0  0  0  0  0  0  0
  -11.4484    0.0857   24.8598 C   0  0  0  0  0  0  0  0  0  0  0  0
  -11.5953   -1.0858   24.1272 C   0  0  0  0  0  0  0  0  0  0  0  0
  -10.6425   -1.4082   23.1416 C   0  0  0  0  0  0  0  0  0  0  0  0
   -9.5361   -0.6079   22.9048 C   0  0  0  0  0  0  0  0  0  0  0  0
   -9.3511    0.5415   23.6940 C   0  0  0  0  0  0  0  0  0  0  0  0
  -11.2235    2.2080   26.4409 C   0  0  2  0  0  0  0  0  0  0  0  0
  -12.1196    2.8001   26.5562 C   0  0  0  0  0  0  0  0  0  0  0  0
  -12.8370    3.5110   25.5761 C   0  0  0  0  0  0  0  0  0  0  0  0
  -12.8529    3.1105   27.9045 C   0  0  0  0  0  0  0  0  0  0  0  0
  -13.8935    2.6644   28.2592 C   0  0  0  0  0  0  0  0  0  0  0  0
  -14.3196    3.6603   25.7080 C   0  0  0  0  0  0  0  0  0  0  0  0
  -14.8852    3.3513   27.0435 C   0  0  0  0  0  0  0  0  0  0  0  0
  -10.8073    1.4299   27.6033 F   0  0  0  0  0  0  0  0  0  0  0  0
  -16.1773    2.8087   27.1218 C   0  0  0  0  0  0  0  0  0  0  0  0
  -16.7491    2.8357   28.1634 C   0  0  0  0  0  0  0  0  0  0  0  0
  -15.9527    2.5434   29.4231 C   0  0  0  0  0  0  0  0  0  0  0  0
  -14.5800    3.0461   29.5509 C   0  0  0  0  0  0  0  0  0  0  0  0
  -16.6946    3.0641   30.7917 C   0  0  0  0  0  0  0  0  0  0  0  0
  1  7  1  0
  3  8  1  0
  8  9  1  0
  9 10  1  0
  9 16  1  0
 16 17  1  0
 16 23  1  1
 26 28  1  0
 22 24  1  0
 24 25  2  0
 25 26  1  0
 26 27  2  0
 27 20  1  0
  1  2  2  0
  2  4  1  0
  4  6  2  0
  6  5  1  0
  5  3  2  0
  3  1  1  0
 17 18  2  0
 18 21  1  0
 21 22  2  0
 22 20  1  0
 20 19  2  0
 19 17  1  0
 10 11  2  0
 11 12  1  0
 12 13  2  0
 13 14  1  0
 14 15  2  0
 15 10  1  0
M  END
$$$$
