No_6191-complexes_sdf/6BKW-FPZ/2024-09-17-14-21-01/
     RDKit          3D

 19 21  0  0  0  0  0  0  0  0999 V2000
   -7.2496    3.8871   27.4508 C   0  0  0  0  0  0  0  0  0  0  0  0
   -7.9379    4.9063   27.8518 C   0  0  0  0  0  0  0  0  0  0  0  0
   -9.3376    4.8647   27.7795 C   0  0  0  0  0  0  0  0  0  0  0  0
   -7.8544    2.6294   27.0414 C   0  0  0  0  0  0  0  0  0  0  0  0
   -9.2665    2.6175   27.0340 C   0  0  0  0  0  0  0  0  0  0  0  0
   -9.9836    3.7042   27.4150 C   0  0  0  0  0  0  0  0  0  0  0  0
   -9.9053    1.3367   26.6546 C   0  0  0  0  0  0  0  0  0  0  0  0
  -10.5453    0.7121   27.6210 C   0  0  0  0  0  0  0  0  0  0  0  0
  -10.9793   -0.6129   27.5217 C   0  0  0  0  0  0  0  0  0  0  0  0
  -10.7455   -1.2324   26.3464 C   0  0  0  0  0  0  0  0  0  0  0  0
   -9.4914    0.6641   25.5077 C   0  0  0  0  0  0  0  0  0  0  0  0
   -9.9788   -0.6374   25.3283 C   0  0  0  0  0  0  0  0  0  0  0  0
  -11.4437    3.6330   27.4953 C   0  0  0  0  0  0  0  0  0  0  0  0
  -12.1117    4.0421   26.4178 C   0  0  0  0  0  0  0  0  0  0  0  0
  -13.4947    3.9995   26.3415 C   0  0  0  0  0  0  0  0  0  0  0  0
  -12.1929    3.8025   28.7075 C   0  0  0  0  0  0  0  0  0  0  0  0
  -13.5304    3.8148   28.8681 C   0  0  0  0  0  0  0  0  0  0  0  0
  -14.2157    4.0657   27.6109 C   0  0  0  0  0  0  0  0  0  0  0  0
   -7.2966    6.0494   28.2304 O   0  0  0  0  0  0  0  0  0  0  0  0
  5  7  1  0
  6 13  1  0
  2 19  1  0
  7  8  2  0
  8  9  1  0
  9 10  2  0
 10 12  1  0
 12 11  2  0
 11  7  1  0
 13 14  2  0
 14 15  1  0
 15 18  2  0
 18 17  1  0
 17 16  2  0
 16 13  1  0
  1  2  2  0
  2  3  1  0
  3  6  2  0
  6  5  1  0
  5  4  2  0
  4  1  1  0
M  END
$$$$
