No_6515-complexes_sdf/6BKW-FPZ/2024-09-17-14-21-01/
     RDKit          3D

 20 21  0  0  0  0  0  0  0  0999 V2000
   -7.2496    3.8871   27.4508 C   0  0  0  0  0  0  0  0  0  0  0  0
   -7.9379    4.9063   27.8518 C   0  0  0  0  0  0  0  0  0  0  0  0
   -9.3460    4.8223   27.8695 C   0  0  0  0  0  0  0  0  0  0  0  0
   -7.8628    2.6163   27.1065 C   0  0  0  0  0  0  0  0  0  0  0  0
   -9.2787    2.5744   27.1970 C   0  0  0  0  0  0  0  0  0  0  0  0
  -10.0108    3.6770   27.6340 C   0  0  0  0  0  0  0  0  0  0  0  0
  -11.4855    3.5731   27.7420 C   0  0  0  0  0  0  0  0  0  0  0  0
  -11.9114    2.9401   28.7847 N   0  0  0  0  0  0  0  0  0  0  0  0
  -13.2229    2.8274   29.1560 C   0  0  0  0  0  0  0  0  0  0  0  0
  -13.5280    1.9662   30.2376 C   0  0  0  0  0  0  0  0  0  0  0  0
  -14.1340    3.4499   28.6271 O   0  0  0  0  0  0  0  0  0  0  0  0
   -7.1666    1.5863   26.8179 F   0  0  0  0  0  0  0  0  0  0  0  0
   -7.3381    6.0623   28.0942 F   0  0  0  0  0  0  0  0  0  0  0  0
  -13.8811    0.5858   29.8454 C   0  0  0  0  0  0  0  0  0  0  0  0
  -12.9496   -0.1835   29.2549 C   0  0  0  0  0  0  0  0  0  0  0  0
  -12.3655   -0.0624   28.3154 C   0  0  0  0  0  0  0  0  0  0  0  0
  -11.3403   -1.0584   27.7390 C   0  0  0  0  0  0  0  0  0  0  0  0
  -11.0669   -2.1399   28.5338 C   0  0  0  0  0  0  0  0  0  0  0  0
  -11.7381   -2.3426   29.7102 C   0  0  0  0  0  0  0  0  0  0  0  0
  -12.6516   -1.4224   30.1632 C   0  0  0  0  0  0  0  0  0  0  0  0
  6  7  1  0
  7  8  2  3
  8  9  1  0
  9 10  1  0
  9 11  2  0
  4 12  1  0
  2 13  1  0
 10 14  1  0
 14 15  1  0
 15 16  2  0
 16 17  1  0
 17 18  2  0
 18 19  1  0
 19 20  2  0
 20 15  1  0
  1  2  2  0
  2  3  1  0
  3  6  2  0
  6  5  1  0
  5  4  2  0
  4  1  1  0
M  END
$$$$
