No_661-complexes_sdf/6BKW-FPZ/2024-09-17-14-21-01/
     RDKit          3D

 40 45  0  0  0  0  0  0  0  0999 V2000
   -7.9040    3.9820   27.1177 C   0  0  0  0  0  0  0  0  0  0  0  0
   -9.0711    4.3164   27.0630 C   0  0  0  0  0  0  0  0  0  0  0  0
   -9.5294    5.4517   27.7215 C   0  0  0  0  0  0  0  0  0  0  0  0
   -7.2203    4.1641   28.0363 C   0  0  0  0  0  0  0  0  0  0  0  0
   -7.2568    5.4168   28.3819 C   0  0  0  0  0  0  0  0  0  0  0  0
   -8.5045    6.0657   28.4349 C   0  0  0  0  0  0  0  0  0  0  0  0
  -10.1825    3.6793   26.1425 C   0  0  2  0  0  0  0  0  0  0  0  0
   -9.7654    3.4262   24.9063 C   0  0  0  0  0  0  0  0  0  0  0  0
  -10.5821    2.9008   23.8820 C   0  0  2  0  0  0  0  0  0  0  0  0
  -11.8793    2.6359   24.2213 C   0  0  0  0  0  0  0  0  0  0  0  0
  -11.4933    3.5293   26.4199 C   0  0  0  0  0  0  0  0  0  0  0  0
  -12.3959    3.0340   25.4955 C   0  0  0  0  0  0  0  0  0  0  0  0
  -10.0375    2.5352   22.5674 C   0  0  0  0  0  0  0  0  0  0  0  0
   -9.3038    1.5507   22.4728 N   0  0  0  0  0  0  0  0  0  0  0  0
  -10.3114    3.2479   21.5279 O   0  0  0  0  0  0  0  0  0  0  0  0
   -8.9284    0.5952   23.4895 C   0  0  0  0  0  0  0  0  0  0  0  0
   -8.0234   -0.4386   23.1944 C   0  0  0  0  0  0  0  0  0  0  0  0
   -6.8804   -0.5706   23.8464 C   0  0  0  0  0  0  0  0  0  0  0  0
   -6.8727   -0.2237   25.2621 C   0  0  0  0  0  0  0  0  0  0  0  0
   -7.9760    0.6189   25.6803 C   0  0  0  0  0  0  0  0  0  0  0  0
   -8.3531    1.4173   24.6750 C   0  0  0  0  0  0  0  0  0  0  0  0
  -12.7260    2.2223   23.3440 O   0  0  0  0  0  0  0  0  0  0  0  0
   -5.8596    3.6730   27.9519 O   0  0  0  0  0  0  0  0  0  0  0  0
   -5.8751   -0.7443   26.2006 C   0  0  0  0  0  0  0  0  0  0  0  0
   -4.7929   -0.9629   25.8248 O   0  0  0  0  0  0  0  0  0  0  0  0
   -6.0364   -0.5182   27.5293 N   0  0  0  0  0  0  0  0  0  0  0  0
   -5.0966   -0.8366   28.5565 C   0  0  0  0  0  0  0  0  0  0  0  0
   -5.6508   -1.5916   29.5557 C   0  0  0  0  0  0  0  0  0  0  0  0
   -6.8734   -2.1566   29.4980 C   0  0  0  0  0  0  0  0  0  0  0  0
   -7.4120   -2.8968   30.4991 C   0  0  0  0  0  0  0  0  0  0  0  0
   -8.7595   -3.3324   30.5216 C   0  0  0  0  0  0  0  0  0  0  0  0
   -9.5412   -2.9594   29.3838 C   0  0  0  0  0  0  0  0  0  0  0  0
   -9.0283   -2.1804   28.3702 C   0  0  0  0  0  0  0  0  0  0  0  0
   -7.7232   -1.6907   28.5200 C   0  0  0  0  0  0  0  0  0  0  0  0
   -7.5466   -1.1184   27.8056 C   0  0  2  0  0  0  0  0  0  0  0  0
   -9.8838   -1.7891   27.3937 N   0  0  0  0  0  0  0  0  0  0  0  0
  -10.9616   -2.1242   27.0933 C   0  0  0  0  0  0  0  0  0  0  0  0
  -11.5890   -1.6045   25.9245 C   0  0  0  0  0  0  0  0  0  0  0  0
   -8.9691   -0.8693   26.6371 C   0  0  1  0  0  0  0  0  0  0  0  0
   -9.8353    0.1717   26.7987 C   0  0  0  0  0  0  0  0  0  0  0  0
  7  2  1  6
  7  8  1  0
  9 10  1  0
  7 11  1  0
 10 12  1  0
 11 12  1  0
  9 13  1  1
 13 14  1  0
 13 15  2  0
 14 16  1  0
 10 22  2  0
  4 23  1  0
 19 24  1  0
 24 25  2  0
 24 26  1  0
 26 27  1  0
 27 28  1  0
 35 26  1  6
 34 35  1  0
 33 36  1  0
 36 37  1  0
 37 38  2  0
 35 39  1  0
 36 39  1  0
 39 40  1  1
 28 29  1  0
  9  8  1  0
  1  2  2  0
  2  3  1  0
  3  6  2  0
  6  5  1  0
  5  4  2  0
  4  1  1  0
 29 30  2  0
 30 31  1  0
 31 32  2  0
 32 33  1  0
 33 34  2  0
 34 29  1  0
 16 17  2  0
 17 18  1  0
 18 19  2  0
 19 20  1  0
 20 21  2  0
 21 16  1  0
M  END
$$$$
