No_6589-complexes_sdf/6BKW-FPZ/2024-09-17-14-21-01/
     RDKit          3D

 13 13  0  0  0  0  0  0  0  0999 V2000
   -7.9040    3.9820   27.1177 C   0  0  0  0  0  0  0  0  0  0  0  0
   -9.0711    4.3164   27.0630 C   0  0  0  0  0  0  0  0  0  0  0  0
  -10.0395    3.8218   27.1938 C   0  0  0  0  0  0  0  0  0  0  0  0
   -7.6424    2.5858   27.3610 C   0  0  0  0  0  0  0  0  0  0  0  0
   -8.7741    1.7889   27.4566 C   0  0  0  0  0  0  0  0  0  0  0  0
  -10.0155    2.3581   27.4300 C   0  0  0  0  0  0  0  0  0  0  0  0
   -9.1463    5.9504   26.8742 C   0  0  0  0  0  0  0  0  0  0  0  0
   -9.1673    6.6942   27.8901 N   0  0  0  0  0  0  0  0  0  0  0  0
   -9.0169    6.3701   25.6670 O   0  0  0  0  0  0  0  0  0  0  0  0
   -6.3242    1.9822   27.3583 C   0  0  0  0  0  0  0  0  0  0  0  0
   -5.3895    2.7752   27.7409 F   0  0  0  0  0  0  0  0  0  0  0  0
   -6.3149    0.8419   28.1831 F   0  0  0  0  0  0  0  0  0  0  0  0
   -6.0262    1.5208   26.1516 F   0  0  0  0  0  0  0  0  0  0  0  0
  2  7  1  0
  7  8  1  0
  7  9  2  0
  4 10  1  0
 10 11  1  0
 10 12  1  0
 10 13  1  0
  1  2  2  0
  2  3  1  0
  3  6  2  0
  6  5  1  0
  5  4  2  0
  4  1  1  0
M  END
$$$$
