No_6386-complexes_sdf/6BKW-FPZ/2024-09-17-14-21-01/
     RDKit          3D

 40 44  0  0  0  0  0  0  0  0999 V2000
   -7.9040    3.9820   27.1177 C   0  0  0  0  0  0  0  0  0  0  0  0
   -7.8663    4.8694   27.9238 C   0  0  0  0  0  0  0  0  0  0  0  0
   -9.0501    3.8017   26.2617 C   0  0  0  0  0  0  0  0  0  0  0  0
  -10.0189    4.7608   26.3707 C   0  0  0  0  0  0  0  0  0  0  0  0
   -8.6973    5.9722   27.8968 C   0  0  0  0  0  0  0  0  0  0  0  0
   -9.8216    5.8946   27.1241 C   0  0  0  0  0  0  0  0  0  0  0  0
   -9.1437    2.6293   25.4175 C   0  0  0  0  0  0  0  0  0  0  0  0
   -8.6170    1.4258   25.8177 C   0  0  0  0  0  0  0  0  0  0  0  0
   -8.6844    0.3194   24.9788 C   0  0  0  0  0  0  0  0  0  0  0  0
   -9.3360    0.4939   23.7289 C   0  0  0  0  0  0  0  0  0  0  0  0
   -9.8521    1.7195   23.3158 C   0  0  0  0  0  0  0  0  0  0  0  0
   -9.7240    2.7821   24.1593 C   0  0  0  0  0  0  0  0  0  0  0  0
  -10.4661    1.8424   22.0042 C   0  0  0  0  0  0  0  0  0  0  0  0
  -11.7922    2.0029   21.9833 C   0  0  0  0  0  0  0  0  0  0  0  0
  -12.3850    2.2330   20.7559 C   0  0  0  0  0  0  0  0  0  0  0  0
  -11.6011    2.2930   19.5462 C   0  0  0  0  0  0  0  0  0  0  0  0
  -10.2352    2.2998   19.6501 C   0  0  0  0  0  0  0  0  0  0  0  0
   -9.5804    2.0715   20.8805 C   0  0  0  0  0  0  0  0  0  0  0  0
   -8.0710   -0.9122   25.3662 C   0  0  2  0  0  0  0  0  0  0  0  0
   -7.4529   -2.2128   24.6473 Br  0  0  0  0  0  0  0  0  0  0  0  0
   -8.1135   -1.0753   26.9551 C   0  0  0  0  0  0  0  0  0  0  0  0
   -6.8275   -0.8936   27.4690 C   0  0  0  0  0  0  0  0  0  0  0  0
   -6.4324   -1.6735   28.5911 C   0  0  0  0  0  0  0  0  0  0  0  0
   -5.1891   -1.3518   29.2675 C   0  0  0  0  0  0  0  0  0  0  0  0
   -4.3901   -0.2444   28.7896 C   0  0  0  0  0  0  0  0  0  0  0  0
   -4.9077    0.5339   27.7623 C   0  0  0  0  0  0  0  0  0  0  0  0
   -6.0722    0.2514   27.1541 C   0  0  0  0  0  0  0  0  0  0  0  0
   -2.9515    0.1824   29.6098 Cl  0  0  0  0  0  0  0  0  0  0  0  0
   -7.2942   -2.9568   29.1865 Cl  0  0  0  0  0  0  0  0  0  0  0  0
   -6.7075    5.1292   28.7180 O   0  0  0  0  0  0  0  0  0  0  0  0
  -12.6435    1.8843   23.0262 N   0  0  0  0  0  0  0  0  0  0  0  0
  -13.1170    1.1265   23.8020 C   0  0  0  0  0  0  0  0  0  0  0  0
  -13.7320    1.4273   25.0217 C   0  0  0  0  0  0  0  0  0  0  0  0
  -12.9758   -0.2486   23.3998 C   0  0  0  0  0  0  0  0  0  0  0  0
  -13.1394   -1.0719   24.0857 C   0  0  0  0  0  0  0  0  0  0  0  0
  -14.0652    0.3561   25.8854 C   0  0  0  0  0  0  0  0  0  0  0  0
  -12.9309   -2.5496   23.7131 C   0  0  0  0  0  0  0  0  0  0  0  0
  -13.7622   -0.9295   25.4504 C   0  0  0  0  0  0  0  0  0  0  0  0
  -13.4444    3.3122   23.1567 C   0  0  0  0  0  0  0  0  0  0  0  0
  -13.0906    4.3020   23.6781 C   0  0  0  0  0  0  0  0  0  0  0  0
  3  7  1  0
 11 13  1  0
  9 19  1  0
 19 20  1  6
 19 21  1  0
 21 22  1  0
 25 28  1  0
 23 29  1  0
  2 30  1  0
 14 31  1  0
 31 32  1  0
 35 37  1  0
 31 39  1  0
 39 40  2  0
 22 23  2  0
 23 24  1  0
 24 25  2  0
 25 26  1  0
 26 27  2  0
 27 22  1  0
 32 33  2  0
 33 36  1  0
 36 38  2  0
 38 35  1  0
 35 34  2  0
 34 32  1  0
  7  8  2  0
  8  9  1  0
  9 10  2  0
 10 11  1  0
 11 12  2  0
 12  7  1  0
 13 14  1  0
 14 15  2  0
 15 16  1  0
 16 17  2  0
 17 18  1  0
 18 13  2  0
  1  2  2  0
  2  5  1  0
  5  6  2  0
  6  4  1  0
  4  3  2  0
  3  1  1  0
M  END
$$$$
