No_6385-complexes_sdf/6BKW-FPZ/2024-09-17-14-21-01/
     RDKit          3D

 12 12  0  0  0  0  0  0  0  0999 V2000
   -7.9040    3.9820   27.1177 C   0  0  0  0  0  0  0  0  0  0  0  0
   -7.8663    4.8694   27.9238 C   0  0  0  0  0  0  0  0  0  0  0  0
   -7.4547    2.7080   27.4594 C   0  0  0  0  0  0  0  0  0  0  0  0
   -7.9337    1.5946   26.8372 C   0  0  0  0  0  0  0  0  0  0  0  0
   -8.9032    1.7881   25.8510 C   0  0  0  0  0  0  0  0  0  0  0  0
   -9.3787    2.9871   25.5530 C   0  0  0  0  0  0  0  0  0  0  0  0
   -8.9781    4.0300   26.2200 C   0  0  0  0  0  0  0  0  0  0  0  0
   -6.9621    5.0070   28.9320 C   0  0  0  0  0  0  0  0  0  0  0  0
   -8.6211    6.1849   27.6785 C   0  0  0  0  0  0  0  0  0  0  0  0
  -10.3503    3.0992   24.4154 C   0  0  0  0  0  0  0  0  0  0  0  0
  -10.9082    4.3238   24.1388 C   0  0  0  0  0  0  0  0  0  0  0  0
  -11.8150    4.5469   23.0949 C   0  0  0  0  0  0  0  0  0  0  0  0
  1  2  1  0
  2  8  2  0
  2  9  1  0
  6 10  1  0
 10 11  2  3
 11 12  1  0
  1  3  2  0
  3  4  1  0
  4  5  2  0
  5  6  1  0
  6  7  2  0
  7  1  1  0
M  END
$$$$
