No_6896-complexes_sdf/6BKW-FPZ/2024-09-17-14-21-01/
     RDKit          3D

 13 15  0  0  0  0  0  0  0  0999 V2000
   -7.9040    3.9820   27.1177 C   0  0  0  0  0  0  0  0  0  0  0  0
   -7.8663    4.8694   27.9238 C   0  0  0  0  0  0  0  0  0  0  0  0
   -9.0491    3.8523   26.2542 C   0  0  0  0  0  0  0  0  0  0  0  0
   -8.7661    5.9491   27.9690 C   0  0  0  0  0  0  0  0  0  0  0  0
   -9.1798    2.6731   25.4786 C   0  0  0  0  0  0  0  0  0  0  0  0
   -9.6215    5.9826   26.9318 C   0  0  0  0  0  0  0  0  0  0  0  0
   -9.7653    4.9277   26.1272 C   0  0  0  0  0  0  0  0  0  0  0  0
   -8.7012    1.4366   25.9202 C   0  0  0  0  0  0  0  0  0  0  0  0
  -10.0572    2.5972   24.3728 C   0  0  0  0  0  0  0  0  0  0  0  0
   -7.9938    1.3243   27.1664 C   0  0  0  0  0  0  0  0  0  0  0  0
   -7.3189    2.6569   27.6051 C   0  0  0  0  0  0  0  0  0  0  0  0
  -10.8448    3.6652   24.0433 C   0  0  0  0  0  0  0  0  0  0  0  0
  -10.7295    4.8566   24.9375 C   0  0  0  0  0  0  0  0  0  0  0  0
  1  2  1  0
  1  3  2  0
  2  4  1  0
  3  5  1  0
  4  6  2  0
  3  7  1  0
  6  7  1  0
  5  8  2  0
  5  9  1  0
  8 10  1  0
  1 11  1  0
 10 11  1  0
  9 12  2  0
  7 13  1  0
 12 13  1  0
M  END
$$$$
