No_6195-complexes_sdf/6BKW-FPZ/2024-09-17-14-21-01/
     RDKit          3D

 23 25  0  0  0  0  0  0  0  0999 V2000
   -7.7129    4.2099   27.0854 C   0  0  0  0  0  0  0  0  0  0  0  0
   -8.9133    4.4736   27.0998 C   0  0  0  0  0  0  0  0  0  0  0  0
  -10.0678    4.6201   26.8779 C   0  0  0  0  0  0  0  0  0  0  0  0
   -6.4347    3.9247   27.6291 C   0  0  0  0  0  0  0  0  0  0  0  0
  -11.0000    4.1128   26.6613 C   0  0  0  0  0  0  0  0  0  0  0  0
  -12.3592    4.3412   26.9924 C   0  0  0  0  0  0  0  0  0  0  0  0
  -10.9931    2.8377   25.8003 C   0  0  0  0  0  0  0  0  0  0  0  0
  -13.0043    3.6011   27.7336 C   0  0  0  0  0  0  0  0  0  0  0  0
  -14.2156    3.9307   28.4095 C   0  0  0  0  0  0  0  0  0  0  0  0
  -10.7602    2.7533   24.6867 C   0  0  0  0  0  0  0  0  0  0  0  0
  -10.4196    1.5387   24.0447 C   0  0  0  0  0  0  0  0  0  0  0  0
  -10.3622    0.4252   24.8078 C   0  0  0  0  0  0  0  0  0  0  0  0
  -10.6258    0.4857   26.1365 C   0  0  0  0  0  0  0  0  0  0  0  0
  -10.8642    1.6915   26.7344 C   0  0  0  0  0  0  0  0  0  0  0  0
  -14.7670    5.1478   28.0541 C   0  0  0  0  0  0  0  0  0  0  0  0
  -14.1603    5.9721   27.0981 C   0  0  0  0  0  0  0  0  0  0  0  0
  -12.9946    5.6398   26.6709 C   0  0  0  0  0  0  0  0  0  0  0  0
   -6.1074    2.6113   27.5141 N   0  0  0  0  0  0  0  0  0  0  0  0
   -6.8740    1.5653   27.5385 C   0  0  0  0  0  0  0  0  0  0  0  0
   -6.2876    0.2495   27.5120 C   0  0  0  0  0  0  0  0  0  0  0  0
   -4.9534    0.3856   27.7438 C   0  0  0  0  0  0  0  0  0  0  0  0
   -4.2054    1.4570   27.9767 C   0  0  0  0  0  0  0  0  0  0  0  0
   -4.7048    2.5510   27.8698 C   0  0  0  0  0  0  0  0  0  0  0  0
  1  2  3  0
  2  3  1  0
  1  4  1  0
  3  5  2  3
  5  6  1  0
  5  7  1  0
  4 18  1  0
 18 19  1  0
 20 21  1  0
 18 23  1  0
 22 23  1  0
 19 20  1  0
 21 22  1  0
  7 10  2  0
 10 11  1  0
 11 12  2  0
 12 13  1  0
 13 14  2  0
 14  7  1  0
  6  8  2  0
  8  9  1  0
  9 15  2  0
 15 16  1  0
 16 17  2  0
 17  6  1  0
M  END
$$$$
