No_6593-complexes_sdf/6BKW-FPZ/2024-09-17-14-21-01/
     RDKit          3D

 13 13  0  0  0  0  0  0  0  0999 V2000
   -7.9040    3.9820   27.1177 C   0  0  0  0  0  0  0  0  0  0  0  0
   -8.2057    2.8231   26.8733 C   0  0  0  0  0  0  0  0  0  0  0  0
   -9.2962    2.4021   26.1155 C   0  0  0  0  0  0  0  0  0  0  0  0
   -8.7358    5.0662   26.5917 C   0  0  0  0  0  0  0  0  0  0  0  0
   -9.7618    4.7023   25.7546 C   0  0  0  0  0  0  0  0  0  0  0  0
  -10.0066    3.4105   25.4922 C   0  0  0  0  0  0  0  0  0  0  0  0
   -8.3936    6.4769   26.8843 C   0  0  2  0  0  0  0  0  0  0  0  0
   -7.8988    6.9713   28.4858 Br  0  0  0  0  0  0  0  0  0  0  0  0
   -9.5312    0.9579   25.8432 C   0  0  0  0  0  0  0  0  0  0  0  0
   -8.5298    0.3613   26.0069 F   0  0  0  0  0  0  0  0  0  0  0  0
   -9.8830    0.8377   24.5456 F   0  0  0  0  0  0  0  0  0  0  0  0
  -10.5686    0.6368   26.6051 F   0  0  0  0  0  0  0  0  0  0  0  0
   -8.5886    7.5457   25.9485 C   0  0  0  0  0  0  0  0  0  0  0  0
  4  7  1  0
  7  8  1  0
  3  9  1  0
  9 10  1  0
  9 11  1  0
  9 12  1  0
  7 13  1  1
  1  2  2  0
  2  3  1  0
  3  6  2  0
  6  5  1  0
  5  4  2  0
  4  1  1  0
M  END
$$$$
