No_634-complexes_sdf/6BKW-FPZ/2024-09-17-14-21-01/
     RDKit          3D

 15 15  0  0  0  0  0  0  0  0999 V2000
   -7.9040    3.9820   27.1177 C   0  0  0  0  0  0  0  0  0  0  0  0
   -8.2057    2.8231   26.8733 C   0  0  0  0  0  0  0  0  0  0  0  0
   -8.7695    5.0740   26.7916 C   0  0  0  0  0  0  0  0  0  0  0  0
   -9.9618    4.7598   26.1630 C   0  0  0  0  0  0  0  0  0  0  0  0
   -9.4200    2.4524   26.2849 C   0  0  0  0  0  0  0  0  0  0  0  0
  -10.2590    3.4815   25.9250 C   0  0  0  0  0  0  0  0  0  0  0  0
   -8.3840    6.4693   27.0829 C   0  0  0  0  0  0  0  0  0  0  0  0
   -7.9676    7.4862   26.9931 N   0  0  0  0  0  0  0  0  0  0  0  0
   -7.1150    1.7955   27.3773 C   0  0  0  0  0  0  0  0  0  0  0  0
   -7.5692    0.7133   27.7835 F   0  0  0  0  0  0  0  0  0  0  0  0
   -6.3431    2.4016   28.2990 F   0  0  0  0  0  0  0  0  0  0  0  0
   -6.4044    1.3951   26.2419 F   0  0  0  0  0  0  0  0  0  0  0  0
  -11.5055    3.1363   25.2162 C   0  0  0  0  0  0  0  0  0  0  0  0
  -12.6248    2.9986   25.8669 C   0  0  0  0  0  0  0  0  0  0  0  0
  -13.8771    2.7230   25.2416 C   0  0  0  0  0  0  0  0  0  0  0  0
  3  7  1  0
  7  8  3  0
  2  9  1  0
  9 10  1  0
  9 11  1  0
  9 12  1  0
  6 13  1  0
 13 14  2  3
 14 15  1  0
  1  2  2  0
  2  5  1  0
  5  6  2  0
  6  4  1  0
  4  3  2  0
  3  1  1  0
M  END
$$$$
