No_6069-complexes_sdf/6BKW-FPZ/2024-09-17-14-21-01/
     RDKit          3D

 10  9  0  0  0  0  0  0  0  0999 V2000
   -7.7129    4.2099   27.0854 C   0  0  0  0  0  0  0  0  0  0  0  0
   -7.7814    5.1722   27.8972 C   0  0  0  0  0  0  0  0  0  0  0  0
   -8.7889    3.2468   27.2220 C   0  0  0  0  0  0  0  0  0  0  0  0
   -9.8927    3.4443   27.8449 C   0  0  0  0  0  0  0  0  0  0  0  0
  -10.8580    4.0567   27.3000 C   0  0  0  0  0  0  0  0  0  0  0  0
  -10.8860    4.5564   26.3452 C   0  0  0  0  0  0  0  0  0  0  0  0
  -12.0612    4.3947   28.2473 C   0  0  0  0  0  0  0  0  0  0  0  0
   -8.5729    1.9025   26.5931 C   0  0  0  0  0  0  0  0  0  0  0  0
   -7.6251    0.9810   27.1602 C   0  0  0  0  0  0  0  0  0  0  0  0
   -7.4865   -0.2919   26.6499 C   0  0  0  0  0  0  0  0  0  0  0  0
  1  2  1  0
  1  3  1  0
  3  4  1  0
  4  5  1  0
  5  6  2  0
  5  7  1  0
  3  8  1  0
  8  9  2  3
  9 10  1  0
M  END
$$$$
