No_6106-complexes_sdf/6BKW-FPZ/2024-09-17-14-21-01/
     RDKit          3D

 40 44  0  0  0  0  0  0  0  0999 V2000
   -7.9040    3.9820   27.1177 C   0  0  0  0  0  0  0  0  0  0  0  0
   -8.2057    2.8231   26.8733 C   0  0  0  0  0  0  0  0  0  0  0  0
   -8.7695    5.0740   26.7916 C   0  0  0  0  0  0  0  0  0  0  0  0
   -9.9618    4.7598   26.1630 C   0  0  0  0  0  0  0  0  0  0  0  0
   -9.4200    2.4524   26.2849 C   0  0  0  0  0  0  0  0  0  0  0  0
  -10.2590    3.4815   25.9250 C   0  0  0  0  0  0  0  0  0  0  0  0
   -8.3840    6.4693   27.0829 C   0  0  0  0  0  0  0  0  0  0  0  0
   -8.7958    7.4358   26.4217 N   0  0  0  0  0  0  0  0  0  0  0  0
   -7.3552    6.5483   27.9522 O   0  0  0  0  0  0  0  0  0  0  0  0
   -7.2837    1.6557   27.2733 C   0  0  0  0  0  0  0  0  0  0  0  0
   -6.0155    1.9580   27.8075 C   0  0  0  0  0  0  0  0  0  0  0  0
   -5.1381    0.8879   28.1779 C   0  0  0  0  0  0  0  0  0  0  0  0
   -5.5335   -0.3874   28.0415 C   0  0  0  0  0  0  0  0  0  0  0  0
   -7.5986    0.3066   27.1828 C   0  0  0  0  0  0  0  0  0  0  0  0
   -6.8352   -0.6553   27.6004 C   0  0  0  0  0  0  0  0  0  0  0  0
   -4.6345   -1.4414   28.5633 C   0  0  0  0  0  0  0  0  0  0  0  0
   -4.8028   -2.2021   29.3701 C   0  0  0  0  0  0  0  0  0  0  0  0
   -3.8039   -3.1823   29.8641 C   0  0  0  0  0  0  0  0  0  0  0  0
   -2.5790   -3.1809   29.2514 C   0  0  0  0  0  0  0  0  0  0  0  0
   -3.2494   -1.3025   27.9947 C   0  0  0  0  0  0  0  0  0  0  0  0
   -2.2692   -2.1672   28.3066 C   0  0  0  0  0  0  0  0  0  0  0  0
   -6.0381   -2.3351   30.1012 N   0  0  0  0  0  0  0  0  0  0  0  0
   -6.1476   -1.8122   31.3517 C   0  0  0  0  0  0  0  0  0  0  0  0
   -6.7307   -3.5669   29.9793 C   0  0  0  0  0  0  0  0  0  0  0  0
   -7.7611   -3.7406   30.1116 C   0  0  0  0  0  0  0  0  0  0  0  0
   -8.3162   -3.1030   31.4699 C   0  0  0  0  0  0  0  0  0  0  0  0
   -9.6486   -3.2391   31.9853 C   0  0  1  0  0  0  0  0  0  0  0  0
   -7.4355   -2.0621   31.9895 C   0  0  0  0  0  0  0  0  0  0  0  0
  -10.6831   -2.8339   31.2629 C   0  0  0  0  0  0  0  0  0  0  0  0
  -12.0295   -2.9042   31.7870 C   0  0  0  0  0  0  0  0  0  0  0  0
  -13.1268   -2.4431   31.0584 C   0  0  0  0  0  0  0  0  0  0  0  0
  -12.8819   -1.8404   29.8014 C   0  0  0  0  0  0  0  0  0  0  0  0
  -11.5977   -1.7021   29.2880 C   0  0  0  0  0  0  0  0  0  0  0  0
  -10.5246   -2.1252   30.0226 C   0  0  0  0  0  0  0  0  0  0  0  0
   -9.7590   -4.6718   32.5501 C   0  0  0  0  0  0  0  0  0  0  0  0
   -9.8323   -4.6567   33.9359 C   0  0  0  0  0  0  0  0  0  0  0  0
   -9.6180   -3.4861   34.7870 C   0  0  0  0  0  0  0  0  0  0  0  0
   -9.6765   -3.5417   36.1782 C   0  0  0  0  0  0  0  0  0  0  0  0
   -9.4565   -2.4183   37.0182 C   0  0  0  0  0  0  0  0  0  0  0  0
   -9.3612   -2.2150   38.2895 C   0  0  0  0  0  0  0  0  0  0  0  0
  3  7  1  0
  7  8  1  0
  7  9  2  0
  2 10  1  0
 13 16  1  0
 17 22  1  0
 22 23  1  0
 22 24  1  0
 25 26  1  0
 27 26  1  6
 26 28  1  0
 27 35  1  0
 35 36  2  3
 36 37  1  0
 37 38  2  3
 38 39  1  0
 39 40  2  0
 27 29  1  0
 23 28  1  0
 25 24  1  0
 10 11  2  0
 11 12  1  0
 12 13  2  0
 13 15  1  0
 15 14  2  0
 14 10  1  0
 16 17  1  0
 17 18  2  0
 18 19  1  0
 19 21  2  0
 21 20  1  0
 20 16  2  0
 29 30  2  0
 30 31  1  0
 31 32  2  0
 32 33  1  0
 33 34  2  0
 34 29  1  0
  1  2  2  0
  2  5  1  0
  5  6  2  0
  6  4  1  0
  4  3  2  0
  3  1  1  0
M  END
$$$$
