No_6444-complexes_sdf/6BKW-FPZ/2024-09-17-14-21-01/
     RDKit          3D

 19 21  0  0  0  0  0  0  0  0999 V2000
   -7.9040    3.9820   27.1177 C   0  0  0  0  0  0  0  0  0  0  0  0
   -8.2057    2.8231   26.8733 C   0  0  0  0  0  0  0  0  0  0  0  0
   -7.4766    1.7477   27.4593 C   0  0  0  0  0  0  0  0  0  0  0  0
   -8.7468    5.1251   26.6967 C   0  0  0  0  0  0  0  0  0  0  0  0
   -9.7234    4.8589   25.8202 C   0  0  0  0  0  0  0  0  0  0  0  0
   -9.9711    3.5858   25.4266 C   0  0  0  0  0  0  0  0  0  0  0  0
   -9.2266    2.4957   25.9600 C   0  0  0  0  0  0  0  0  0  0  0  0
   -7.8876    0.4499   27.3622 N   0  0  0  0  0  0  0  0  0  0  0  0
   -8.9994    0.2128   26.6064 C   0  0  0  0  0  0  0  0  0  0  0  0
   -9.7132    1.1936   25.9321 C   0  0  0  0  0  0  0  0  0  0  0  0
   -8.1736    6.4734   27.0928 C   0  0  0  0  0  0  0  0  0  0  0  0
   -9.0614    7.5065   27.1650 N   0  0  0  0  0  0  0  0  0  0  0  0
   -7.0272    6.5555   27.5847 O   0  0  0  0  0  0  0  0  0  0  0  0
   -9.3562   -1.2250   26.5086 C   0  0  0  0  0  0  0  0  0  0  0  0
  -10.5614   -1.4632   26.5762 C   0  0  0  0  0  0  0  0  0  0  0  0
  -11.0434   -2.7412   26.3786 C   0  0  0  0  0  0  0  0  0  0  0  0
   -8.4371   -2.1868   26.4678 C   0  0  0  0  0  0  0  0  0  0  0  0
   -8.7988   -3.4909   26.3359 C   0  0  0  0  0  0  0  0  0  0  0  0
  -10.1407   -3.7651   26.3361 C   0  0  0  0  0  0  0  0  0  0  0  0
  4 11  1  0
 11 12  1  0
 11 13  2  0
  9 14  1  0
  1  2  2  0
  7  6  2  0
  6  5  1  0
  5  4  2  0
  4  1  1  0
 14 15  2  0
 15 16  1  0
 16 19  2  0
 19 18  1  0
 18 17  2  0
 17 14  1  0
  2  3  1  0
  3  8  2  0
  8  9  1  0
  9 10  2  0
 10  7  1  0
  7  2  1  0
M  END
$$$$
