No_6485-complexes_sdf/6BKW-FPZ/2024-09-17-14-21-01/
     RDKit          3D

 30 33  0  0  0  0  0  0  0  0999 V2000
   -7.9040    3.9820   27.1177 C   0  0  0  0  0  0  0  0  0  0  0  0
   -8.2057    2.8231   26.8733 C   0  0  0  0  0  0  0  0  0  0  0  0
   -7.4766    1.7477   27.4593 C   0  0  0  0  0  0  0  0  0  0  0  0
   -8.7468    5.1251   26.6967 C   0  0  0  0  0  0  0  0  0  0  0  0
   -9.7234    4.8589   25.8202 C   0  0  0  0  0  0  0  0  0  0  0  0
   -9.9530    3.6960   25.4481 C   0  0  0  0  0  0  0  0  0  0  0  0
   -9.2267    2.5226   25.9518 C   0  0  0  0  0  0  0  0  0  0  0  0
   -7.8610    0.3747   27.3328 C   0  0  0  0  0  0  0  0  0  0  0  0
   -9.0236    0.2039   26.4884 C   0  0  0  0  0  0  0  0  0  0  0  0
   -9.6735    1.2193   25.7628 C   0  0  0  0  0  0  0  0  0  0  0  0
   -8.3573    6.5438   27.0943 C   0  0  0  0  0  0  0  0  0  0  0  0
   -8.0046    7.6151   27.0835 N   0  0  0  0  0  0  0  0  0  0  0  0
   -7.1937   -0.6683   27.9978 C   0  0  0  0  0  0  0  0  0  0  0  0
   -6.2402   -0.2888   28.7042 F   0  0  0  0  0  0  0  0  0  0  0  0
   -8.1197   -1.2779   28.8591 F   0  0  0  0  0  0  0  0  0  0  0  0
   -6.7962   -1.5953   27.0887 F   0  0  0  0  0  0  0  0  0  0  0  0
  -11.0458    3.4035   24.4458 C   0  0  0  0  0  0  0  0  0  0  0  0
  -12.2571    3.2024   24.8048 C   0  0  0  0  0  0  0  0  0  0  0  0
  -10.6649    3.3963   23.0716 C   0  0  0  0  0  0  0  0  0  0  0  0
  -11.4022    3.0692   22.0424 C   0  0  0  0  0  0  0  0  0  0  0  0
  -13.2282    2.9466   23.7895 C   0  0  0  0  0  0  0  0  0  0  0  0
  -12.8232    2.9771   22.4114 C   0  0  0  0  0  0  0  0  0  0  0  0
  -10.9501    0.7248   24.8418 Cl  0  0  0  0  0  0  0  0  0  0  0  0
   -6.9224    4.4125   28.0172 O   0  0  0  0  0  0  0  0  0  0  0  0
  -10.9853    3.1287   20.7004 C   0  0  1  0  0  0  0  0  0  0  0  0
  -10.1774    4.0869   20.3927 C   0  0  0  0  0  0  0  0  0  0  0  0
  -11.3339    2.0643   19.8383 C   0  0  0  0  0  0  0  0  0  0  0  0
  -12.0652    2.3939   18.6740 C   0  0  0  0  0  0  0  0  0  0  0  0
   -9.8294    5.1813   21.2592 C   0  0  0  0  0  0  0  0  0  0  0  0
  -10.0337    4.7455   22.7272 C   0  0  0  0  0  0  0  0  0  0  0  0
  4 11  1  0
 11 12  3  0
  8 13  1  0
 13 14  1  0
 13 15  1  0
 13 16  1  0
  6 17  1  0
 10 23  1  0
  1 24  1  0
 20 25  1  0
 25 26  1  0
 25 27  1  1
 27 28  2  0
 26 29  1  0
 19 30  1  0
 29 30  1  0
 17 18  2  0
 18 21  1  0
 21 22  2  0
 22 20  1  0
 20 19  2  0
 19 17  1  0
  1  2  2  0
  7  6  2  0
  6  5  1  0
  5  4  2  0
  4  1  1  0
  2  3  1  0
  3  8  2  0
  8  9  1  0
  9 10  2  0
 10  7  1  0
  7  2  1  0
M  END
$$$$
