No_6-complexes_sdf/6BKW-FPZ/2024-09-17-14-21-01/
     RDKit          3D

 13 14  0  0  0  0  0  0  0  0999 V2000
   -7.9040    3.9820   27.1177 C   0  0  0  0  0  0  0  0  0  0  0  0
   -7.8663    4.8694   27.9238 C   0  0  0  0  0  0  0  0  0  0  0  0
   -7.4698    2.6989   27.4277 C   0  0  0  0  0  0  0  0  0  0  0  0
   -7.9683    1.5964   26.8266 C   0  0  0  0  0  0  0  0  0  0  0  0
   -8.9447    1.7923   25.8533 C   0  0  0  0  0  0  0  0  0  0  0  0
   -9.4405    2.9988   25.5757 C   0  0  0  0  0  0  0  0  0  0  0  0
   -8.9424    4.1117   26.2388 C   0  0  0  0  0  0  0  0  0  0  0  0
   -8.3103    6.1970   27.6444 N   0  0  0  0  0  0  0  0  0  0  0  0
   -9.2017    6.5264   26.7040 C   0  0  0  0  0  0  0  0  0  0  0  0
   -9.5492    5.4018   25.9329 C   0  0  0  0  0  0  0  0  0  0  0  0
   -7.2252    0.3366   27.1878 C   0  0  0  0  0  0  0  0  0  0  0  0
   -7.9931   -0.7773   27.5019 C   0  0  0  0  0  0  0  0  0  0  0  0
   -7.3508   -1.9413   27.9511 C   0  0  0  0  0  0  0  0  0  0  0  0
  4 11  1  0
 11 12  2  3
 12 13  1  0
  1  2  2  0
  2  8  1  0
  8  9  2  0
  9 10  1  0
 10  7  2  0
  1  3  1  0
  3  4  2  0
  4  5  1  0
  5  6  2  0
  6  7  1  0
  7  1  1  0
M  END
$$$$
