No_6657-complexes_sdf/6BKW-FPZ/2024-09-17-14-21-01/
     RDKit          3D

 35 40  0  0  0  0  0  0  0  0999 V2000
   -7.9040    3.9820   27.1177 C   0  0  0  0  0  0  0  0  0  0  0  0
   -7.8663    4.8694   27.9238 C   0  0  0  0  0  0  0  0  0  0  0  0
   -7.4698    2.6989   27.4277 C   0  0  0  0  0  0  0  0  0  0  0  0
   -7.9683    1.5964   26.8266 C   0  0  0  0  0  0  0  0  0  0  0  0
   -8.9447    1.7923   25.8533 C   0  0  0  0  0  0  0  0  0  0  0  0
   -9.4405    2.9988   25.5757 C   0  0  0  0  0  0  0  0  0  0  0  0
   -8.9424    4.1117   26.2388 C   0  0  0  0  0  0  0  0  0  0  0  0
   -8.3103    6.1970   27.6444 N   0  0  0  0  0  0  0  0  0  0  0  0
   -9.0244    6.4093   26.6221 C   0  0  0  0  0  0  0  0  0  0  0  0
   -9.4866    5.4027   25.9016 C   0  0  0  0  0  0  0  0  0  0  0  0
   -7.3886    0.2469   27.1061 C   0  0  1  0  0  0  0  0  0  0  0  0
   -8.1592   -0.8133   27.2525 C   0  0  0  0  0  0  0  0  0  0  0  0
   -9.6033   -0.6337   27.2283 C   0  0  0  0  0  0  0  0  0  0  0  0
  -10.1482    0.3365   26.3869 C   0  0  0  0  0  0  0  0  0  0  0  0
   -9.8812    0.4985   25.6415 N   0  0  0  0  0  0  0  0  0  0  0  0
   -9.8710    0.2231   24.2850 C   0  0  0  0  0  0  0  0  0  0  0  0
  -10.1844   -1.0477   23.9410 C   0  0  0  0  0  0  0  0  0  0  0  0
   -9.5689    1.1650   23.2289 C   0  0  0  0  0  0  0  0  0  0  0  0
   -9.5631    0.8523   21.9215 C   0  0  0  0  0  0  0  0  0  0  0  0
  -10.2326   -1.3690   22.5336 C   0  0  0  0  0  0  0  0  0  0  0  0
   -9.8941   -0.4084   21.5532 C   0  0  0  0  0  0  0  0  0  0  0  0
  -10.4223   -1.6483   27.9027 C   0  0  0  0  0  0  0  0  0  0  0  0
   -9.9458   -2.5690   28.5388 C   0  0  0  0  0  0  0  0  0  0  0  0
   -8.4739   -2.7162   28.6571 C   0  0  0  0  0  0  0  0  0  0  0  0
   -7.6573   -1.8573   28.1309 C   0  0  0  0  0  0  0  0  0  0  0  0
  -10.5665   -2.7316   22.0791 C   0  0  0  0  0  0  0  0  0  0  0  0
  -10.6493   -3.6948   22.8039 C   0  0  0  0  0  0  0  0  0  0  0  0
  -11.0276   -5.0034   22.3846 C   0  0  0  0  0  0  0  0  0  0  0  0
  -11.2560   -5.1430   21.0454 C   0  0  0  0  0  0  0  0  0  0  0  0
  -11.1500   -4.0825   20.2082 C   0  0  0  0  0  0  0  0  0  0  0  0
  -10.7917   -2.8276   20.6867 C   0  0  0  0  0  0  0  0  0  0  0  0
   -5.9039    0.1592   27.0876 C   0  0  0  0  0  0  0  0  0  0  0  0
   -5.3357    0.2018   28.2271 F   0  0  0  0  0  0  0  0  0  0  0  0
   -5.5875   -1.0321   26.5413 F   0  0  0  0  0  0  0  0  0  0  0  0
   -5.3228    1.0946   26.3667 F   0  0  0  0  0  0  0  0  0  0  0  0
  4 11  1  0
  5 15  1  0
 14 15  1  0
 15 16  1  0
 20 26  1  0
 11 32  1  6
 32 33  1  0
 32 34  1  0
 32 35  1  0
 14 13  1  0
 11 12  1  0
  1  2  2  0
  2  8  1  0
  8  9  2  0
  9 10  1  0
 10  7  2  0
 12 13  2  0
 13 22  1  0
 22 23  2  0
 23 24  1  0
 24 25  2  0
 25 12  1  0
  1  3  1  0
  3  4  2  0
  4  5  1  0
  5  6  2  0
  6  7  1  0
  7  1  1  0
 16 17  2  0
 17 20  1  0
 20 21  2  0
 21 19  1  0
 19 18  2  0
 18 16  1  0
 26 27  2  0
 27 28  1  0
 28 29  2  0
 29 30  1  0
 30 31  2  0
 31 26  1  0
M  END
$$$$
