No_609-complexes_sdf/6BKW-FPZ/2024-09-17-14-21-01/
     RDKit          3D

 16 17  0  0  0  0  0  0  0  0999 V2000
   -7.9040    3.9820   27.1177 C   0  0  0  0  0  0  0  0  0  0  0  0
   -8.2057    2.8231   26.8733 C   0  0  0  0  0  0  0  0  0  0  0  0
   -8.7695    5.0740   26.7916 C   0  0  0  0  0  0  0  0  0  0  0  0
   -9.9618    4.7598   26.1630 C   0  0  0  0  0  0  0  0  0  0  0  0
   -9.4200    2.4524   26.2850 C   0  0  0  0  0  0  0  0  0  0  0  0
  -10.2590    3.4815   25.9250 C   0  0  0  0  0  0  0  0  0  0  0  0
   -8.4077    6.3768   27.0642 N   0  0  0  0  0  0  0  0  0  0  0  0
   -7.5053    7.1846   26.5719 C   0  0  0  0  0  0  0  0  0  0  0  0
   -7.2789    1.6535   27.2844 C   0  0  0  0  0  0  0  0  0  0  0  0
   -6.0239    1.9494   27.8356 C   0  0  0  0  0  0  0  0  0  0  0  0
   -5.1562    0.8690   28.1945 C   0  0  0  0  0  0  0  0  0  0  0  0
   -5.5513   -0.4020   28.0531 C   0  0  0  0  0  0  0  0  0  0  0  0
   -7.5917    0.3004   27.1843 C   0  0  0  0  0  0  0  0  0  0  0  0
   -6.8389   -0.6635   27.5994 C   0  0  0  0  0  0  0  0  0  0  0  0
   -3.5982    1.3170   28.8460 Cl  0  0  0  0  0  0  0  0  0  0  0  0
   -9.5788    7.1325   27.6507 C   0  0  0  0  0  0  0  0  0  0  0  0
  3  7  1  0
  7  8  1  0
  2  9  1  0
 11 15  1  0
  7 16  1  0
  1  2  2  0
  2  5  1  0
  5  6  2  0
  6  4  1  0
  4  3  2  0
  3  1  1  0
  9 10  2  0
 10 11  1  0
 11 12  2  0
 12 14  1  0
 14 13  2  0
 13  9  1  0
M  END
$$$$
