No_6556-complexes_sdf/6BKW-FPZ/2024-09-17-14-21-01/
     RDKit          3D

 23 25  0  0  0  0  0  0  0  0999 V2000
   -7.2496    3.8871   27.4508 C   0  0  0  0  0  0  0  0  0  0  0  0
   -7.6161    2.7143   27.1523 C   0  0  0  0  0  0  0  0  0  0  0  0
   -7.1618    1.8631   27.5232 C   0  0  0  0  0  0  0  0  0  0  0  0
   -8.0384    5.0866   27.3232 C   0  0  0  0  0  0  0  0  0  0  0  0
   -9.1223    5.1097   26.4856 C   0  0  0  0  0  0  0  0  0  0  0  0
   -8.9382    2.7289   26.5134 C   0  0  0  0  0  0  0  0  0  0  0  0
   -9.6249    3.8521   26.1646 C   0  0  0  0  0  0  0  0  0  0  0  0
   -5.7241    1.8442   28.0340 C   0  0  0  0  0  0  0  0  0  0  0  0
   -5.0669    0.5569   28.3433 C   0  0  0  0  0  0  0  0  0  0  0  0
   -5.7314   -0.5901   28.2336 C   0  0  0  0  0  0  0  0  0  0  0  0
   -7.4136    0.3743   27.4794 C   0  0  0  0  0  0  0  0  0  0  0  0
   -6.9322   -0.6714   27.8419 C   0  0  0  0  0  0  0  0  0  0  0  0
   -7.4717    6.3443   27.7344 N   0  0  0  0  0  0  0  0  0  0  0  0
   -3.6392    0.7699   28.9044 C   0  0  0  0  0  0  0  0  0  0  0  0
   -2.6042    0.7258   27.9898 Cl  0  0  0  0  0  0  0  0  0  0  0  0
   -3.5300    0.7163   30.2408 O   0  0  0  0  0  0  0  0  0  0  0  0
  -10.8396    3.7668   25.3304 C   0  0  0  0  0  0  0  0  0  0  0  0
  -10.8579    3.0135   24.2372 C   0  0  0  0  0  0  0  0  0  0  0  0
  -11.9876    3.0091   23.3882 C   0  0  0  0  0  0  0  0  0  0  0  0
  -11.9915    2.2858   22.2064 C   0  0  0  0  0  0  0  0  0  0  0  0
  -10.8713    1.4381   21.9184 C   0  0  0  0  0  0  0  0  0  0  0  0
   -9.7595    1.3997   22.7463 C   0  0  0  0  0  0  0  0  0  0  0  0
   -9.7452    2.2249   23.8773 C   0  0  0  0  0  0  0  0  0  0  0  0
  2  3  1  0
  4 13  1  0
  9 14  1  0
 14 15  1  0
 14 16  2  0
  7 17  1  0
 17 18  1  0
 18 19  2  0
 19 20  1  0
 20 21  2  0
 21 22  1  0
 22 23  2  0
 23 18  1  0
  3  8  2  0
  8  9  1  0
  9 10  2  0
 10 12  1  0
 12 11  2  0
 11  3  1  0
  1  2  2  0
  2  6  1  0
  6  7  2  0
  7  5  1  0
  5  4  2  0
  4  1  1  0
M  END
$$$$
