No_6201-complexes_sdf/6BKW-FPZ/2024-09-17-14-21-01/
     RDKit          3D

 40 43  0  0  0  0  0  0  0  0999 V2000
   -7.9040    3.9820   27.1177 C   0  0  0  0  0  0  0  0  0  0  0  0
   -8.2057    2.8231   26.8733 C   0  0  0  0  0  0  0  0  0  0  0  0
   -7.4766    1.7477   27.4593 C   0  0  0  0  0  0  0  0  0  0  0  0
   -8.7468    5.1251   26.6967 C   0  0  0  0  0  0  0  0  0  0  0  0
   -9.7234    4.8589   25.8202 C   0  0  0  0  0  0  0  0  0  0  0  0
   -9.9711    3.5858   25.4266 C   0  0  0  0  0  0  0  0  0  0  0  0
   -9.2266    2.4957   25.9600 C   0  0  0  0  0  0  0  0  0  0  0  0
   -6.6425    0.9223   26.7531 C   0  0  0  0  0  0  0  0  0  0  0  0
   -6.3555    0.0024   27.2690 C   0  0  0  0  0  0  0  0  0  0  0  0
   -6.0180   -0.8521   28.0881 C   0  0  0  0  0  0  0  0  0  0  0  0
   -5.7985   -1.4810   29.2624 C   0  0  0  0  0  0  0  0  0  0  0  0
   -5.3056   -2.0575   30.2031 C   0  0  0  0  0  0  0  0  0  0  0  0
   -8.4439    6.5183   27.0994 C   0  0  0  0  0  0  0  0  0  0  0  0
   -7.9287    7.5864   26.9753 N   0  0  0  0  0  0  0  0  0  0  0  0
   -5.0364   -2.1729   31.3211 C   0  0  0  0  0  0  0  0  0  0  0  0
   -5.4535   -1.4568   32.4239 C   0  0  0  0  0  0  0  0  0  0  0  0
   -4.9854   -1.6740   33.7629 C   0  0  0  0  0  0  0  0  0  0  0  0
   -3.9880   -2.4831   33.9736 C   0  0  0  0  0  0  0  0  0  0  0  0
   -3.4525   -2.6253   35.3026 C   0  0  0  0  0  0  0  0  0  0  0  0
   -3.8652   -2.9905   31.8037 C   0  0  0  0  0  0  0  0  0  0  0  0
   -3.3320   -3.1504   32.9978 C   0  0  0  0  0  0  0  0  0  0  0  0
   -4.0662   -3.1290   36.1721 O   0  0  0  0  0  0  0  0  0  0  0  0
   -2.2447   -2.0609   35.5294 O   0  0  0  0  0  0  0  0  0  0  0  0
  -11.0074    3.3305   24.4144 C   0  0  0  0  0  0  0  0  0  0  0  0
  -10.8959    3.9118   23.2171 C   0  0  0  0  0  0  0  0  0  0  0  0
  -11.7145    3.7105   22.1295 C   0  0  0  0  0  0  0  0  0  0  0  0
  -12.7051    2.7347   22.2742 C   0  0  0  0  0  0  0  0  0  0  0  0
  -11.9721    2.3638   24.5482 C   0  0  0  0  0  0  0  0  0  0  0  0
  -12.8222    2.0883   23.4825 C   0  0  0  0  0  0  0  0  0  0  0  0
  -13.8870    1.0609   23.6070 C   0  0  0  0  0  0  0  0  0  0  0  0
  -14.1403    0.4895   24.7116 N   0  0  0  0  0  0  0  0  0  0  0  0
  -14.9971   -0.3377   24.9616 C   0  0  0  0  0  0  0  0  0  0  0  0
  -14.7171    1.0369   22.7730 O   0  0  0  0  0  0  0  0  0  0  0  0
  -14.8285   -1.2855   25.6754 C   0  0  0  0  0  0  0  0  0  0  0  0
  -15.7620   -2.3798   25.9641 C   0  0  0  0  0  0  0  0  0  0  0  0
  -17.0029   -2.2410   25.3152 C   0  0  0  0  0  0  0  0  0  0  0  0
  -17.2191   -1.1858   24.4756 C   0  0  0  0  0  0  0  0  0  0  0  0
  -16.2595   -0.2255   24.2801 C   0  0  0  0  0  0  0  0  0  0  0  0
  -18.0390   -3.2451   25.5304 C   0  0  0  0  0  0  0  0  0  0  0  0
  -17.9913   -3.9438   26.5408 N   0  0  0  0  0  0  0  0  0  0  0  0
  2  3  1  0
  3  8  1  0
  8  9  2  3
  9 10  1  0
 10 11  2  3
 11 12  1  0
  4 13  1  0
 13 14  3  0
 18 19  1  0
 19 22  2  0
 19 23  1  0
  6 24  1  0
 29 30  1  0
 30 31  1  0
 31 32  1  0
 30 33  2  0
 36 39  1  0
 39 40  1  0
 12 15  1  0
 32 34  2  0
 34 35  1  0
 35 36  2  0
 36 37  1  0
 37 38  2  0
 38 32  1  0
  1  2  2  0
  2  7  1  0
  7  6  2  0
  6  5  1  0
  5  4  2  0
  4  1  1  0
 15 16  2  0
 16 17  1  0
 17 18  2  0
 18 21  1  0
 21 20  2  0
 20 15  1  0
 24 25  2  0
 25 26  1  0
 26 27  2  0
 27 29  1  0
 29 28  2  0
 28 24  1  0
M  END
$$$$
