No_6741-complexes_sdf/6BKW-FPZ/2024-09-17-14-21-01/
     RDKit          3D

 11 11  0  0  0  0  0  0  0  0999 V2000
   -7.9040    3.9820   27.1177 C   0  0  0  0  0  0  0  0  0  0  0  0
   -9.0711    4.3164   27.0630 C   0  0  0  0  0  0  0  0  0  0  0  0
   -9.5182    5.5541   27.5777 C   0  0  0  0  0  0  0  0  0  0  0  0
   -6.9424    4.7983   27.8424 C   0  0  0  0  0  0  0  0  0  0  0  0
   -7.3526    5.9739   28.3909 C   0  0  0  0  0  0  0  0  0  0  0  0
   -8.6479    6.3742   28.2169 C   0  0  0  0  0  0  0  0  0  0  0  0
  -10.0793    3.4689   26.3368 C   0  0  0  0  0  0  0  0  0  0  0  0
  -10.8066    3.4472   25.6317 C   0  0  0  0  0  0  0  0  0  0  0  0
  -11.5639    2.3881   25.0153 C   0  0  0  0  0  0  0  0  0  0  0  0
  -11.1954    1.1588   25.4306 C   0  0  0  0  0  0  0  0  0  0  0  0
  -10.1944    0.9723   26.3271 C   0  0  0  0  0  0  0  0  0  0  0  0
  2  7  1  0
  7  8  3  0
  8  9  1  0
  9 10  2  3
 10 11  1  0
  1  2  2  0
  2  3  1  0
  3  6  2  0
  6  5  1  0
  5  4  2  0
  4  1  1  0
M  END
$$$$
