No_6763-complexes_sdf/6BKW-FPZ/2024-09-17-14-21-01/
     RDKit          3D

 17 19  0  0  0  0  0  0  0  0999 V2000
   -7.9040    3.9820   27.1177 C   0  0  0  0  0  0  0  0  0  0  0  0
   -7.8663    4.8694   27.9238 C   0  0  0  0  0  0  0  0  0  0  0  0
   -9.0501    3.8017   26.2617 C   0  0  0  0  0  0  0  0  0  0  0  0
  -10.0189    4.7608   26.3707 C   0  0  0  0  0  0  0  0  0  0  0  0
   -8.6770    5.9780   27.9222 C   0  0  0  0  0  0  0  0  0  0  0  0
   -9.8040    5.8752   27.0958 C   0  0  0  0  0  0  0  0  0  0  0  0
   -9.1484    2.6214   25.4213 C   0  0  0  0  0  0  0  0  0  0  0  0
   -8.6431    1.4978   25.8150 N   0  0  0  0  0  0  0  0  0  0  0  0
   -8.0479    1.3613   26.9567 C   0  0  0  0  0  0  0  0  0  0  0  0
   -7.3497    2.5573   27.5092 C   0  0  0  0  0  0  0  0  0  0  0  0
   -8.9073    0.2948   25.0326 C   0  0  0  0  0  0  0  0  0  0  0  0
   -8.6578   -0.6447   25.2977 C   0  0  0  0  0  0  0  0  0  0  0  0
   -9.4690    0.7196   23.6757 C   0  0  0  0  0  0  0  0  0  0  0  0
   -8.8880   -1.8430   24.4593 C   0  0  0  0  0  0  0  0  0  0  0  0
   -9.6418   -0.3510   22.7817 C   0  0  0  0  0  0  0  0  0  0  0  0
   -9.3464   -1.6303   23.1653 C   0  0  0  0  0  0  0  0  0  0  0  0
   -9.8864    2.8103   24.4217 O   0  0  0  0  0  0  0  0  0  0  0  0
  3  7  1  0
  7  8  1  0
  8  9  1  0
  1 10  1  0
  8 11  1  0
  7 17  2  0
 10  9  1  0
 11 12  2  0
 12 14  1  0
 14 16  2  0
 16 15  1  0
 15 13  2  0
 13 11  1  0
  1  2  2  0
  2  5  1  0
  5  6  2  0
  6  4  1  0
  4  3  2  0
  3  1  1  0
M  END
$$$$
