No_6235-complexes_sdf/6BKW-FPZ/2024-09-17-14-21-01/
     RDKit          3D

 40 44  0  0  0  0  0  0  0  0999 V2000
   -7.2496    3.8871   27.4508 C   0  0  0  0  0  0  0  0  0  0  0  0
   -7.9379    4.9063   27.8518 C   0  0  0  0  0  0  0  0  0  0  0  0
   -7.4895    6.2027   27.7481 C   0  0  0  0  0  0  0  0  0  0  0  0
   -7.8057    2.6324   27.3137 C   0  0  0  0  0  0  0  0  0  0  0  0
   -9.1872    2.4678   27.5434 C   0  0  0  0  0  0  0  0  0  0  0  0
   -9.9237    3.5447   27.9999 C   0  0  0  0  0  0  0  0  0  0  0  0
   -9.3832    4.8080   28.1012 C   0  0  0  0  0  0  0  0  0  0  0  0
  -11.3761    3.3018   28.3126 C   0  0  0  0  0  0  0  0  0  0  0  0
  -12.1613    4.2179   28.5758 N   0  0  0  0  0  0  0  0  0  0  0  0
  -11.8405    1.9713   28.6111 C   0  0  0  0  0  0  0  0  0  0  0  0
  -13.4539    4.0135   28.9274 C   0  0  0  0  0  0  0  0  0  0  0  0
  -13.0633    1.7160   29.0624 C   0  0  0  0  0  0  0  0  0  0  0  0
  -13.9138    2.8079   29.2174 C   0  0  0  0  0  0  0  0  0  0  0  0
   -7.0190    1.4405   26.9266 C   0  0  0  0  0  0  0  0  0  0  0  0
   -5.9278    1.2041   27.5367 O   0  0  0  0  0  0  0  0  0  0  0  0
   -5.2790    0.0406   27.4013 C   0  0  0  0  0  0  0  0  0  0  0  0
   -4.0112    0.0986   28.0224 C   0  0  0  0  0  0  0  0  0  0  0  0
   -2.9650   -0.1898   27.2903 C   0  0  0  0  0  0  0  0  0  0  0  0
   -3.0492   -0.9358   26.1571 C   0  0  0  0  0  0  0  0  0  0  0  0
   -4.3467   -1.0466   25.5881 C   0  0  0  0  0  0  0  0  0  0  0  0
   -5.5686   -0.7609   26.4726 C   0  0  0  0  0  0  0  0  0  0  0  0
   -3.8723    0.8039   29.3955 C   0  0  0  0  0  0  0  0  0  0  0  0
   -4.1485   -0.1124   30.3653 O   0  0  0  0  0  0  0  0  0  0  0  0
   -3.4717   -0.1023   31.5171 C   0  0  1  0  0  0  0  0  0  0  0  0
   -4.0988   -0.9240   32.5815 C   0  0  2  0  0  0  0  0  0  0  0  0
   -3.7603   -2.2317   32.6835 C   0  0  1  0  0  0  0  0  0  0  0  0
   -2.8364   -2.7060   32.0917 C   0  0  0  0  0  0  0  0  0  0  0  0
   -1.8828   -1.8867   31.5617 C   0  0  0  0  0  0  0  0  0  0  0  0
   -2.1554   -0.8362   31.2549 O   0  0  0  0  0  0  0  0  0  0  0  0
   -5.5261   -0.5227   32.5561 O   0  0  0  0  0  0  0  0  0  0  0  0
   -3.9107   -2.4697   34.1097 O   0  0  0  0  0  0  0  0  0  0  0  0
   -5.1595   -2.7520   34.6300 C   0  0  0  0  0  0  0  0  0  0  0  0
   -5.8952   -3.5869   34.1593 C   0  0  0  0  0  0  0  0  0  0  0  0
   -5.4652   -4.3905   33.2818 C   0  0  0  0  0  0  0  0  0  0  0  0
   -6.0472   -5.1043   32.5974 C   0  0  0  0  0  0  0  0  0  0  0  0
   -7.5062   -5.0568   32.6973 C   0  0  0  0  0  0  0  0  0  0  0  0
   -8.1243   -4.2409   33.6502 C   0  0  0  0  0  0  0  0  0  0  0  0
   -7.2644   -3.3597   34.3122 C   0  0  0  0  0  0  0  0  0  0  0  0
   -2.5986   -4.1605   31.8992 C   0  0  0  0  0  0  0  0  0  0  0  0
   -2.9015   -4.7244   30.7596 O   0  0  0  0  0  0  0  0  0  0  0  0
  2  3  1  0
  6  8  1  0
  4 14  1  0
 14 15  1  0
 15 16  1  0
 17 22  1  0
 22 23  1  0
 24 23  1  6
 24 25  1  0
 25 26  1  0
 26 27  1  0
 27 28  2  0
 24 29  1  0
 28 29  1  0
 25 30  1  6
 26 31  1  1
 31 32  1  0
 27 39  1  0
 39 40  2  0
 32 33  1  0
  8  9  2  0
  9 11  1  0
 11 13  2  0
 13 12  1  0
 12 10  2  0
 10  8  1  0
 33 34  2  0
 34 35  1  0
 35 36  2  0
 36 37  1  0
 37 38  2  0
 38 33  1  0
  1  2  2  0
  2  7  1  0
  7  6  2  0
  6  5  1  0
  5  4  2  0
  4  1  1  0
 16 17  1  0
 17 18  2  0
 18 19  1  0
 19 20  2  0
 20 21  1  0
 21 16  2  0
M  END
$$$$
