No_6772-complexes_sdf/6BKW-FPZ/2024-09-17-14-21-01/
     RDKit          3D

 16 17  0  0  0  0  0  0  0  0999 V2000
   -7.7129    4.2099   27.0854 C   0  0  0  0  0  0  0  0  0  0  0  0
   -8.9133    4.4736   27.0998 C   0  0  0  0  0  0  0  0  0  0  0  0
   -9.7937    3.7368   26.2091 C   0  0  0  0  0  0  0  0  0  0  0  0
   -7.2495    2.8647   26.8496 C   0  0  0  0  0  0  0  0  0  0  0  0
   -8.1891    1.9790   26.3454 C   0  0  0  0  0  0  0  0  0  0  0  0
   -9.4252    2.4603   26.0121 C   0  0  0  0  0  0  0  0  0  0  0  0
   -9.3121    5.9663   27.2474 C   0  0  0  0  0  0  0  0  0  0  0  0
   -7.7466    0.5946   26.1401 C   0  0  2  0  0  0  0  0  0  0  0  0
   -6.5304   -0.0513   26.9261 Cl  0  0  0  0  0  0  0  0  0  0  0  0
   -8.3850   -0.2342   25.1523 C   0  0  0  0  0  0  0  0  0  0  0  0
   -8.5505    6.9900   27.0968 N   0  0  0  0  0  0  0  0  0  0  0  0
   -7.1910    6.8128   27.1274 C   0  0  0  0  0  0  0  0  0  0  0  0
   -6.7722    5.4876   27.2548 N   0  0  0  0  0  0  0  0  0  0  0  0
   -9.2264   -1.0495   25.4486 N   0  0  0  0  0  0  0  0  0  0  0  0
  -10.2534   -1.4316   24.8841 C   0  0  0  0  0  0  0  0  0  0  0  0
  -11.1199   -2.3501   25.4036 C   0  0  0  0  0  0  0  0  0  0  0  0
  2  7  1  0
  5  8  1  0
  8  9  1  6
  8 10  1  0
  7 11  1  0
 11 12  1  0
  1 13  1  0
 12 13  1  0
 10 14  1  0
 14 15  1  0
 15 16  2  0
  1  2  1  0
  2  3  2  0
  3  6  1  0
  6  5  2  0
  5  4  1  0
  4  1  2  0
M  END
$$$$
