No_6440-complexes_sdf/6BKW-FPZ/2024-09-17-14-21-01/
     RDKit          3D

 31 35  0  0  0  0  0  0  0  0999 V2000
   -7.2496    3.8871   27.4508 C   0  0  0  0  0  0  0  0  0  0  0  0
   -7.9379    4.9063   27.8518 C   0  0  0  0  0  0  0  0  0  0  0  0
   -9.3376    4.8647   27.7795 C   0  0  0  0  0  0  0  0  0  0  0  0
   -7.8544    2.6294   27.0414 C   0  0  0  0  0  0  0  0  0  0  0  0
   -9.2665    2.6175   27.0340 C   0  0  0  0  0  0  0  0  0  0  0  0
   -9.9836    3.7042   27.4150 C   0  0  0  0  0  0  0  0  0  0  0  0
   -9.9053    1.3367   26.6546 C   0  0  0  0  0  0  0  0  0  0  0  0
  -10.5453    0.7121   27.6210 C   0  0  0  0  0  0  0  0  0  0  0  0
  -10.9793   -0.6129   27.5217 C   0  0  0  0  0  0  0  0  0  0  0  0
  -11.6472   -1.2433   28.6069 C   0  0  0  0  0  0  0  0  0  0  0  0
   -9.7537    0.8665   25.3723 C   0  0  0  0  0  0  0  0  0  0  0  0
   -9.3101    1.6159   24.3892 C   0  0  0  0  0  0  0  0  0  0  0  0
   -9.2489    1.3206   23.0333 C   0  0  0  0  0  0  0  0  0  0  0  0
   -9.5033    0.0059   22.7456 C   0  0  0  0  0  0  0  0  0  0  0  0
   -9.8540   -0.9020   23.7264 C   0  0  0  0  0  0  0  0  0  0  0  0
   -9.9913   -0.4622   25.0016 C   0  0  0  0  0  0  0  0  0  0  0  0
  -10.7104   -1.2135   26.1953 C   0  0  0  0  0  0  0  0  0  0  0  0
  -12.8265   -0.7285   29.0571 C   0  0  0  0  0  0  0  0  0  0  0  0
   -7.2663    6.0347   27.9666 O   0  0  0  0  0  0  0  0  0  0  0  0
  -13.3636   -1.1983   30.1898 C   0  0  0  0  0  0  0  0  0  0  0  0
  -11.0488   -2.3617   29.2029 C   0  0  0  0  0  0  0  0  0  0  0  0
   -9.7765   -2.8848   28.8064 C   0  0  1  0  0  0  0  0  0  0  0  0
  -12.8501   -2.3262   30.8216 C   0  0  0  0  0  0  0  0  0  0  0  0
  -11.6299   -2.8843   30.4165 C   0  0  0  0  0  0  0  0  0  0  0  0
   -8.7536   -2.9488   28.8611 C   0  0  0  0  0  0  0  0  0  0  0  0
   -7.8563   -2.6212   29.9700 C   0  0  0  0  0  0  0  0  0  0  0  0
   -6.4603   -2.5796   29.9910 C   0  0  0  0  0  0  0  0  0  0  0  0
   -5.8727   -2.7163   28.7669 C   0  0  0  0  0  0  0  0  0  0  0  0
   -6.5728   -2.9652   27.6254 C   0  0  0  0  0  0  0  0  0  0  0  0
   -7.9229   -3.0371   27.6749 C   0  0  0  0  0  0  0  0  0  0  0  0
  -10.2966   -4.2052   27.9079 C   0  0  0  0  0  0  0  0  0  0  0  0
  5  7  1  0
  9 10  1  0
  2 19  1  0
 21 22  1  0
 22 25  1  0
 22 31  1  1
 25 26  2  0
 26 27  1  0
 27 28  2  0
 28 29  1  0
 29 30  2  0
 30 25  1  0
  1  2  2  0
  2  3  1  0
  3  6  2  0
  6  5  1  0
  5  4  2  0
  4  1  1  0
 11 12  2  0
 12 13  1  0
 13 14  2  0
 14 15  1  0
 15 16  2  0
 10 18  2  0
 18 20  1  0
 20 23  2  0
 23 24  1  0
 24 21  2  0
 21 10  1  0
  7  8  2  0
  8  9  1  0
  9 17  2  0
 17 16  1  0
 16 11  1  0
 11  7  1  0
M  END
$$$$
