No_6600-complexes_sdf/6BKW-FPZ/2024-09-17-14-21-01/
     RDKit          3D

 22 25  0  0  0  0  0  0  0  0999 V2000
   -7.9040    3.9820   27.1177 C   0  0  0  0  0  0  0  0  0  0  0  0
   -7.8663    4.8694   27.9238 C   0  0  0  0  0  0  0  0  0  0  0  0
   -7.4547    2.7080   27.4594 C   0  0  0  0  0  0  0  0  0  0  0  0
   -7.9337    1.5946   26.8372 C   0  0  0  0  0  0  0  0  0  0  0  0
   -8.9032    1.7881   25.8510 C   0  0  0  0  0  0  0  0  0  0  0  0
   -9.3787    2.9871   25.5530 C   0  0  0  0  0  0  0  0  0  0  0  0
   -8.9781    4.0300   26.2200 C   0  0  0  0  0  0  0  0  0  0  0  0
   -8.2132    6.2312   27.6173 N   0  0  0  0  0  0  0  0  0  0  0  0
   -9.1696    6.5863   26.7528 C   0  0  0  0  0  0  0  0  0  0  0  0
   -9.5393    5.4067   25.9211 C   0  0  0  0  0  0  0  0  0  0  0  0
   -7.3285    0.2615   27.1217 C   0  0  0  0  0  0  0  0  0  0  0  0
   -7.9974   -0.7983   27.1695 N   0  0  0  0  0  0  0  0  0  0  0  0
   -7.7949   -1.8289   27.9038 C   0  0  0  0  0  0  0  0  0  0  0  0
   -6.6108   -1.8504   28.6082 C   0  0  0  0  0  0  0  0  0  0  0  0
   -5.7696   -0.7236   28.6574 C   0  0  0  0  0  0  0  0  0  0  0  0
   -6.1688    0.4218   27.9969 C   0  0  0  0  0  0  0  0  0  0  0  0
   -4.4978   -0.6741   29.4231 C   0  0  0  0  0  0  0  0  0  0  0  0
   -4.4342   -0.8102   30.7031 C   0  0  0  0  0  0  0  0  0  0  0  0
   -3.3324   -0.3213   28.6797 C   0  0  0  0  0  0  0  0  0  0  0  0
   -3.2637   -0.6558   31.4460 C   0  0  0  0  0  0  0  0  0  0  0  0
   -2.0693   -0.2951   29.4197 C   0  0  0  0  0  0  0  0  0  0  0  0
   -2.0524   -0.4243   30.7526 C   0  0  0  0  0  0  0  0  0  0  0  0
  4 11  1  0
 15 17  1  0
 11 12  2  0
 12 13  1  0
 13 14  2  0
 14 15  1  0
 15 16  2  0
 16 11  1  0
  1  2  2  0
  2  8  1  0
  8  9  2  0
  9 10  1  0
 10  7  2  0
 17 18  2  0
 18 20  1  0
 20 22  2  0
 22 21  1  0
 21 19  2  0
 19 17  1  0
  1  3  1  0
  3  4  2  0
  4  5  1  0
  5  6  2  0
  6  7  1  0
  7  1  1  0
M  END
$$$$
