No_6134-complexes_sdf/6BKW-FPZ/2024-09-17-14-21-01/
     RDKit          3D

 18 18  0  0  0  0  0  0  0  0999 V2000
   -7.7129    4.2099   27.0854 C   0  0  0  0  0  0  0  0  0  0  0  0
   -8.2112    3.0637   26.9225 C   0  0  0  0  0  0  0  0  0  0  0  0
   -9.4446    2.8304   26.1868 C   0  0  0  0  0  0  0  0  0  0  0  0
   -6.6388    4.5347   28.1122 C   0  0  0  0  0  0  0  0  0  0  0  0
   -9.9448    3.9173   25.5585 C   0  0  0  0  0  0  0  0  0  0  0  0
   -9.3660    5.1901   25.7094 C   0  0  0  0  0  0  0  0  0  0  0  0
   -8.3659    5.4005   26.5436 C   0  0  0  0  0  0  0  0  0  0  0  0
  -11.1201    3.7822   24.6455 C   0  0  0  0  0  0  0  0  0  0  0  0
  -11.1351    4.4601   23.5867 F   0  0  0  0  0  0  0  0  0  0  0  0
  -12.2742    3.9923   25.3569 F   0  0  0  0  0  0  0  0  0  0  0  0
  -11.2010    2.4778   24.1810 F   0  0  0  0  0  0  0  0  0  0  0  0
   -6.6765    5.6755   28.6976 N   0  0  0  0  0  0  0  0  0  0  0  0
   -5.6144    3.7904   28.0531 O   0  0  0  0  0  0  0  0  0  0  0  0
   -7.6734    1.9167   27.4815 O   0  0  0  0  0  0  0  0  0  0  0  0
   -6.7776    1.1338   26.8419 C   0  0  0  0  0  0  0  0  0  0  0  0
   -6.9089   -0.2819   27.4581 C   0  0  0  0  0  0  0  0  0  0  0  0
   -6.0100   -0.8784   27.5973 O   0  0  0  0  0  0  0  0  0  0  0  0
   -8.1159   -0.6420   27.7987 O   0  0  0  0  0  0  0  0  0  0  0  0
  1  4  1  0
  5  8  1  0
  8  9  1  0
  8 10  1  0
  8 11  1  0
  4 12  1  0
  4 13  2  0
  2 14  1  0
 14 15  1  0
 15 16  1  0
 16 17  2  0
 16 18  1  0
  1  2  2  0
  2  3  1  0
  3  5  2  0
  5  6  1  0
  6  7  2  0
  7  1  1  0
M  END
$$$$
