No_6309-complexes_sdf/6BKW-FPZ/2024-09-17-14-21-01/
     RDKit          3D

 17 19  0  0  0  0  0  0  0  0999 V2000
   -7.7129    4.2099   27.0854 C   0  0  0  0  0  0  0  0  0  0  0  0
   -8.2112    3.0637   26.9225 C   0  0  0  0  0  0  0  0  0  0  0  0
   -8.4224    5.2106   27.8516 C   0  0  0  0  0  0  0  0  0  0  0  0
   -7.4917    1.9381   26.3986 C   0  0  0  0  0  0  0  0  0  0  0  0
   -9.7695    5.0306   28.1322 C   0  0  0  0  0  0  0  0  0  0  0  0
   -9.5975    2.7583   27.3362 C   0  0  0  0  0  0  0  0  0  0  0  0
  -10.3362    3.8115   27.9177 C   0  0  0  0  0  0  0  0  0  0  0  0
   -8.0803    0.8934   25.7621 C   0  0  0  0  0  0  0  0  0  0  0  0
   -9.5277    0.8099   25.9492 C   0  0  0  0  0  0  0  0  0  0  0  0
  -10.2755    1.6339   26.8630 C   0  0  0  0  0  0  0  0  0  0  0  0
  -11.6991    3.5618   28.4172 C   0  0  0  0  0  0  0  0  0  0  0  0
  -12.0433    2.5815   29.1556 C   0  0  0  0  0  0  0  0  0  0  0  0
  -13.3083    2.2933   29.7171 C   0  0  0  0  0  0  0  0  0  0  0  0
  -13.6131    1.1705   30.4236 C   0  0  0  0  0  0  0  0  0  0  0  0
  -12.7086    4.4896   28.0191 C   0  0  0  0  0  0  0  0  0  0  0  0
  -14.0084    4.3849   28.5254 C   0  0  0  0  0  0  0  0  0  0  0  0
  -14.3114    3.3062   29.3205 C   0  0  0  0  0  0  0  0  0  0  0  0
  7 11  1  0
 14 13  1  0
  2  4  1  0
  4  8  2  0
  8  9  1  0
  9 10  2  0
 10  6  1  0
  1  2  2  0
  2  6  1  0
  6  7  2  0
  7  5  1  0
  5  3  2  0
  3  1  1  0
 11 12  2  0
 12 13  1  0
 13 17  2  0
 17 16  1  0
 16 15  2  0
 15 11  1  0
M  END
$$$$
