No_6563-complexes_sdf/6BKW-FPZ/2024-09-17-14-21-01/
     RDKit          3D

 13 14  0  0  0  0  0  0  0  0999 V2000
   -7.2496    3.8871   27.4508 C   0  0  0  0  0  0  0  0  0  0  0  0
   -7.6161    2.7143   27.1523 C   0  0  0  0  0  0  0  0  0  0  0  0
   -8.8302    2.4659   26.5056 C   0  0  0  0  0  0  0  0  0  0  0  0
   -8.1584    5.0090   27.3234 C   0  0  0  0  0  0  0  0  0  0  0  0
   -9.3788    4.7965   26.7695 C   0  0  0  0  0  0  0  0  0  0  0  0
   -9.7028    3.5649   26.3276 C   0  0  0  0  0  0  0  0  0  0  0  0
   -6.7182    1.5519   27.3631 C   0  0  0  0  0  0  0  0  0  0  0  0
   -5.4694    1.7365   28.0694 C   0  0  0  0  0  0  0  0  0  0  0  0
   -4.5986    0.6519   28.2611 C   0  0  0  0  0  0  0  0  0  0  0  0
   -3.3986    0.8278   28.9214 C   0  0  0  0  0  0  0  0  0  0  0  0
   -5.0156   -0.6548   27.8536 C   0  0  0  0  0  0  0  0  0  0  0  0
   -6.2712   -0.8384   27.2399 C   0  0  0  0  0  0  0  0  0  0  0  0
   -7.0948    0.2747   27.0058 C   0  0  0  0  0  0  0  0  0  0  0  0
  2  7  1  0
  9 10  1  0
  7  8  2  0
  8  9  1  0
  9 11  2  0
 11 12  1  0
 12 13  2  0
 13  7  1  0
  1  2  2  0
  2  3  1  0
  3  6  2  0
  6  5  1  0
  5  4  2  0
  4  1  1  0
M  END
$$$$
