No_6590-complexes_sdf/6BKW-FPZ/2024-09-17-14-21-01/
     RDKit          3D

 26 28  0  0  0  0  0  0  0  0999 V2000
   -7.9040    3.9820   27.1177 C   0  0  0  0  0  0  0  0  0  0  0  0
   -7.8663    4.8694   27.9238 C   0  0  0  0  0  0  0  0  0  0  0  0
   -7.4547    2.7080   27.4594 C   0  0  0  0  0  0  0  0  0  0  0  0
   -8.7044    6.0412   27.8492 C   0  0  0  0  0  0  0  0  0  0  0  0
   -7.9501    1.5743   26.8848 C   0  0  0  0  0  0  0  0  0  0  0  0
   -8.8773    1.7289   25.8707 C   0  0  0  0  0  0  0  0  0  0  0  0
   -9.3953    2.9512   25.5360 C   0  0  0  0  0  0  0  0  0  0  0  0
   -8.9468    4.1059   26.2110 C   0  0  0  0  0  0  0  0  0  0  0  0
   -9.5789    5.3240   26.1884 C   0  0  0  0  0  0  0  0  0  0  0  0
   -9.3981    6.3864   26.9017 C   0  0  0  0  0  0  0  0  0  0  0  0
   -7.3400    0.2452   27.1353 C   0  0  0  0  0  0  0  0  0  0  0  0
   -8.0956   -0.8481   27.3243 C   0  0  0  0  0  0  0  0  0  0  0  0
   -9.2894   -0.8861   27.2368 C   0  0  0  0  0  0  0  0  0  0  0  0
  -10.1378   -2.0603   27.5104 C   0  0  0  0  0  0  0  0  0  0  0  0
  -11.5313   -1.9394   27.5211 C   0  0  0  0  0  0  0  0  0  0  0  0
  -12.1054   -0.6922   27.2348 C   0  0  0  0  0  0  0  0  0  0  0  0
  -11.4186    0.4328   27.0858 C   0  0  0  0  0  0  0  0  0  0  0  0
  -10.1053    0.4113   27.1686 C   0  0  0  0  0  0  0  0  0  0  0  0
   -9.1745    0.9024   25.0230 N   0  0  0  0  0  0  0  0  0  0  0  0
   -9.1401    1.1096   23.6192 C   0  0  0  0  0  0  0  0  0  0  0  0
   -9.7495    1.2016   28.1105 O   0  0  0  0  0  0  0  0  0  0  0  0
   -9.1460    0.0319   22.7493 C   0  0  0  0  0  0  0  0  0  0  0  0
   -8.1920   -0.8475   22.8219 C   0  0  0  0  0  0  0  0  0  0  0  0
   -8.1029   -1.9677   21.8902 C   0  0  0  0  0  0  0  0  0  0  0  0
   -9.0733   -2.0102   20.8456 C   0  0  0  0  0  0  0  0  0  0  0  0
  -10.0393   -1.0679   20.7730 C   0  0  0  0  0  0  0  0  0  0  0  0
  5 11  1  0
 11 12  1  0
  6 19  1  0
 19 20  1  0
 18 21  1  0
 20 22  2  3
 22 23  1  0
 23 24  2  3
 24 25  1  0
 25 26  2  0
 12 13  1  0
  1  3  1  0
  3  5  2  0
  5  6  1  0
  6  7  2  0
  7  8  1  0
 13 14  2  0
 14 15  1  0
 15 16  2  0
 16 17  1  0
 17 18  2  0
 18 13  1  0
  1  2  2  0
  2  4  1  0
  4 10  2  0
 10  9  1  0
  9  8  2  0
  8  1  1  0
M  END
$$$$
