No_6082-complexes_sdf/6BKW-FPZ/2024-09-17-14-21-01/
     RDKit          3D

 40 44  0  0  0  0  0  0  0  0999 V2000
   -7.9040    3.9820   27.1177 C   0  0  0  0  0  0  0  0  0  0  0  0
   -9.0711    4.3164   27.0630 C   0  0  0  0  0  0  0  0  0  0  0  0
   -9.5294    5.4517   27.7215 C   0  0  0  0  0  0  0  0  0  0  0  0
   -7.4336    2.7132   26.5681 C   0  0  0  0  0  0  0  0  0  0  0  0
   -8.3353    1.8569   26.0442 C   0  0  0  0  0  0  0  0  0  0  0  0
   -9.6477    2.2853   25.9146 C   0  0  0  0  0  0  0  0  0  0  0  0
  -10.0346    3.4497   26.4483 C   0  0  0  0  0  0  0  0  0  0  0  0
   -8.0665    0.4920   25.6297 C   0  0  0  0  0  0  0  0  0  0  0  0
   -7.9908    0.2642   24.4664 O   0  0  0  0  0  0  0  0  0  0  0  0
   -7.7104   -0.3653   26.5523 O   0  0  0  0  0  0  0  0  0  0  0  0
   -6.8168    4.5390   27.7955 N   0  0  0  0  0  0  0  0  0  0  0  0
   -7.1102    5.7918   28.4184 C   0  0  0  0  0  0  0  0  0  0  0  0
   -8.4620    6.2579   28.3256 C   0  0  0  0  0  0  0  0  0  0  0  0
   -7.4822   -1.4221   26.5836 C   0  0  0  0  0  0  0  0  0  0  0  0
   -7.1170   -2.2303   26.0713 C   0  0  0  0  0  0  0  0  0  0  0  0
   -7.9549   -1.9529   28.0796 C   0  0  0  0  0  0  0  0  0  0  0  0
   -8.0386   -1.3796   29.0651 C   0  0  0  0  0  0  0  0  0  0  0  0
   -8.3088   -3.4284   28.0506 C   0  0  0  0  0  0  0  0  0  0  0  0
   -7.8635   -4.2494   27.1005 C   0  0  0  0  0  0  0  0  0  0  0  0
   -7.2580   -3.6223   25.9476 C   0  0  0  0  0  0  0  0  0  0  0  0
  -11.4234    3.9135   26.1946 C   0  0  2  0  0  0  0  0  0  0  0  0
  -12.2369    3.9376   27.3199 C   0  0  0  0  0  0  0  0  0  0  0  0
  -13.0216    2.9524   27.6410 C   0  0  0  0  0  0  0  0  0  0  0  0
  -13.8106    2.9556   28.9025 C   0  0  0  0  0  0  0  0  0  0  0  0
  -13.8100    4.0944   29.6607 C   0  0  0  0  0  0  0  0  0  0  0  0
  -14.5818    4.0522   30.9014 C   0  0  0  0  0  0  0  0  0  0  0  0
  -15.0248    2.8645   31.3863 C   0  0  0  0  0  0  0  0  0  0  0  0
  -14.9607    1.7182   30.6515 C   0  0  0  0  0  0  0  0  0  0  0  0
  -14.2865    1.7364   29.4269 C   0  0  0  0  0  0  0  0  0  0  0  0
  -12.3339    1.7134   27.4218 C   0  0  0  0  0  0  0  0  0  0  0  0
  -13.2256    0.8030   26.7220 C   0  0  0  0  0  0  0  0  0  0  0  0
  -12.6241   -0.4373   26.3192 C   0  0  0  0  0  0  0  0  0  0  0  0
  -11.2864   -0.6656   26.6216 C   0  0  0  0  0  0  0  0  0  0  0  0
  -10.5889    0.1486   27.5168 C   0  0  0  0  0  0  0  0  0  0  0  0
  -11.1013    1.3292   27.8124 C   0  0  0  0  0  0  0  0  0  0  0  0
  -12.0342    3.3729   24.9662 C   0  0  0  0  0  0  0  0  0  0  0  0
  -11.4388    3.8422   23.7934 C   0  0  0  0  0  0  0  0  0  0  0  0
  -10.7290    4.9706   23.7452 C   0  0  0  0  0  0  0  0  0  0  0  0
  -11.9415    3.3121   22.5225 C   0  0  0  0  0  0  0  0  0  0  0  0
  -11.4288    3.6430   21.3179 C   0  0  0  0  0  0  0  0  0  0  0  0
  5  8  1  0
  8  9  2  0
  8 10  1  0
 10 14  1  0
 16 17  1  0
  7 21  1  0
 21 22  1  0
 22 23  2  3
 23 24  1  0
 23 30  1  0
 21 36  1  6
 36 37  1  0
 37 38  2  0
 37 39  1  0
 39 40  2  0
 24 25  2  0
 25 26  1  0
 26 27  2  0
 27 28  1  0
 28 29  2  0
 29 24  1  0
 30 31  2  0
 31 32  1  0
 32 33  2  0
 33 34  1  0
 34 35  2  0
 35 30  1  0
  2  7  1  0
  7  6  2  0
  6  5  1  0
  5  4  2  0
  4  1  1  0
  1  2  1  0
  2  3  2  0
  3 13  1  0
 13 12  2  0
 12 11  1  0
 11  1  2  0
 14 15  2  0
 15 20  1  0
 20 19  2  0
 19 18  1  0
 18 16  2  0
 16 14  1  0
M  END
$$$$
