No_6514-complexes_sdf/6BKW-FPZ/2024-09-17-14-21-01/
     RDKit          3D

 36 40  0  0  0  0  0  0  0  0999 V2000
   -7.7129    4.2099   27.0854 C   0  0  0  0  0  0  0  0  0  0  0  0
   -8.2112    3.0637   26.9225 C   0  0  0  0  0  0  0  0  0  0  0  0
   -9.4446    2.8304   26.1868 C   0  0  0  0  0  0  0  0  0  0  0  0
   -8.4697    5.3956   26.7238 C   0  0  0  0  0  0  0  0  0  0  0  0
   -8.0091    6.7588   26.9904 C   0  0  0  0  0  0  0  0  0  0  0  0
   -9.9684    3.7701   25.8634 C   0  0  0  0  0  0  0  0  0  0  0  0
   -9.5740    5.1590   25.9919 C   0  0  0  0  0  0  0  0  0  0  0  0
   -8.6781    7.8801   26.5428 C   0  0  0  0  0  0  0  0  0  0  0  0
   -7.3860    1.8219   27.3909 C   0  0  0  0  0  0  0  0  0  0  0  0
   -6.0236    1.9713   27.7237 C   0  0  0  0  0  0  0  0  0  0  0  0
   -5.2931    0.8406   28.2047 C   0  0  0  0  0  0  0  0  0  0  0  0
   -5.8548   -0.4158   28.2035 C   0  0  0  0  0  0  0  0  0  0  0  0
   -8.0287    0.5713   27.5024 C   0  0  0  0  0  0  0  0  0  0  0  0
   -7.2201   -0.5013   27.9145 C   0  0  0  0  0  0  0  0  0  0  0  0
   -3.8581    1.0627   28.5372 C   0  0  0  0  0  0  0  0  0  0  0  0
   -3.0116    0.0853   28.1730 N   0  0  0  0  0  0  0  0  0  0  0  0
   -2.3234    0.0972   26.9571 C   0  0  0  0  0  0  0  0  0  0  0  0
   -2.6205   -0.9239   29.0553 C   0  0  1  0  0  0  0  0  0  0  0  0
   -3.1012   -0.9650   30.2753 C   0  0  0  0  0  0  0  0  0  0  0  0
   -2.1740   -2.0962   28.4305 C   0  0  0  0  0  0  0  0  0  0  0  0
   -1.3962   -2.1132   27.2700 C   0  0  0  0  0  0  0  0  0  0  0  0
   -1.6991   -0.9809   26.3955 C   0  0  0  0  0  0  0  0  0  0  0  0
   -2.7424   -1.6737   31.3271 C   0  0  0  0  0  0  0  0  0  0  0  0
   -3.1807   -1.5364   32.6858 C   0  0  0  0  0  0  0  0  0  0  0  0
   -4.3067   -0.6616   32.8842 C   0  0  0  0  0  0  0  0  0  0  0  0
   -4.7456    0.1196   31.7963 C   0  0  0  0  0  0  0  0  0  0  0  0
   -4.1572    0.0031   30.6256 C   0  0  0  0  0  0  0  0  0  0  0  0
   -7.9225    6.8024   28.4719 F   0  0  0  0  0  0  0  0  0  0  0  0
   -7.9003   -1.8234   28.0738 C   0  0  0  0  0  0  0  0  0  0  0  0
   -9.1486   -1.9346   28.2236 C   0  0  0  0  0  0  0  0  0  0  0  0
   -9.8053   -3.1290   28.4711 C   0  0  0  0  0  0  0  0  0  0  0  0
   -9.0150   -4.2601   28.4798 C   0  0  0  0  0  0  0  0  0  0  0  0
   -7.6829   -4.2104   28.3499 C   0  0  0  0  0  0  0  0  0  0  0  0
   -7.0304   -2.9947   28.1920 C   0  0  0  0  0  0  0  0  0  0  0  0
   -2.5738    1.2004   26.2390 O   0  0  0  0  0  0  0  0  0  0  0  0
   -6.6625    6.8826   26.8358 F   0  0  0  0  0  0  0  0  0  0  0  0
  4  5  1  0
  5  8  1  0
  2  9  1  0
 11 15  1  0
 15 16  1  0
 16 17  1  0
 16 18  1  0
 18 19  1  1
 18 20  1  0
 17 22  1  0
 21 22  1  0
  5 28  1  0
 14 29  1  0
 17 35  2  0
  5 36  1  0
 21 20  1  0
  1  2  2  0
  2  3  1  0
  3  6  2  0
  6  7  1  0
  7  4  2  0
  4  1  1  0
  9 10  2  0
 10 11  1  0
 11 12  2  0
 12 14  1  0
 14 13  2  0
 13  9  1  0
 29 30  2  0
 30 31  1  0
 31 32  2  0
 32 33  1  0
 33 34  2  0
 34 29  1  0
 19 23  2  0
 23 24  1  0
 24 25  2  0
 25 26  1  0
 26 27  2  0
 27 19  1  0
M  END
$$$$
