No_616-complexes_sdf/6BKW-FPZ/2024-09-17-14-21-01/
     RDKit          3D

 37 43  0  0  0  0  0  0  0  0999 V2000
   -7.9040    3.9820   27.1177 C   0  0  0  0  0  0  0  0  0  0  0  0
   -7.8663    4.8694   27.9238 C   0  0  0  0  0  0  0  0  0  0  0  0
   -7.4547    2.7080   27.4594 C   0  0  0  0  0  0  0  0  0  0  0  0
   -7.9337    1.5946   26.8372 C   0  0  0  0  0  0  0  0  0  0  0  0
   -8.9032    1.7881   25.8510 C   0  0  0  0  0  0  0  0  0  0  0  0
   -9.3787    2.9871   25.5530 C   0  0  0  0  0  0  0  0  0  0  0  0
   -8.9781    4.0300   26.2200 C   0  0  0  0  0  0  0  0  0  0  0  0
   -8.2132    6.2312   27.6173 N   0  0  0  0  0  0  0  0  0  0  0  0
   -9.1014    6.5119   26.6241 C   0  0  0  0  0  0  0  0  0  0  0  0
   -9.5143    5.3947   25.8857 C   0  0  0  0  0  0  0  0  0  0  0  0
   -7.3340    0.2629   27.1258 C   0  0  0  0  0  0  0  0  0  0  0  0
   -6.0795    0.1346   27.6427 C   0  0  0  0  0  0  0  0  0  0  0  0
   -5.5309   -1.1113   27.9865 C   0  0  0  0  0  0  0  0  0  0  0  0
   -6.3507   -2.2076   27.8067 C   0  0  0  0  0  0  0  0  0  0  0  0
   -7.9069   -1.0248   27.0956 C   0  0  0  0  0  0  0  0  0  0  0  0
   -9.3806   -0.8605   26.5823 C   0  0  1  0  0  0  0  0  0  0  0  0
   -7.5097   -2.1573   27.4573 C   0  0  0  0  0  0  0  0  0  0  0  0
   -9.6769    0.2781   25.7885 C   0  0  2  0  0  0  0  0  0  0  0  0
   -9.4687   -0.1384   24.2268 C   0  0  0  0  0  0  0  0  0  0  0  0
   -9.8129   -1.3008   23.8441 C   0  0  0  0  0  0  0  0  0  0  0  0
  -10.7568   -1.9452   24.3517 C   0  0  0  0  0  0  0  0  0  0  0  0
   -9.9006   -2.0675   26.0066 C   0  0  2  0  0  0  0  0  0  0  0  0
  -10.0821   -3.2889   26.6897 C   0  0  1  0  0  0  0  0  0  0  0  0
  -11.2077    0.6814   25.8597 C   0  0  0  0  0  0  0  0  0  0  0  0
  -11.9389   -0.0407   26.5876 C   0  0  0  0  0  0  0  0  0  0  0  0
  -13.2873    0.4029   26.8657 C   0  0  0  0  0  0  0  0  0  0  0  0
  -11.1728   -3.5234   27.4159 C   0  0  0  0  0  0  0  0  0  0  0  0
   -9.1185   -4.3451   26.4262 C   0  0  0  0  0  0  0  0  0  0  0  0
   -8.5567   -4.6289   25.4040 C   0  0  0  0  0  0  0  0  0  0  0  0
   -7.7972   -5.4556   25.1185 C   0  0  0  0  0  0  0  0  0  0  0  0
   -7.0766   -5.6317   23.8269 C   0  0  0  0  0  0  0  0  0  0  0  0
  -13.7210    1.4964   26.2189 C   0  0  0  0  0  0  0  0  0  0  0  0
  -12.9531    2.2692   25.3847 C   0  0  0  0  0  0  0  0  0  0  0  0
  -11.6609    1.9009   25.2378 C   0  0  0  0  0  0  0  0  0  0  0  0
  -10.6234    2.9691   24.9086 C   0  0  0  0  0  0  0  0  0  0  0  0
  -12.3694   -3.5459   27.2486 C   0  0  0  0  0  0  0  0  0  0  0  0
  -13.3330   -3.9092   27.8989 C   0  0  0  0  0  0  0  0  0  0  0  0
  4 11  1  0
 16 15  1  6
  5 18  1  0
 16 18  1  0
 18 19  1  6
 19 20  1  0
 16 22  1  0
 22 21  1  1
 22 23  1  0
 18 24  1  0
 23 27  1  6
 23 28  1  0
 28 29  2  3
 29 30  1  0
 30 31  2  0
  6 35  1  0
 34 35  1  0
 27 36  2  3
 36 37  1  0
 21 20  1  0
  1  2  2  0
  2  8  1  0
  8  9  2  0
  9 10  1  0
 10  7  2  0
  1  3  1  0
  3  4  2  0
  4  5  1  0
  5  6  2  0
  6  7  1  0
  7  1  1  0
 24 25  2  0
 25 26  1  0
 26 32  2  0
 32 33  1  0
 33 34  2  0
 34 24  1  0
 11 12  2  0
 12 13  1  0
 13 14  2  0
 14 17  1  0
 17 15  2  0
 15 11  1  0
M  END
$$$$
