No_6040-complexes_sdf/6BKW-FPZ/2024-09-17-14-21-01/
     RDKit          3D

 13 13  0  0  0  0  0  0  0  0999 V2000
   -7.7129    4.2099   27.0854 C   0  0  0  0  0  0  0  0  0  0  0  0
   -8.9133    4.4736   27.0998 C   0  0  0  0  0  0  0  0  0  0  0  0
   -9.7135    3.9633   26.0300 C   0  0  0  0  0  0  0  0  0  0  0  0
   -7.1708    2.9509   26.6517 C   0  0  0  0  0  0  0  0  0  0  0  0
   -8.1422    2.1350   26.0104 C   0  0  0  0  0  0  0  0  0  0  0  0
   -9.3363    2.7131   25.6563 C   0  0  0  0  0  0  0  0  0  0  0  0
   -9.2657    5.9651   27.4012 C   0  0  0  0  0  0  0  0  0  0  0  0
   -7.7451    0.7860   25.6444 C   0  0  0  0  0  0  0  0  0  0  0  0
   -8.2795    0.0657   26.1028 F   0  0  0  0  0  0  0  0  0  0  0  0
   -6.9157    0.6290   24.7412 F   0  0  0  0  0  0  0  0  0  0  0  0
  -10.3009    5.9207   28.1627 F   0  0  0  0  0  0  0  0  0  0  0  0
   -8.3627    6.4536   28.4103 F   0  0  0  0  0  0  0  0  0  0  0  0
   -9.2493    6.8123   26.4772 F   0  0  0  0  0  0  0  0  0  0  0  0
  2  7  1  0
  5  8  1  0
  8  9  1  0
  8 10  1  0
  7 11  1  0
  7 12  1  0
  7 13  1  0
  1  2  2  0
  2  3  1  0
  3  6  2  0
  6  5  1  0
  5  4  2  0
  4  1  1  0
M  END
$$$$
