No_614-complexes_sdf/6BKW-FPZ/2024-09-17-14-21-01/
     RDKit          3D

 12 13  0  0  0  0  0  0  0  0999 V2000
   -7.9040    3.9820   27.1177 C   0  0  0  0  0  0  0  0  0  0  0  0
   -7.8663    4.8694   27.9238 C   0  0  0  0  0  0  0  0  0  0  0  0
   -9.0491    3.8523   26.2542 C   0  0  0  0  0  0  0  0  0  0  0  0
   -8.7661    5.9491   27.9690 C   0  0  0  0  0  0  0  0  0  0  0  0
   -9.9279    4.8544   26.1938 C   0  0  0  0  0  0  0  0  0  0  0  0
   -9.8044    5.9413   27.0782 C   0  0  0  0  0  0  0  0  0  0  0  0
   -6.9762    2.7951   27.2180 C   0  0  0  0  0  0  0  0  0  0  0  0
   -5.8368    2.8809   28.0058 C   0  0  0  0  0  0  0  0  0  0  0  0
   -7.4184    1.5041   26.7829 C   0  0  0  0  0  0  0  0  0  0  0  0
   -4.9494    1.7698   28.1155 C   0  0  0  0  0  0  0  0  0  0  0  0
   -5.3814    0.5213   27.7299 C   0  0  0  0  0  0  0  0  0  0  0  0
   -6.6219    0.4036   27.1183 C   0  0  0  0  0  0  0  0  0  0  0  0
  1  7  1  0
  1  2  2  0
  2  4  1  0
  4  6  2  0
  6  5  1  0
  5  3  2  0
  3  1  1  0
  7  8  2  0
  8 10  1  0
 10 11  2  0
 11 12  1  0
 12  9  2  0
  9  7  1  0
M  END
$$$$
