No_6104-complexes_sdf/6BKW-FPZ/2024-09-17-14-21-01/
     RDKit          3D

 21 23  0  0  0  0  0  0  0  0999 V2000
   -7.9040    3.9820   27.1177 C   0  0  0  0  0  0  0  0  0  0  0  0
   -8.2057    2.8231   26.8733 C   0  0  0  0  0  0  0  0  0  0  0  0
   -7.0130    4.3706   28.1140 C   0  0  0  0  0  0  0  0  0  0  0  0
   -7.4093    1.7370   27.3857 C   0  0  0  0  0  0  0  0  0  0  0  0
   -6.1943    2.1490   28.0403 C   0  0  0  0  0  0  0  0  0  0  0  0
   -5.9708    3.4680   28.3199 C   0  0  0  0  0  0  0  0  0  0  0  0
   -8.9091    5.0939   26.7085 C   0  0  1  0  0  0  0  0  0  0  0  0
   -9.0401    6.2709   27.4394 C   0  0  0  0  0  0  0  0  0  0  0  0
   -9.5816    4.9093   25.4686 C   0  0  0  0  0  0  0  0  0  0  0  0
   -5.2338    1.0851   28.4036 C   0  0  0  0  0  0  0  0  0  0  0  0
   -4.4830    0.7808   27.6151 F   0  0  0  0  0  0  0  0  0  0  0  0
   -5.9155   -0.0656   28.8296 F   0  0  0  0  0  0  0  0  0  0  0  0
   -4.4838    1.4719   29.4949 F   0  0  0  0  0  0  0  0  0  0  0  0
  -10.2553    3.9685   25.0087 C   0  0  0  0  0  0  0  0  0  0  0  0
  -10.8890    4.0521   23.7318 C   0  0  0  0  0  0  0  0  0  0  0  0
  -11.6724    3.0665   23.2050 C   0  0  0  0  0  0  0  0  0  0  0  0
  -11.6707    1.8582   23.8342 C   0  0  0  0  0  0  0  0  0  0  0  0
  -11.0413    1.6557   25.0031 C   0  0  0  0  0  0  0  0  0  0  0  0
  -10.2930    2.7030   25.5781 C   0  0  0  0  0  0  0  0  0  0  0  0
   -9.3088    2.3170   26.0908 C   0  0  0  0  0  0  0  0  0  0  0  0
  -12.5437    0.9507   23.2753 F   0  0  0  0  0  0  0  0  0  0  0  0
  1  7  1  0
  7  8  1  6
  7  9  1  0
  5 10  1  0
 10 11  1  0
 10 12  1  0
 10 13  1  0
  2 20  1  0
 19 20  1  0
 17 21  1  0
  9 14  1  0
  1  2  2  0
  2  4  1  0
  4  5  2  0
  5  6  1  0
  6  3  2  0
  3  1  1  0
 14 15  2  0
 15 16  1  0
 16 17  2  0
 17 18  1  0
 18 19  2  0
 19 14  1  0
M  END
$$$$
