No_6979-complexes_sdf/6BKW-FPZ/2024-09-17-14-21-01/
     RDKit          3D

 19 20  0  0  0  0  0  0  0  0999 V2000
   -7.2496    3.8871   27.4508 C   0  0  0  0  0  0  0  0  0  0  0  0
   -8.5096    4.0291   27.2770 C   0  0  0  0  0  0  0  0  0  0  0  0
   -9.2677    5.1714   27.5773 C   0  0  0  0  0  0  0  0  0  0  0  0
   -6.5711    2.6400   27.2842 C   0  0  0  0  0  0  0  0  0  0  0  0
   -7.2939    1.5094   27.0532 C   0  0  1  0  0  0  0  0  0  0  0  0
   -8.6122    1.6580   26.7575 C   0  0  0  0  0  0  0  0  0  0  0  0
   -9.2984    2.8495   26.9904 C   0  0  2  0  0  0  0  0  0  0  0  0
   -9.2193    6.1529   26.7038 C   0  0  0  0  0  0  0  0  0  0  0  0
   -6.4008    0.3389   26.8905 C   0  0  0  0  0  0  0  0  0  0  0  0
   -6.6786   -0.5455   26.1552 O   0  0  0  0  0  0  0  0  0  0  0  0
   -5.4755    0.1936   27.7984 F   0  0  0  0  0  0  0  0  0  0  0  0
   -8.5767    7.4327   27.1211 C   0  0  0  0  0  0  0  0  0  0  0  0
   -9.2643    5.8727   25.3315 C   0  0  0  0  0  0  0  0  0  0  0  0
  -10.7208    2.8856   26.7425 C   0  0  0  0  0  0  0  0  0  0  0  0
  -11.3181    1.9728   26.2765 C   0  0  0  0  0  0  0  0  0  0  0  0
  -12.7796    1.9142   26.1875 C   0  0  0  0  0  0  0  0  0  0  0  0
  -13.4310    3.0524   26.6337 C   0  0  0  0  0  0  0  0  0  0  0  0
  -12.7506    4.1960   27.1426 C   0  0  0  0  0  0  0  0  0  0  0  0
  -11.4545    4.0964   27.2357 C   0  0  0  0  0  0  0  0  0  0  0  0
  1  2  1  0
  2  3  2  3
  1  4  1  0
  4  5  1  0
  5  6  1  0
  2  7  1  0
  6  7  1  0
  3  8  1  0
  5  9  1  6
  9 10  2  0
  9 11  1  0
  8 12  1  0
  8 13  1  0
  7 14  1  6
 14 15  2  0
 15 16  1  0
 16 17  2  0
 17 18  1  0
 18 19  2  0
 19 14  1  0
M  END
$$$$
