No_669-complexes_sdf/6BKW-FPZ/2024-09-17-14-21-01/
     RDKit          3D

 24 26  0  0  0  0  0  0  0  0999 V2000
   -7.9040    3.9820   27.1177 C   0  0  0  0  0  0  0  0  0  0  0  0
   -8.2057    2.8231   26.8733 C   0  0  0  0  0  0  0  0  0  0  0  0
   -9.2962    2.4021   26.1155 C   0  0  0  0  0  0  0  0  0  0  0  0
   -8.7359    5.0662   26.5917 C   0  0  0  0  0  0  0  0  0  0  0  0
   -9.7618    4.7022   25.7546 C   0  0  0  0  0  0  0  0  0  0  0  0
  -10.0066    3.4105   25.4922 C   0  0  0  0  0  0  0  0  0  0  0  0
   -8.3943    6.4760   26.8801 C   0  0  0  0  0  0  0  0  0  0  0  0
   -8.0574    7.5061   27.0291 N   0  0  0  0  0  0  0  0  0  0  0  0
   -7.4093    1.7539   27.4592 N   0  0  0  0  0  0  0  0  0  0  0  0
   -7.6351    0.4321   27.3712 C   0  0  0  0  0  0  0  0  0  0  0  0
   -6.5486   -0.4096   27.7285 C   0  0  0  0  0  0  0  0  0  0  0  0
   -5.3997   -0.0395   28.0153 C   0  0  0  0  0  0  0  0  0  0  0  0
   -5.1456    1.4598   28.0187 C   0  0  0  0  0  0  0  0  0  0  0  0
   -6.0339    2.2579   27.6193 C   0  0  0  0  0  0  0  0  0  0  0  0
   -4.2987   -0.9180   28.4441 C   0  0  0  0  0  0  0  0  0  0  0  0
   -3.2093   -0.5926   28.7987 C   0  0  0  0  0  0  0  0  0  0  0  0
   -2.1439   -1.5037   29.2179 C   0  0  0  0  0  0  0  0  0  0  0  0
   -2.4172   -2.7928   29.2134 C   0  0  0  0  0  0  0  0  0  0  0  0
   -4.5249   -2.2995   28.5340 C   0  0  0  0  0  0  0  0  0  0  0  0
   -3.6261   -3.1961   28.8725 C   0  0  0  0  0  0  0  0  0  0  0  0
  -11.1067    3.0929   24.5600 C   0  0  2  0  0  0  0  0  0  0  0  0
  -12.3328    2.7361   25.0405 C   0  0  0  0  0  0  0  0  0  0  0  0
  -10.8724    3.0977   23.1530 C   0  0  0  0  0  0  0  0  0  0  0  0
  -10.1045    3.3272   22.4794 C   0  0  0  0  0  0  0  0  0  0  0  0
  4  7  1  0
  7  8  3  0
  2  9  1  0
  9 10  1  0
 11 12  1  0
  9 14  1  0
 13 14  1  0
 12 15  1  0
  6 21  1  0
 21 22  1  1
 21 23  1  0
 23 24  2  0
 10 11  1  0
 12 13  1  0
 15 16  2  0
 16 17  1  0
 17 18  2  0
 18 20  1  0
 20 19  2  0
 19 15  1  0
  1  2  2  0
  2  3  1  0
  3  6  2  0
  6  5  1  0
  5  4  2  0
  4  1  1  0
M  END
$$$$
