No_6365-complexes_sdf/6BKW-FPZ/2024-09-17-14-21-01/
     RDKit          3D

 26 29  0  0  0  0  0  0  0  0999 V2000
   -7.7129    4.2099   27.0854 C   0  0  0  0  0  0  0  0  0  0  0  0
   -7.7814    5.1722   27.8972 C   0  0  0  0  0  0  0  0  0  0  0  0
   -7.3155    2.9699   27.6145 C   0  0  0  0  0  0  0  0  0  0  0  0
   -7.9010    1.7962   27.2023 C   0  0  0  0  0  0  0  0  0  0  0  0
   -8.9847    1.8780   26.3510 C   0  0  0  0  0  0  0  0  0  0  0  0
   -9.4383    3.0861   25.8930 C   0  0  0  0  0  0  0  0  0  0  0  0
   -9.1521    4.1270   26.6348 C   0  0  0  0  0  0  0  0  0  0  0  0
   -8.6428    6.2424   27.6148 N   0  0  0  0  0  0  0  0  0  0  0  0
   -9.5783    5.5136   26.7554 C   0  0  0  0  0  0  0  0  0  0  0  0
  -10.5596    3.2107   24.9657 C   0  0  0  0  0  0  0  0  0  0  0  0
  -11.3571    3.8126   24.7541 C   0  0  0  0  0  0  0  0  0  0  0  0
  -10.1770    2.2669   23.7427 C   0  0  0  0  0  0  0  0  0  0  0  0
  -10.7669    2.4321   22.5301 C   0  0  0  0  0  0  0  0  0  0  0  0
  -12.2237    4.1161   23.6325 C   0  0  0  0  0  0  0  0  0  0  0  0
  -11.8924    3.3454   22.5113 C   0  0  0  0  0  0  0  0  0  0  0  0
   -7.2298    0.4703   27.4824 C   0  0  0  0  0  0  0  0  0  0  0  0
   -5.9187    0.3274   27.8286 C   0  0  0  0  0  0  0  0  0  0  0  0
   -5.2779   -0.6228   28.1322 C   0  0  0  0  0  0  0  0  0  0  0  0
   -5.9699   -1.8767   28.1820 C   0  0  0  0  0  0  0  0  0  0  0  0
   -7.9104   -0.7077   27.5047 C   0  0  0  0  0  0  0  0  0  0  0  0
   -7.3230   -1.8684   27.8958 C   0  0  0  0  0  0  0  0  0  0  0  0
   -3.8021   -0.6678   28.5545 C   0  0  1  0  0  0  0  0  0  0  0  0
   -3.0100    0.0645   27.7159 C   0  0  0  0  0  0  0  0  0  0  0  0
   -3.2832   -1.2559   29.6925 C   0  0  0  0  0  0  0  0  0  0  0  0
   -2.6923   -0.3448   26.4571 C   0  0  0  0  0  0  0  0  0  0  0  0
   -2.4858   -2.1526   29.7347 C   0  0  0  0  0  0  0  0  0  0  0  0
  1  2  1  0
  2  8  1  0
  7  9  1  0
  8  9  2  0
  6 10  1  0
  4 16  1  0
 18 22  1  0
 22 23  1  1
 22 24  1  0
 23 25  1  0
 24 26  2  0
 16 17  2  0
 17 18  1  0
 18 19  2  0
 19 21  1  0
 21 20  2  0
 20 16  1  0
 10 11  2  0
 11 14  1  0
 14 15  2  0
 15 13  1  0
 13 12  2  0
 12 10  1  0
  1  3  2  0
  3  4  1  0
  4  5  2  0
  5  6  1  0
  6  7  2  0
  7  1  1  0
M  END
$$$$
