No_6779-complexes_sdf/6BKW-FPZ/2024-09-17-14-21-01/
     RDKit          3D

 19 20  0  0  0  0  0  0  0  0999 V2000
   -7.7129    4.2099   27.0854 C   0  0  0  0  0  0  0  0  0  0  0  0
   -7.7814    5.1722   27.8972 C   0  0  0  0  0  0  0  0  0  0  0  0
   -8.8998    3.8713   26.3707 C   0  0  0  0  0  0  0  0  0  0  0  0
   -8.9563    2.6796   25.5490 C   0  0  0  0  0  0  0  0  0  0  0  0
   -8.8131    6.1334   27.9344 C   0  0  0  0  0  0  0  0  0  0  0  0
   -9.9804    5.8121   27.1929 C   0  0  0  0  0  0  0  0  0  0  0  0
   -9.9861    4.6836   26.4532 C   0  0  0  0  0  0  0  0  0  0  0  0
   -9.6406    2.6069   24.5227 O   0  0  0  0  0  0  0  0  0  0  0  0
   -8.1837    1.6657   25.8903 O   0  0  0  0  0  0  0  0  0  0  0  0
   -8.3690    0.4176   25.3171 C   0  0  0  0  0  0  0  0  0  0  0  0
   -7.3987   -0.3993   25.4755 C   0  0  0  0  0  0  0  0  0  0  0  0
   -6.4993   -0.2786   26.5707 C   0  0  0  0  0  0  0  0  0  0  0  0
   -6.2044   -1.4352   27.3377 C   0  0  0  0  0  0  0  0  0  0  0  0
   -5.3780   -1.2440   28.5394 C   0  0  0  0  0  0  0  0  0  0  0  0
   -4.8549    0.0661   28.8611 C   0  0  0  0  0  0  0  0  0  0  0  0
   -5.2113    1.1405   28.0089 C   0  0  0  0  0  0  0  0  0  0  0  0
   -5.9784    0.9413   26.9475 C   0  0  0  0  0  0  0  0  0  0  0  0
   -3.9810    0.2703   30.0139 C   0  0  0  0  0  0  0  0  0  0  0  0
   -3.1721   -0.2318   30.7240 N   0  0  0  0  0  0  0  0  0  0  0  0
  3  4  1  0
  4  8  2  0
  4  9  1  0
  9 10  1  0
 10 11  1  0
 11 12  1  0
 15 18  1  0
 18 19  3  0
 12 13  2  0
 13 14  1  0
 14 15  2  0
 15 16  1  0
 16 17  2  0
 17 12  1  0
  1  2  2  0
  2  5  1  0
  5  6  2  0
  6  7  1  0
  7  3  2  0
  3  1  1  0
M  END
$$$$
