No_6139-complexes_sdf/6BKW-FPZ/2024-09-17-14-21-01/
     RDKit          3D

 10 10  0  0  0  0  0  0  0  0999 V2000
   -7.7129    4.2099   27.0854 C   0  0  0  0  0  0  0  0  0  0  0  0
   -8.9133    4.4736   27.0998 C   0  0  0  0  0  0  0  0  0  0  0  0
   -9.7937    3.7367   26.2091 C   0  0  0  0  0  0  0  0  0  0  0  0
   -7.2496    2.8647   26.8496 C   0  0  0  0  0  0  0  0  0  0  0  0
   -8.1891    1.9790   26.3454 C   0  0  0  0  0  0  0  0  0  0  0  0
   -9.4252    2.4603   26.0121 C   0  0  0  0  0  0  0  0  0  0  0  0
   -9.3121    5.9663   27.2474 C   0  0  0  0  0  0  0  0  0  0  0  0
   -7.5463    0.6286   26.1607 C   0  0  0  0  0  0  0  0  0  0  0  0
   -7.7962   -0.0187   25.1278 N   0  0  0  0  0  0  0  0  0  0  0  0
   -7.1448   -1.2206   24.9893 C   0  0  0  0  0  0  0  0  0  0  0  0
  2  7  1  0
  5  8  1  0
  8  9  2  3
  9 10  1  0
  1  2  2  0
  2  3  1  0
  3  6  2  0
  6  5  1  0
  5  4  2  0
  4  1  1  0
M  END
$$$$
