No_6572-complexes_sdf/6BKW-FPZ/2024-09-17-14-21-01/
     RDKit          3D

 30 33  0  0  0  0  0  0  0  0999 V2000
   -7.9040    3.9820   27.1177 C   0  0  0  0  0  0  0  0  0  0  0  0
   -9.0711    4.3164   27.0630 C   0  0  0  0  0  0  0  0  0  0  0  0
   -9.9692    3.7224   26.1073 C   0  0  0  0  0  0  0  0  0  0  0  0
   -6.9787    4.6761   28.1003 C   0  0  0  0  0  0  0  0  0  0  0  0
  -11.1978    4.2793   25.7845 C   0  0  0  0  0  0  0  0  0  0  0  0
  -11.9722    3.7671   24.7671 C   0  0  0  0  0  0  0  0  0  0  0  0
  -11.4321    2.7931   23.9433 C   0  0  0  0  0  0  0  0  0  0  0  0
  -10.2070    2.2970   24.1835 C   0  0  0  0  0  0  0  0  0  0  0  0
   -9.3944    2.8078   25.1975 C   0  0  0  0  0  0  0  0  0  0  0  0
   -7.5140    5.6743   28.8888 C   0  0  0  0  0  0  0  0  0  0  0  0
   -9.4880    5.3919   27.8970 C   0  0  0  0  0  0  0  0  0  0  0  0
   -8.7303    6.0841   28.7261 C   0  0  0  0  0  0  0  0  0  0  0  0
  -12.2417    2.2051   22.8408 C   0  0  0  0  0  0  0  0  0  0  0  0
  -11.7145    1.7063   21.9061 C   0  0  0  0  0  0  0  0  0  0  0  0
  -10.2727    1.1484   22.0296 C   0  0  0  0  0  0  0  0  0  0  0  0
   -9.5278    1.4708   23.1613 C   0  0  0  0  0  0  0  0  0  0  0  0
   -5.7125    4.1887   28.2161 O   0  0  0  0  0  0  0  0  0  0  0  0
  -12.3733    1.0872   20.6945 C   0  0  0  0  0  0  0  0  0  0  0  0
  -13.3325    0.1640   21.0165 C   0  0  0  0  0  0  0  0  0  0  0  0
  -14.0861   -0.3185   20.0496 C   0  0  0  0  0  0  0  0  0  0  0  0
  -13.8492    0.0735   18.6713 C   0  0  0  0  0  0  0  0  0  0  0  0
  -12.8391    0.9587   18.3756 C   0  0  0  0  0  0  0  0  0  0  0  0
  -12.0237    1.5333   19.4030 C   0  0  0  0  0  0  0  0  0  0  0  0
  -13.3045    4.3115   24.5836 C   0  0  1  0  0  0  0  0  0  0  0  0
  -13.8027    4.5996   23.4086 N   0  0  0  0  0  0  0  0  0  0  0  0
  -14.9901    5.1737   23.2141 C   0  0  0  0  0  0  0  0  0  0  0  0
  -14.2614    4.4326   25.9938 Cl  0  0  0  0  0  0  0  0  0  0  0  0
  -15.4754    5.8394   24.0213 C   0  0  0  0  0  0  0  0  0  0  0  0
  -15.4759    6.5626   24.7924 C   0  0  0  0  0  0  0  0  0  0  0  0
  -15.4940    6.4725   26.2252 C   0  0  0  0  0  0  0  0  0  0  0  0
  2  3  1  0
  4 17  1  0
 14 18  1  0
  6 24  1  0
 24 25  1  0
 25 26  1  0
 24 27  1  6
 26 28  2  3
 28 29  1  0
 29 30  2  0
 18 19  2  0
 19 20  1  0
 20 21  2  0
 21 22  1  0
 22 23  2  0
 23 18  1  0
  3  5  2  0
  5  6  1  0
  6  7  2  0
  8  9  2  0
  9  3  1  0
  7  8  1  0
  8 16  1  0
 16 15  2  0
 15 14  1  0
 14 13  2  0
 13  7  1  0
  1  2  2  0
  2 11  1  0
 11 12  2  0
 12 10  1  0
 10  4  2  0
  4  1  1  0
M  END
$$$$
