No_6073-complexes_sdf/6BKW-FPZ/2024-09-17-14-21-01/
     RDKit          3D

 10 11  0  0  0  0  0  0  0  0999 V2000
   -7.7129    4.2099   27.0854 C   0  0  0  0  0  0  0  0  0  0  0  0
   -7.7814    5.1722   27.8972 C   0  0  0  0  0  0  0  0  0  0  0  0
   -8.8998    3.8713   26.3707 C   0  0  0  0  0  0  0  0  0  0  0  0
   -9.1401    2.5906   25.9433 C   0  0  0  0  0  0  0  0  0  0  0  0
   -8.5962    6.2844   27.4570 C   0  0  0  0  0  0  0  0  0  0  0  0
   -8.5087    1.5506   26.5766 C   0  0  0  0  0  0  0  0  0  0  0  0
   -7.3087    1.7840   27.3703 C   0  0  0  0  0  0  0  0  0  0  0  0
   -7.0907    3.0225   27.7290 C   0  0  0  0  0  0  0  0  0  0  0  0
   -9.6473    4.9555   25.9239 C   0  0  0  0  0  0  0  0  0  0  0  0
   -9.4965    6.2455   26.4530 C   0  0  0  0  0  0  0  0  0  0  0  0
  3  4  1  0
  4  6  2  0
  6  7  1  0
  7  8  2  0
  8  1  1  0
  1  2  2  0
  2  5  1  0
  5 10  2  0
 10  9  1  0
  9  3  2  0
  3  1  1  0
M  END
$$$$
