No_6836-complexes_sdf/6BKW-FPZ/2024-09-17-14-21-01/
     RDKit          3D

 33 36  0  0  0  0  0  0  0  0999 V2000
   -7.7129    4.2099   27.0854 C   0  0  0  0  0  0  0  0  0  0  0  0
   -8.2112    3.0637   26.9225 C   0  0  0  0  0  0  0  0  0  0  0  0
   -9.4446    2.8304   26.1868 C   0  0  0  0  0  0  0  0  0  0  0  0
   -8.4697    5.3956   26.7238 C   0  0  0  0  0  0  0  0  0  0  0  0
   -9.6172    5.2111   25.9513 C   0  0  0  0  0  0  0  0  0  0  0  0
  -10.0424    3.9782   25.6873 C   0  0  0  0  0  0  0  0  0  0  0  0
   -7.3251    1.9116   27.4398 C   0  0  0  0  0  0  0  0  0  0  0  0
   -7.8344    0.7138   27.4248 N   0  0  0  0  0  0  0  0  0  0  0  0
   -6.1885    2.1144   28.0027 N   0  0  0  0  0  0  0  0  0  0  0  0
   -6.8412   -0.1002   27.9262 C   0  0  0  0  0  0  0  0  0  0  0  0
   -5.7790    0.7625   28.2042 C   0  0  2  0  0  0  0  0  0  0  0  0
   -4.4242    0.4687   28.7574 C   0  0  0  0  0  0  0  0  0  0  0  0
   -4.3397   -0.1258   29.9605 C   0  0  0  0  0  0  0  0  0  0  0  0
   -3.0267   -0.4287   30.4836 C   0  0  0  0  0  0  0  0  0  0  0  0
   -3.3337    0.1189   27.9149 C   0  0  0  0  0  0  0  0  0  0  0  0
   -3.3738    0.6729   26.4654 C   0  0  0  0  0  0  0  0  0  0  0  0
   -1.9566   -0.6616   29.6367 C   0  0  0  0  0  0  0  0  0  0  0  0
   -2.0714   -0.2596   28.3271 C   0  0  0  0  0  0  0  0  0  0  0  0
   -7.9788    6.7539   27.0233 C   0  0  0  0  0  0  0  0  0  0  0  0
   -7.1192    6.8451   27.9419 O   0  0  0  0  0  0  0  0  0  0  0  0
   -8.4004    7.8078   26.4459 O   0  0  0  0  0  0  0  0  0  0  0  0
   -6.8965   -1.5023   28.0861 C   0  0  0  0  0  0  0  0  0  0  0  0
   -2.9632   -0.8554   31.9620 C   0  0  0  0  0  0  0  0  0  0  0  0
   -3.1890   -1.9386   32.2499 O   0  0  0  0  0  0  0  0  0  0  0  0
   -2.8720    0.2360   32.8562 O   0  0  0  0  0  0  0  0  0  0  0  0
  -11.2522    3.7818   24.8499 C   0  0  0  0  0  0  0  0  0  0  0  0
  -11.2891    4.2745   23.7619 C   0  0  0  0  0  0  0  0  0  0  0  0
  -12.3728    4.1489   22.7707 C   0  0  0  0  0  0  0  0  0  0  0  0
  -13.5050    3.5494   23.2316 C   0  0  0  0  0  0  0  0  0  0  0  0
  -12.3671    3.1528   25.2279 C   0  0  0  0  0  0  0  0  0  0  0  0
  -13.4862    3.0639   24.5110 C   0  0  0  0  0  0  0  0  0  0  0  0
   -5.9270   -2.3441   27.8575 C   0  0  0  0  0  0  0  0  0  0  0  0
   -5.9962   -3.7150   28.1288 C   0  0  0  0  0  0  0  0  0  0  0  0
  2  7  1  0
  7  8  1  0
  7  9  2  0
  8 10  1  0
  9 11  1  0
 10 11  1  0
 11 12  1  1
 15 16  1  0
  4 19  1  0
 19 20  2  0
 19 21  1  0
 10 22  1  0
 14 23  1  0
 23 24  2  0
 23 25  1  0
  6 26  1  0
 22 32  2  3
 32 33  1  0
 26 27  2  0
 27 28  1  0
 28 29  2  0
 29 31  1  0
 31 30  2  0
 30 26  1  0
  1  2  2  0
  2  3  1  0
  3  6  2  0
  6  5  1  0
  5  4  2  0
  4  1  1  0
 12 13  2  0
 13 14  1  0
 14 17  2  0
 17 18  1  0
 18 15  2  0
 15 12  1  0
M  END
$$$$
