No_6911-complexes_sdf/6BKW-FPZ/2024-09-17-14-21-01/
     RDKit          3D

 24 26  0  0  0  0  0  0  0  0999 V2000
   -7.9040    3.9820   27.1177 C   0  0  0  0  0  0  0  0  0  0  0  0
   -7.8663    4.8694   27.9238 C   0  0  0  0  0  0  0  0  0  0  0  0
   -7.4547    2.7080   27.4594 C   0  0  0  0  0  0  0  0  0  0  0  0
   -7.9337    1.5946   26.8372 C   0  0  0  0  0  0  0  0  0  0  0  0
   -8.9032    1.7881   25.8510 C   0  0  0  0  0  0  0  0  0  0  0  0
   -9.3787    2.9871   25.5530 C   0  0  0  0  0  0  0  0  0  0  0  0
   -8.9781    4.0300   26.2200 C   0  0  0  0  0  0  0  0  0  0  0  0
   -7.9493    6.0343   27.8952 N   0  0  0  0  0  0  0  0  0  0  0  0
   -8.1837    6.8027   26.8085 C   0  0  0  0  0  0  0  0  0  0  0  0
   -8.1020    8.2763   27.0492 C   0  0  0  0  0  0  0  0  0  0  0  0
   -9.0310    6.3792   26.0234 O   0  0  0  0  0  0  0  0  0  0  0  0
   -7.3973    0.2426   27.1645 C   0  0  0  0  0  0  0  0  0  0  0  0
   -6.1867    0.0453   27.5856 N   0  0  0  0  0  0  0  0  0  0  0  0
   -5.2215    0.8321   27.4958 C   0  0  0  0  0  0  0  0  0  0  0  0
   -3.9533    0.4359   28.3065 C   0  0  0  0  0  0  0  0  0  0  0  0
   -4.3956   -0.1925   29.5095 C   0  0  2  0  0  0  0  0  0  0  0  0
   -3.5897   -0.7253   30.5047 C   0  0  0  0  0  0  0  0  0  0  0  0
   -5.9366   -0.9020   28.6517 C   0  0  0  0  0  0  0  0  0  0  0  0
   -3.8841   -0.0520   31.7017 C   0  0  0  0  0  0  0  0  0  0  0  0
   -2.7359   -1.7003   30.3564 C   0  0  0  0  0  0  0  0  0  0  0  0
   -3.1079   -0.3969   32.8966 C   0  0  0  0  0  0  0  0  0  0  0  0
   -2.1715   -1.4345   32.7969 C   0  0  0  0  0  0  0  0  0  0  0  0
   -1.9501   -2.0188   31.4995 C   0  0  0  0  0  0  0  0  0  0  0  0
   -8.1300   -0.7791   26.9909 O   0  0  0  0  0  0  0  0  0  0  0  0
  1  2  1  0
  2  8  1  0
  8  9  1  0
  9 10  1  0
  9 11  2  0
  4 12  1  0
 12 13  1  0
 13 14  1  0
 14 15  2  0
 15 16  1  0
 16 17  1  6
 13 18  1  0
 16 18  1  0
 12 24  2  0
 17 19  2  0
 19 21  1  0
 21 22  2  0
 22 23  1  0
 23 20  2  0
 20 17  1  0
  1  3  2  0
  3  4  1  0
  4  5  2  0
  5  6  1  0
  6  7  2  0
  7  1  1  0
M  END
$$$$
