No_6076-complexes_sdf/6BKW-FPZ/2024-09-17-14-21-01/
     RDKit          3D

 29 31  0  0  0  0  0  0  0  0999 V2000
   -7.9040    3.9820   27.1177 C   0  0  0  0  0  0  0  0  0  0  0  0
   -7.8663    4.8694   27.9238 C   0  0  0  0  0  0  0  0  0  0  0  0
   -9.0501    3.8017   26.2617 C   0  0  0  0  0  0  0  0  0  0  0  0
   -9.1826    2.7026   25.3575 C   0  0  0  0  0  0  0  0  0  0  0  0
   -8.6940    6.0131   27.8614 C   0  0  0  0  0  0  0  0  0  0  0  0
   -9.9755    4.8547   26.2361 C   0  0  0  0  0  0  0  0  0  0  0  0
   -9.7463    5.9398   27.0364 C   0  0  0  0  0  0  0  0  0  0  0  0
   -8.7079    1.4615   25.7719 C   0  0  0  0  0  0  0  0  0  0  0  0
  -10.4354    2.6326   24.6632 C   0  0  0  0  0  0  0  0  0  0  0  0
  -10.4370    1.8064   23.5690 C   0  0  0  0  0  0  0  0  0  0  0  0
   -8.7262    0.4060   24.8282 C   0  0  0  0  0  0  0  0  0  0  0  0
   -9.7407    0.4753   23.8258 C   0  0  0  0  0  0  0  0  0  0  0  0
   -7.9511   -0.7867   24.9707 C   0  0  0  0  0  0  0  0  0  0  0  0
   -7.1120   -0.8541   24.1772 F   0  0  0  0  0  0  0  0  0  0  0  0
   -7.2864   -0.6920   26.1540 F   0  0  0  0  0  0  0  0  0  0  0  0
   -8.7366   -1.8315   25.0120 F   0  0  0  0  0  0  0  0  0  0  0  0
  -11.3496    1.8710   22.5056 C   0  0  0  0  0  0  0  0  0  0  0  0
  -11.4604    2.5725   21.7140 C   0  0  0  0  0  0  0  0  0  0  0  0
  -11.6809    3.1451   20.8095 C   0  0  0  0  0  0  0  0  0  0  0  0
  -11.4095    4.3272   20.1062 C   0  0  0  0  0  0  0  0  0  0  0  0
  -10.3596    4.6517   20.4041 C   0  0  0  0  0  0  0  0  0  0  0  0
   -9.6029    4.4737   21.6036 C   0  0  0  0  0  0  0  0  0  0  0  0
  -12.4230    0.8124   22.4721 C   0  0  0  0  0  0  0  0  0  0  0  0
  -10.0577    3.4925   22.1875 C   0  0  0  0  0  0  0  0  0  0  0  0
  -13.6042    0.9423   23.0940 C   0  0  0  0  0  0  0  0  0  0  0  0
  -12.1829   -0.3684   21.7247 C   0  0  0  0  0  0  0  0  0  0  0  0
  -13.9954    1.8258   23.8004 C   0  0  0  0  0  0  0  0  0  0  0  0
  -15.2701    1.9484   24.4723 C   0  0  0  0  0  0  0  0  0  0  0  0
  -16.1252    0.9217   24.2358 C   0  0  0  0  0  0  0  0  0  0  0  0
  3  4  1  0
 11 13  1  0
 13 14  1  0
 13 15  1  0
 13 16  1  0
 10 17  1  0
 17 23  1  0
 23 25  1  0
 23 26  1  0
 25 27  2  3
 27 28  1  0
 28 29  2  0
 17 18  1  0
 18 19  2  0
 19 20  1  0
 20 21  2  0
 21 22  1  0
 22 24  2  0
 24 18  1  0
  4  8  2  0
  8 11  1  0
 11 12  2  0
 12 10  1  0
 10  9  2  0
  9  4  1  0
  1  2  2  0
  2  5  1  0
  5  7  2  0
  7  6  1  0
  6  3  2  0
  3  1  1  0
M  END
$$$$
