No_6695-complexes_sdf/6BKW-FPZ/2024-09-17-14-21-01/
     RDKit          3D

 16 17  0  0  0  0  0  0  0  0999 V2000
   -7.9040    3.9820   27.1177 C   0  0  0  0  0  0  0  0  0  0  0  0
   -9.0711    4.3164   27.0630 C   0  0  0  0  0  0  0  0  0  0  0  0
  -10.0395    3.8218   27.1938 C   0  0  0  0  0  0  0  0  0  0  0  0
   -7.6268    2.6146   27.2991 C   0  0  0  0  0  0  0  0  0  0  0  0
  -11.4392    4.2703   27.1389 C   0  0  0  0  0  0  0  0  0  0  0  0
   -8.7280    1.7900   27.3609 C   0  0  0  0  0  0  0  0  0  0  0  0
   -9.9624    2.3500   27.3691 C   0  0  0  0  0  0  0  0  0  0  0  0
   -6.0303    1.9778   27.4066 Cl  0  0  0  0  0  0  0  0  0  0  0  0
  -12.1470    4.1560   26.0449 C   0  0  0  0  0  0  0  0  0  0  0  0
  -13.5922    4.3878   26.0710 C   0  0  0  0  0  0  0  0  0  0  0  0
  -14.1986    5.0060   27.2226 C   0  0  0  0  0  0  0  0  0  0  0  0
  -13.3793    5.1779   28.3424 C   0  0  0  0  0  0  0  0  0  0  0  0
  -12.0844    4.7647   28.4017 C   0  0  0  0  0  0  0  0  0  0  0  0
   -9.1094    5.9855   26.8655 C   0  0  0  0  0  0  0  0  0  0  0  0
   -8.2307    6.8190   27.6432 C   0  0  0  0  0  0  0  0  0  0  0  0
   -8.0500    8.1070   26.9945 C   0  0  0  0  0  0  0  0  0  0  0  0
  4  8  1  0
  2 14  1  0
 14 15  1  0
 15 16  2  0
  3  5  1  0
  5  9  2  0
  9 10  1  0
 10 11  2  0
 11 12  1  0
 12 13  2  0
 13  5  1  0
  1  2  2  0
  2  3  1  0
  3  7  2  0
  7  6  1  0
  6  4  2  0
  4  1  1  0
M  END
$$$$
