No_6192-complexes_sdf/6BKW-FPZ/2024-09-17-14-21-01/
     RDKit          3D

 40 44  0  0  0  0  0  0  0  0999 V2000
   -7.9040    3.9820   27.1177 C   0  0  0  0  0  0  0  0  0  0  0  0
   -8.2057    2.8231   26.8733 C   0  0  0  0  0  0  0  0  0  0  0  0
   -7.4766    1.7477   27.4593 C   0  0  0  0  0  0  0  0  0  0  0  0
   -8.7468    5.1251   26.6967 C   0  0  0  0  0  0  0  0  0  0  0  0
   -9.7234    4.8589   25.8202 C   0  0  0  0  0  0  0  0  0  0  0  0
   -9.9711    3.5858   25.4266 C   0  0  0  0  0  0  0  0  0  0  0  0
   -9.2266    2.4957   25.9600 C   0  0  0  0  0  0  0  0  0  0  0  0
   -7.8394    0.3721   27.3404 C   0  0  0  0  0  0  0  0  0  0  0  0
   -7.1362   -0.5937   27.9114 C   0  0  0  0  0  0  0  0  0  0  0  0
   -5.8557   -0.3307   28.4547 C   0  0  0  0  0  0  0  0  0  0  0  0
   -5.3585    0.9906   28.4093 C   0  0  0  0  0  0  0  0  0  0  0  0
   -6.0907    1.9632   27.9066 C   0  0  0  0  0  0  0  0  0  0  0  0
   -8.4205    6.5129   27.1058 C   0  0  0  0  0  0  0  0  0  0  0  0
   -7.8505    6.8052   28.1956 N   0  0  0  0  0  0  0  0  0  0  0  0
   -8.8158    7.5390   26.3307 N   0  0  0  0  0  0  0  0  0  0  0  0
   -5.0305   -1.4131   29.0468 C   0  0  0  0  0  0  0  0  0  0  0  0
   -5.3529   -2.4106   29.3301 O   0  0  0  0  0  0  0  0  0  0  0  0
   -3.8171   -0.9217   29.6324 N   0  0  0  0  0  0  0  0  0  0  0  0
   -2.9030   -1.8549   30.2758 C   0  0  0  0  0  0  0  0  0  0  0  0
   -2.7196   -1.6091   31.5227 C   0  0  0  0  0  0  0  0  0  0  0  0
   -1.8807   -2.2538   32.3525 C   0  0  0  0  0  0  0  0  0  0  0  0
   -1.7298   -1.9322   33.7284 C   0  0  0  0  0  0  0  0  0  0  0  0
   -2.3814   -0.8142   34.2981 C   0  0  0  0  0  0  0  0  0  0  0  0
   -3.1783   -0.0579   33.4084 C   0  0  0  0  0  0  0  0  0  0  0  0
   -3.3067   -0.3555   32.1359 C   0  0  0  0  0  0  0  0  0  0  0  0
   -2.2133   -0.3887   35.6973 C   0  0  0  0  0  0  0  0  0  0  0  0
   -3.2820   -0.0963   36.4542 N   0  0  0  0  0  0  0  0  0  0  0  0
   -3.2839    0.7630   37.4877 C   0  0  0  0  0  0  0  0  0  0  0  0
   -4.5265    1.1629   38.0445 C   0  0  0  0  0  0  0  0  0  0  0  0
   -4.7442    2.1543   38.9952 C   0  0  0  0  0  0  0  0  0  0  0  0
   -3.5678    2.5834   39.6925 C   0  0  0  0  0  0  0  0  0  0  0  0
   -2.1217    1.3003   38.0810 C   0  0  0  0  0  0  0  0  0  0  0  0
   -2.2670    2.2318   39.2079 C   0  0  0  0  0  0  0  0  0  0  0  0
   -4.4184   -0.9066   36.2295 C   0  0  0  0  0  0  0  0  0  0  0  0
   -4.7594   -1.8395   37.2689 C   0  0  0  0  0  0  0  0  0  0  0  0
   -5.9169   -2.5844   37.2111 C   0  0  0  0  0  0  0  0  0  0  0  0
   -6.6660   -2.5330   36.0580 C   0  0  0  0  0  0  0  0  0  0  0  0
   -6.1827   -1.7663   34.9333 C   0  0  0  0  0  0  0  0  0  0  0  0
   -5.0936   -0.9409   35.1004 C   0  0  0  0  0  0  0  0  0  0  0  0
   -0.9973   -0.2948   36.1269 O   0  0  0  0  0  0  0  0  0  0  0  0
  2  3  1  0
  4 13  1  0
 13 14  2  0
 13 15  1  0
 10 16  1  0
 16 17  2  0
 16 18  1  0
 18 19  1  0
 19 20  1  0
 23 26  1  0
 26 27  1  0
 27 28  1  0
 27 34  1  0
 26 40  2  0
 28 29  2  0
 29 30  1  0
 30 31  2  0
 31 33  1  0
 33 32  2  0
 32 28  1  0
  1  2  2  0
  2  7  1  0
  7  6  2  0
  6  5  1  0
  5  4  2  0
  4  1  1  0
 34 35  2  0
 35 36  1  0
 36 37  2  0
 37 38  1  0
 38 39  2  0
 39 34  1  0
 20 21  2  0
 21 22  1  0
 22 23  2  0
 23 24  1  0
 24 25  2  0
 25 20  1  0
  3  8  2  0
  8  9  1  0
  9 10  2  0
 10 11  1  0
 11 12  2  0
 12  3  1  0
M  END
$$$$
