No_6628-complexes_sdf/6BKW-FPZ/2024-09-17-14-21-01/
     RDKit          3D

 33 36  0  0  0  0  0  0  0  0999 V2000
   -7.2496    3.8871   27.4508 C   0  0  0  0  0  0  0  0  0  0  0  0
   -7.9379    4.9063   27.8518 C   0  0  1  0  0  0  0  0  0  0  0  0
   -7.5112    6.1898   27.6280 C   0  0  0  0  0  0  0  0  0  0  0  0
   -9.3085    4.6933   28.2930 C   0  0  0  0  0  0  0  0  0  0  0  0
   -6.9426    2.7754   27.7936 C   0  0  0  0  0  0  0  0  0  0  0  0
   -6.0488    1.8087   27.3014 C   0  0  0  0  0  0  0  0  0  0  0  0
   -5.2160    1.1715   28.0364 C   0  0  0  0  0  0  0  0  0  0  0  0
   -4.7709   -0.1139   27.9917 C   0  0  0  0  0  0  0  0  0  0  0  0
   -3.8077   -0.6727   28.9307 C   0  0  0  0  0  0  0  0  0  0  0  0
   -3.3428    0.1907   29.9078 C   0  0  0  0  0  0  0  0  0  0  0  0
   -3.7526    1.4986   29.9732 C   0  0  0  0  0  0  0  0  0  0  0  0
   -4.5882    1.9447   29.1866 C   0  0  0  0  0  0  0  0  0  0  0  0
   -8.4605    7.2399   27.0933 C   0  0  1  0  0  0  0  0  0  0  0  0
  -10.3899    5.4018   27.6354 C   0  0  0  0  0  0  0  0  0  0  0  0
   -9.9275    6.8550   27.3634 C   0  0  0  0  0  0  0  0  0  0  0  0
   -8.1013    8.4505   26.6514 C   0  0  0  0  0  0  0  0  0  0  0  0
   -5.3556   -1.0043   26.9611 C   0  0  0  0  0  0  0  0  0  0  0  0
   -4.5683   -1.2636   25.9230 C   0  0  0  0  0  0  0  0  0  0  0  0
   -5.0105   -1.9646   24.7511 C   0  0  0  0  0  0  0  0  0  0  0  0
   -6.3948   -2.0636   24.5550 C   0  0  0  0  0  0  0  0  0  0  0  0
   -7.2382   -1.6682   25.6371 C   0  0  0  0  0  0  0  0  0  0  0  0
   -6.7612   -1.0431   26.7847 C   0  0  0  0  0  0  0  0  0  0  0  0
   -6.8883   -2.6851   23.3624 C   0  0  2  0  0  0  0  0  0  0  0  0
   -6.9232   -3.8248   23.1027 N   0  0  0  0  0  0  0  0  0  0  0  0
   -6.9248   -4.7616   23.7576 C   0  0  0  0  0  0  0  0  0  0  0  0
   -7.4228   -4.8017   24.9065 C   0  0  0  0  0  0  0  0  0  0  0  0
   -7.4240   -5.3983   25.7318 C   0  0  0  0  0  0  0  0  0  0  0  0
   -6.8199   -6.7685   25.5133 C   0  0  0  0  0  0  0  0  0  0  0  0
   -6.3054   -7.0334   24.2886 C   0  0  0  0  0  0  0  0  0  0  0  0
   -6.2624   -6.0302   23.4120 C   0  0  0  0  0  0  0  0  0  0  0  0
   -6.8283   -4.0852   21.5318 C   0  0  0  0  0  0  0  0  0  0  0  0
   -7.1622   -1.6069   22.6266 F   0  0  0  0  0  0  0  0  0  0  0  0
   -7.1908   -3.0459   20.7360 C   0  0  0  0  0  0  0  0  0  0  0  0
  1  2  1  0
  2  3  1  6
  2  4  1  0
  1  5  2  3
  5  6  1  0
  3 13  1  0
  4 14  1  0
 13 15  1  0
 14 15  1  0
 13 16  1  1
  8 17  1  0
 20 23  1  0
 23 24  1  0
 24 25  1  0
 24 31  1  0
 23 32  1  6
 31 33  1  0
  6  7  1  0
 17 18  2  0
 18 19  1  0
 19 20  2  0
 20 21  1  0
 21 22  2  0
 22 17  1  0
 25 26  2  0
 26 27  1  0
 27 28  2  0
 28 29  1  0
 29 30  2  0
 30 25  1  0
  7  8  1  0
  8  9  2  0
  9 10  1  0
 10 11  2  0
 11 12  1  0
 12  7  2  0
M  END
$$$$
