No_6015-complexes_sdf/6BKW-FPZ/2024-09-17-14-21-01/
     RDKit          3D

 14 15  0  0  0  0  0  0  0  0999 V2000
   -7.2496    3.8871   27.4508 C   0  0  0  0  0  0  0  0  0  0  0  0
   -7.9379    4.9063   27.8518 C   0  0  0  0  0  0  0  0  0  0  0  0
   -7.4895    6.2027   27.7481 C   0  0  0  0  0  0  0  0  0  0  0  0
   -7.8057    2.6324   27.3137 C   0  0  0  0  0  0  0  0  0  0  0  0
   -9.1872    2.4678   27.5434 C   0  0  0  0  0  0  0  0  0  0  0  0
   -9.9237    3.5447   27.9999 C   0  0  0  0  0  0  0  0  0  0  0  0
   -9.3832    4.8080   28.1012 C   0  0  0  0  0  0  0  0  0  0  0  0
  -11.3761    3.3018   28.3126 C   0  0  0  0  0  0  0  0  0  0  0  0
  -12.2124    4.2820   28.4930 C   0  0  0  0  0  0  0  0  0  0  0  0
  -11.5280    2.2539   29.3937 C   0  0  0  0  0  0  0  0  0  0  0  0
  -13.5964    4.1116   28.8152 C   0  0  0  0  0  0  0  0  0  0  0  0
  -12.9156    1.9436   29.6580 C   0  0  0  0  0  0  0  0  0  0  0  0
  -13.8410    2.9633   29.5192 C   0  0  0  0  0  0  0  0  0  0  0  0
   -6.8777    1.2485   26.8904 Cl  0  0  0  0  0  0  0  0  0  0  0  0
  2  3  1  0
  6  8  1  0
  4 14  1  0
  8  9  2  0
  9 11  1  0
 11 13  2  0
 13 12  1  0
 12 10  2  0
 10  8  1  0
  1  2  2  0
  2  7  1  0
  7  6  2  0
  6  5  1  0
  5  4  2  0
  4  1  1  0
M  END
$$$$
