No_6564-complexes_sdf/6BKW-FPZ/2024-09-17-14-21-01/
     RDKit          3D

 40 44  0  0  0  0  0  0  0  0999 V2000
   -7.7129    4.2099   27.0854 C   0  0  0  0  0  0  0  0  0  0  0  0
   -8.9133    4.4736   27.0998 C   0  0  0  0  0  0  0  0  0  0  0  0
   -9.7937    3.7367   26.2091 C   0  0  0  0  0  0  0  0  0  0  0  0
   -7.2495    2.8647   26.8496 C   0  0  0  0  0  0  0  0  0  0  0  0
   -8.1891    1.9790   26.3454 C   0  0  0  0  0  0  0  0  0  0  0  0
   -9.4252    2.4603   26.0121 C   0  0  0  0  0  0  0  0  0  0  0  0
   -9.3121    5.9663   27.2474 C   0  0  0  0  0  0  0  0  0  0  0  0
   -7.7466    0.5946   26.1401 C   0  0  0  0  0  0  0  0  0  0  0  0
   -7.9509    0.1236   25.0622 O   0  0  0  0  0  0  0  0  0  0  0  0
   -7.0819   -0.0632   27.1720 N   0  0  0  0  0  0  0  0  0  0  0  0
   -6.6698   -1.4005   27.0275 C   0  0  0  0  0  0  0  0  0  0  0  0
   -8.1866    6.9112   27.3482 C   0  0  0  0  0  0  0  0  0  0  0  0
   -5.5788   -1.7181   27.1184 C   0  0  1  0  0  0  0  0  0  0  0  0
   -4.5511   -0.7235   27.5414 C   0  0  0  0  0  0  0  0  0  0  0  0
   -4.9191    0.3347   28.2499 C   0  0  2  0  0  0  0  0  0  0  0  0
   -5.8371    0.9303   27.4368 C   0  0  2  0  0  0  0  0  0  0  0  0
   -6.0934    2.3220   27.4747 C   0  0  0  0  0  0  0  0  0  0  0  0
   -8.3538    8.1026   26.4590 C   0  0  0  0  0  0  0  0  0  0  0  0
   -4.2694    0.9441   29.3739 C   0  0  0  0  0  0  0  0  0  0  0  0
   -3.1256    0.3893   29.7266 O   0  0  0  0  0  0  0  0  0  0  0  0
   -3.1233   -0.2459   31.0073 C   0  0  0  0  0  0  0  0  0  0  0  0
   -2.4402   -1.5296   31.0201 C   0  0  2  0  0  0  0  0  0  0  0  0
   -1.8418   -1.7528   31.9033 O   0  0  0  0  0  0  0  0  0  0  0  0
   -1.9633   -2.9301   32.8737 Cl  0  0  0  0  0  0  0  0  0  0  0  0
   -5.0617   -3.1068   26.9547 C   0  0  0  0  0  0  0  0  0  0  0  0
   -5.2686   -3.6738   26.0235 C   0  0  0  0  0  0  0  0  0  0  0  0
   -4.8192   -5.0730   25.7555 C   0  0  0  0  0  0  0  0  0  0  0  0
   -4.0191   -5.6389   26.7219 C   0  0  0  0  0  0  0  0  0  0  0  0
   -3.7131   -4.9321   27.8658 C   0  0  0  0  0  0  0  0  0  0  0  0
   -4.1824   -3.6676   28.0506 C   0  0  0  0  0  0  0  0  0  0  0  0
   -2.7445   -5.6714   29.0769 Cl  0  0  0  0  0  0  0  0  0  0  0  0
   -1.7192   -1.6516   29.7569 O   0  0  0  0  0  0  0  0  0  0  0  0
   -7.1532    6.6721   28.0136 O   0  0  0  0  0  0  0  0  0  0  0  0
  -11.1061    4.2475   25.7858 C   0  0  0  0  0  0  0  0  0  0  0  0
  -11.2797    4.0675   24.4158 C   0  0  0  0  0  0  0  0  0  0  0  0
  -10.4416    4.4463   23.4533 C   0  0  0  0  0  0  0  0  0  0  0  0
  -10.6541    4.3362   22.0954 C   0  0  0  0  0  0  0  0  0  0  0  0
  -12.4416    3.3954   23.9965 C   0  0  0  0  0  0  0  0  0  0  0  0
  -12.7455    3.2365   22.6572 C   0  0  0  0  0  0  0  0  0  0  0  0
  -11.7941    3.7321   21.6863 C   0  0  0  0  0  0  0  0  0  0  0  0
  2  7  1  0
  5  8  1  0
  8  9  2  0
  8 10  1  0
 10 11  1  0
  7 12  1  0
 13 14  1  0
 10 16  1  0
 15 16  1  0
  4 17  1  0
 16 17  1  1
 12 18  1  0
 15 19  1  6
 19 20  1  0
 20 21  1  0
 21 22  1  0
 22 23  1  0
 23 24  1  0
 13 25  1  1
 29 31  1  0
 22 32  1  6
 12 33  2  0
  3 34  1  0
 34 35  1  0
 11 13  1  0
 14 15  1  0
 25 26  2  0
 26 27  1  0
 27 28  2  0
 28 29  1  0
 29 30  2  0
 30 25  1  0
  1  2  2  0
  2  3  1  0
  3  6  2  0
  6  5  1  0
  5  4  2  0
  4  1  1  0
 35 36  2  0
 36 37  1  0
 37 40  2  0
 40 39  1  0
 39 38  2  0
 38 35  1  0
M  END
$$$$
