No_688-complexes_sdf/6BKW-FPZ/2024-09-17-14-21-01/
     RDKit          3D

 21 23  0  0  0  0  0  0  0  0999 V2000
   -7.7129    4.2099   27.0854 C   0  0  0  0  0  0  0  0  0  0  0  0
   -7.7814    5.1722   27.8972 C   0  0  0  0  0  0  0  0  0  0  0  0
   -8.8998    3.8713   26.3707 C   0  0  0  0  0  0  0  0  0  0  0  0
   -9.1401    2.5906   25.9433 C   0  0  0  0  0  0  0  0  0  0  0  0
   -8.7789    6.1060   27.7310 N   0  0  0  0  0  0  0  0  0  0  0  0
   -9.8920    5.8891   27.0946 C   0  0  0  0  0  0  0  0  0  0  0  0
   -9.9766    4.6960   26.4402 C   0  0  0  0  0  0  0  0  0  0  0  0
   -8.5120    1.4785   26.6707 C   0  0  0  0  0  0  0  0  0  0  0  0
   -8.5121    0.2025   26.1950 C   0  0  0  0  0  0  0  0  0  0  0  0
   -9.1797   -0.0278   25.0051 C   0  0  0  0  0  0  0  0  0  0  0  0
   -9.6216    2.2514   24.6954 C   0  0  0  0  0  0  0  0  0  0  0  0
   -9.6674    1.0100   24.2361 C   0  0  0  0  0  0  0  0  0  0  0  0
   -6.6773    5.6771   28.5707 N   0  0  0  0  0  0  0  0  0  0  0  0
   -8.0281   -0.9180   27.0393 C   0  0  0  0  0  0  0  0  0  0  0  0
   -7.5723   -1.9027   26.4349 C   0  0  0  0  0  0  0  0  0  0  0  0
   -6.9545   -2.9172   27.1988 C   0  0  0  0  0  0  0  0  0  0  0  0
   -6.6951   -2.7646   28.2511 C   0  0  0  0  0  0  0  0  0  0  0  0
   -7.1133   -1.6642   29.1327 C   0  0  0  0  0  0  0  0  0  0  0  0
   -7.7170   -0.6638   28.4310 C   0  0  0  0  0  0  0  0  0  0  0  0
  -10.3090    3.5476   23.5294 Br  0  0  0  0  0  0  0  0  0  0  0  0
   -6.0972   -3.8048   29.0985 F   0  0  0  0  0  0  0  0  0  0  0  0
  3  4  1  0
  2 13  1  0
  9 14  1  0
 11 20  1  0
 17 21  1  0
 14 15  2  0
 15 16  1  0
 16 17  2  0
 17 18  1  0
 18 19  2  0
 19 14  1  0
  4  8  2  0
  8  9  1  0
  9 10  2  0
 10 12  1  0
 12 11  2  0
 11  4  1  0
  1  2  2  0
  2  5  1  0
  5  6  2  0
  6  7  1  0
  7  3  2  0
  3  1  1  0
M  END
$$$$
