No_6734-complexes_sdf/6BKW-FPZ/2024-09-17-14-21-01/
     RDKit          3D

 40 43  0  0  0  0  0  0  0  0999 V2000
   -7.2496    3.8871   27.4508 C   0  0  0  0  0  0  0  0  0  0  0  0
   -7.6161    2.7143   27.1523 C   0  0  0  0  0  0  0  0  0  0  0  0
   -8.6212    2.2239   26.4073 C   0  0  0  0  0  0  0  0  0  0  0  0
   -8.2540    4.9237   27.1711 C   0  0  0  0  0  0  0  0  0  0  0  0
   -9.3729    4.5806   26.4433 C   0  0  0  0  0  0  0  0  0  0  0  0
   -9.5830    3.2969   26.1026 C   0  0  0  0  0  0  0  0  0  0  0  0
   -7.9332    6.3206   27.5425 C   0  0  0  0  0  0  0  0  0  0  0  0
   -6.9107    6.5684   28.1454 O   0  0  0  0  0  0  0  0  0  0  0  0
   -8.5764    7.3354   26.8659 N   0  0  0  0  0  0  0  0  0  0  0  0
   -8.8927    0.8733   26.0792 C   0  0  0  0  0  0  0  0  0  0  0  0
   -9.3429    0.4922   25.0455 C   0  0  0  0  0  0  0  0  0  0  0  0
   -9.5601   -0.8977   24.6770 C   0  0  0  0  0  0  0  0  0  0  0  0
   -9.2053   -1.8336   25.6189 C   0  0  0  0  0  0  0  0  0  0  0  0
   -8.4693   -0.2284   27.0250 C   0  0  0  0  0  0  0  0  0  0  0  0
   -8.6653   -1.4570   26.8538 C   0  0  0  0  0  0  0  0  0  0  0  0
   -8.3667   -2.4962   27.8560 C   0  0  0  0  0  0  0  0  0  0  0  0
   -7.3790   -2.4481   28.5304 N   0  0  0  0  0  0  0  0  0  0  0  0
   -6.4282   -1.5875   28.3793 C   0  0  0  0  0  0  0  0  0  0  0  0
   -5.5261   -1.5024   29.5471 C   0  0  0  0  0  0  0  0  0  0  0  0
   -6.1803   -2.2284   30.5820 C   0  0  0  0  0  0  0  0  0  0  0  0
   -7.3535   -2.8345   29.9587 C   0  0  0  0  0  0  0  0  0  0  0  0
   -4.3460   -0.6903   29.7013 C   0  0  1  0  0  0  0  0  0  0  0  0
   -4.3097    0.5447   28.9873 C   0  0  0  0  0  0  0  0  0  0  0  0
   -3.3536   -1.0855   30.5671 C   0  0  0  0  0  0  0  0  0  0  0  0
   -3.2065    0.7756   28.0654 C   0  0  0  0  0  0  0  0  0  0  0  0
   -3.3768    1.6170   26.9497 C   0  0  0  0  0  0  0  0  0  0  0  0
   -9.3338   -3.2585   28.1419 O   0  0  0  0  0  0  0  0  0  0  0  0
   -3.2300   -0.5618   31.8338 C   0  0  0  0  0  0  0  0  0  0  0  0
   -2.1835   -0.9203   32.7149 C   0  0  0  0  0  0  0  0  0  0  0  0
   -1.3799   -1.9841   32.2928 C   0  0  0  0  0  0  0  0  0  0  0  0
   -1.5068   -2.5370   31.0605 C   0  0  0  0  0  0  0  0  0  0  0  0
   -2.4727   -2.1072   30.1758 C   0  0  0  0  0  0  0  0  0  0  0  0
   -2.0841   -0.3515   33.9286 O   0  0  0  0  0  0  0  0  0  0  0  0
   -2.4386    1.5750   26.0728 O   0  0  0  0  0  0  0  0  0  0  0  0
   -4.3517    2.3607   26.9032 O   0  0  0  0  0  0  0  0  0  0  0  0
   -2.1119   -1.0124   35.1441 C   0  0  0  0  0  0  0  0  0  0  0  0
   -2.2080   -0.1398   36.1977 C   0  0  0  0  0  0  0  0  0  0  0  0
   -3.4387    0.0704   36.4971 O   0  0  0  0  0  0  0  0  0  0  0  0
   -3.8972   -0.0462   37.8621 C   0  0  0  0  0  0  0  0  0  0  0  0
   -4.9075    0.9263   38.1103 C   0  0  0  0  0  0  0  0  0  0  0  0
  4  7  1  0
  7  8  2  0
  7  9  1  0
  3 10  1  0
 15 16  1  0
 16 17  1  0
 17 18  1  0
 18 19  2  0
 19 20  1  0
 17 21  1  0
 20 21  1  0
 22 19  1  1
 22 23  1  0
 22 24  1  0
 23 25  2  3
 25 26  1  0
 16 27  2  0
 29 33  1  0
 26 34  2  0
 26 35  1  0
 33 36  1  0
 36 37  1  0
 37 38  1  0
 38 39  1  0
 39 40  1  0
  1  2  2  0
  2  3  1  0
  3  6  2  0
  6  5  1  0
  5  4  2  0
  4  1  1  0
 10 11  2  0
 11 12  1  0
 12 13  2  0
 13 15  1  0
 15 14  2  0
 14 10  1  0
 24 28  2  0
 28 29  1  0
 29 30  2  0
 30 31  1  0
 31 32  2  0
 32 24  1  0
M  END
$$$$
