No_7317-complexes_sdf/6BKW-FPZ/2024-09-17-14-21-01/
     RDKit          3D

 16 18  0  0  0  0  0  0  0  0999 V2000
   -7.9040    3.9820   27.1177 C   0  0  0  0  0  0  0  0  0  0  0  0
   -7.8663    4.8694   27.9238 C   0  0  0  0  0  0  0  0  0  0  0  0
   -7.4547    2.7080   27.4594 C   0  0  0  0  0  0  0  0  0  0  0  0
   -7.9337    1.5946   26.8372 C   0  0  0  0  0  0  0  0  0  0  0  0
   -7.4947    0.3059   27.1189 C   0  0  0  0  0  0  0  0  0  0  0  0
   -8.6696    6.0289   27.7710 C   0  0  0  0  0  0  0  0  0  0  0  0
   -8.9190    1.7899   25.8011 C   0  0  0  0  0  0  0  0  0  0  0  0
   -9.3883    0.6251   25.1344 C   0  0  0  0  0  0  0  0  0  0  0  0
   -8.0391   -0.7970   26.5285 C   0  0  0  0  0  0  0  0  0  0  0  0
   -9.0140   -0.6090   25.4897 C   0  0  0  0  0  0  0  0  0  0  0  0
   -9.1059    4.1197   26.2978 C   0  0  0  0  0  0  0  0  0  0  0  0
   -9.6462    5.2680   26.3207 C   0  0  0  0  0  0  0  0  0  0  0  0
   -9.5767    2.9951   25.5281 C   0  0  0  0  0  0  0  0  0  0  0  0
  -10.5226    3.1860   24.5319 C   0  0  0  0  0  0  0  0  0  0  0  0
  -11.8128    3.3015   25.0284 C   0  0  0  0  0  0  0  0  0  0  0  0
  -12.8582    3.5646   24.0940 C   0  0  0  0  0  0  0  0  0  0  0  0
  1  2  1  0
  2  6  1  0
  6 12  1  0
 13 14  1  0
 14 15  2  3
 15 16  1  0
 12 11  1  0
  4  5  2  0
  5  9  1  0
  9 10  2  0
 10  8  1  0
  8  7  2  0
  1  3  2  0
  3  4  1  0
  4  7  1  0
  7 13  1  0
 13 11  2  0
 11  1  1  0
M  END
$$$$
