No_7994-complexes_sdf/6BKW-FPZ/2024-09-17-14-21-01/
     RDKit          3D

 25 26  0  0  0  0  0  0  0  0999 V2000
   -7.9040    3.9820   27.1177 C   0  0  0  0  0  0  0  0  0  0  0  0
   -9.0711    4.3164   27.0630 C   0  0  0  0  0  0  0  0  0  0  0  0
  -10.0395    3.8218   27.1938 C   0  0  0  0  0  0  0  0  0  0  0  0
   -7.6424    2.5858   27.3610 C   0  0  0  0  0  0  0  0  0  0  0  0
   -8.7741    1.7889   27.4566 C   0  0  0  0  0  0  0  0  0  0  0  0
  -10.0155    2.3581   27.4300 C   0  0  0  0  0  0  0  0  0  0  0  0
  -11.2141    1.4842   27.6314 C   0  0  0  0  0  0  0  0  0  0  0  0
  -10.7429    0.4213   28.2153 F   0  0  0  0  0  0  0  0  0  0  0  0
  -12.0318    2.1196   28.5105 F   0  0  0  0  0  0  0  0  0  0  0  0
  -11.8693    1.2315   26.5667 F   0  0  0  0  0  0  0  0  0  0  0  0
   -9.1428    5.9704   26.8353 C   0  0  0  0  0  0  0  0  0  0  0  0
   -9.3130    6.0817   25.6983 F   0  0  0  0  0  0  0  0  0  0  0  0
   -7.8628    6.5353   27.1385 F   0  0  0  0  0  0  0  0  0  0  0  0
  -10.0388    6.5827   27.5720 F   0  0  0  0  0  0  0  0  0  0  0  0
   -6.2602    2.0404   27.4064 C   0  0  0  0  0  0  0  0  0  0  0  0
   -6.0121    0.6670   27.2488 C   0  0  0  0  0  0  0  0  0  0  0  0
   -4.7299    0.1944   27.4540 C   0  0  0  0  0  0  0  0  0  0  0  0
   -4.3974   -1.1121   27.3218 C   0  0  0  0  0  0  0  0  0  0  0  0
   -5.3619   -1.9935   27.0366 C   0  0  0  0  0  0  0  0  0  0  0  0
   -6.6799   -1.5330   26.8702 C   0  0  0  0  0  0  0  0  0  0  0  0
   -7.0149   -0.1991   27.0342 C   0  0  0  0  0  0  0  0  0  0  0  0
   -3.5792    1.1824   27.7810 C   0  0  0  0  0  0  0  0  0  0  0  0
   -2.4132    0.7393   27.8163 O   0  0  0  0  0  0  0  0  0  0  0  0
   -7.8082   -2.5126   26.6373 C   0  0  0  0  0  0  0  0  0  0  0  0
   -8.0021   -3.4447   27.2722 C   0  0  0  0  0  0  0  0  0  0  0  0
  6  7  1  0
  7  8  1  0
  7  9  1  0
  7 10  1  0
  2 11  1  0
 11 12  1  0
 11 13  1  0
 11 14  1  0
  4 15  1  0
 17 22  1  0
 22 23  1  0
 20 24  1  0
 24 25  2  0
 15 16  1  0
  1  2  2  0
  2  3  1  0
  3  6  2  0
  6  5  1  0
  5  4  2  0
  4  1  1  0
 16 17  2  0
 17 18  1  0
 18 19  2  0
 19 20  1  0
 20 21  2  0
 21 16  1  0
M  END
$$$$
