No_7502-complexes_sdf/6BKW-FPZ/2024-09-17-14-21-01/
     RDKit          3D

 27 30  0  0  0  0  0  0  0  0999 V2000
   -7.9040    3.9820   27.1177 C   0  0  0  0  0  0  0  0  0  0  0  0
   -8.2057    2.8231   26.8733 C   0  0  0  0  0  0  0  0  0  0  0  0
   -7.0130    4.3706   28.1140 C   0  0  0  0  0  0  0  0  0  0  0  0
   -9.3829    2.4374   26.1668 C   0  0  0  0  0  0  0  0  0  0  0  0
   -9.6934    1.0230   26.0164 C   0  0  0  0  0  0  0  0  0  0  0  0
  -10.8180    0.7042   25.2560 C   0  0  0  0  0  0  0  0  0  0  0  0
   -8.7267    5.1072   26.6111 C   0  0  0  0  0  0  0  0  0  0  0  0
   -8.5236    6.4932   27.0247 C   0  0  0  0  0  0  0  0  0  0  0  0
  -11.5389    1.7400   24.6813 C   0  0  0  0  0  0  0  0  0  0  0  0
  -11.1836    3.0824   24.7359 C   0  0  0  0  0  0  0  0  0  0  0  0
  -10.0064    3.4191   25.4964 C   0  0  0  0  0  0  0  0  0  0  0  0
   -9.7719    4.7067   25.7058 C   0  0  0  0  0  0  0  0  0  0  0  0
   -6.8501    5.7196   28.5942 C   0  0  0  0  0  0  0  0  0  0  0  0
   -7.5444    6.7446   27.9538 C   0  0  0  0  0  0  0  0  0  0  0  0
   -8.5295    0.1382   26.0029 C   0  0  0  0  0  0  0  0  0  0  0  0
   -7.6210    0.0635   25.1951 C   0  0  0  0  0  0  0  0  0  0  0  0
   -6.7791   -0.9386   25.0325 C   0  0  0  0  0  0  0  0  0  0  0  0
   -6.5510   -1.9131   26.0072 C   0  0  0  0  0  0  0  0  0  0  0  0
   -7.5007   -1.7955   27.0723 C   0  0  0  0  0  0  0  0  0  0  0  0
   -8.5149   -0.8161   27.1341 C   0  0  0  0  0  0  0  0  0  0  0  0
   -7.4223   -2.7767   28.2336 C   0  0  0  0  0  0  0  0  0  0  0  0
   -7.3077   -3.9017   27.8908 F   0  0  0  0  0  0  0  0  0  0  0  0
   -8.6350   -2.6094   28.9470 F   0  0  0  0  0  0  0  0  0  0  0  0
   -6.4053   -2.4015   29.0664 F   0  0  0  0  0  0  0  0  0  0  0  0
  -11.1502   -0.6783   25.1310 C   0  0  0  0  0  0  0  0  0  0  0  0
  -10.4195   -1.5261   25.1741 O   0  0  0  0  0  0  0  0  0  0  0  0
  -12.4191   -0.9073   25.0272 O   0  0  0  0  0  0  0  0  0  0  0  0
  1  2  1  0
  2  4  1  0
  7 12  1  0
 11 12  1  0
  5 15  1  0
 19 21  1  0
 21 22  1  0
 21 23  1  0
 21 24  1  0
  6 25  1  0
 25 26  2  0
 25 27  1  0
 15 16  2  0
 16 17  1  0
 17 18  2  0
 18 19  1  0
 19 20  2  0
 20 15  1  0
  1  3  2  0
  3 13  1  0
 13 14  2  0
 14  8  1  0
  8  7  2  0
  7  1  1  0
  4  5  2  0
  5  6  1  0
  6  9  2  0
  9 10  1  0
 10 11  2  0
 11  4  1  0
M  END
$$$$
