No_7262-complexes_sdf/6BKW-FPZ/2024-09-17-14-21-01/
     RDKit          3D

 40 45  0  0  0  0  0  0  0  0999 V2000
   -7.9040    3.9820   27.1177 C   0  0  0  0  0  0  0  0  0  0  0  0
   -8.2057    2.8231   26.8733 C   0  0  0  0  0  0  0  0  0  0  0  0
   -7.4766    1.7477   27.4593 C   0  0  0  0  0  0  0  0  0  0  0  0
   -8.7468    5.1251   26.6967 C   0  0  0  0  0  0  0  0  0  0  0  0
   -9.7234    4.8589   25.8202 C   0  0  0  0  0  0  0  0  0  0  0  0
   -9.9711    3.5858   25.4266 C   0  0  0  0  0  0  0  0  0  0  0  0
   -9.2266    2.4957   25.9600 C   0  0  0  0  0  0  0  0  0  0  0  0
   -6.1241    1.9216   27.8574 C   0  0  0  0  0  0  0  0  0  0  0  0
   -5.4248    0.7985   28.3602 C   0  0  0  0  0  0  0  0  0  0  0  0
   -5.9324   -0.4517   28.3727 C   0  0  0  0  0  0  0  0  0  0  0  0
   -7.8680    0.3890   27.4333 C   0  0  0  0  0  0  0  0  0  0  0  0
   -7.2076   -0.6217   27.9501 C   0  0  0  0  0  0  0  0  0  0  0  0
   -8.4174    6.5135   27.1003 C   0  0  0  0  0  0  0  0  0  0  0  0
   -7.9217    7.5804   27.0558 N   0  0  0  0  0  0  0  0  0  0  0  0
   -4.1209    1.0936   28.7731 F   0  0  0  0  0  0  0  0  0  0  0  0
  -11.0048    3.3236   24.4220 C   0  0  2  0  0  0  0  0  0  0  0  0
  -12.2710    3.1066   24.8266 C   0  0  0  0  0  0  0  0  0  0  0  0
  -12.6840    2.7283   25.8419 C   0  0  0  0  0  0  0  0  0  0  0  0
  -14.1374    2.5507   26.1788 C   0  0  0  0  0  0  0  0  0  0  0  0
  -15.0100    2.8491   25.1775 C   0  0  0  0  0  0  0  0  0  0  0  0
  -14.6109    3.3288   23.9772 C   0  0  0  0  0  0  0  0  0  0  0  0
  -13.2671    3.5395   23.7357 C   0  0  0  0  0  0  0  0  0  0  0  0
  -10.5487    3.2262   23.1466 N   0  0  0  0  0  0  0  0  0  0  0  0
  -10.5248    4.1991   22.3542 C   0  0  2  0  0  0  0  0  0  0  0  0
  -10.1976    1.9756   22.7196 C   0  0  0  0  0  0  0  0  0  0  0  0
   -9.8810    0.8566   23.3859 C   0  0  0  0  0  0  0  0  0  0  0  0
   -9.3183   -0.2619   22.9112 C   0  0  0  0  0  0  0  0  0  0  0  0
   -9.2283   -0.3316   21.5317 C   0  0  0  0  0  0  0  0  0  0  0  0
   -9.9295    1.8966   21.3481 C   0  0  0  0  0  0  0  0  0  0  0  0
   -9.4607    0.7404   20.7585 C   0  0  0  0  0  0  0  0  0  0  0  0
  -10.8117    5.5366   22.8685 C   0  0  0  0  0  0  0  0  0  0  0  0
  -10.3536    4.1180   20.9462 C   0  0  0  0  0  0  0  0  0  0  0  0
   -9.9646    3.0156   20.4727 C   0  0  0  0  0  0  0  0  0  0  0  0
   -8.5377   -1.9238   20.7846 Br  0  0  0  0  0  0  0  0  0  0  0  0
   -7.7783   -1.9904   28.0063 C   0  0  0  0  0  0  0  0  0  0  0  0
   -9.0725   -2.1160   28.0149 C   0  0  0  0  0  0  0  0  0  0  0  0
   -9.7244   -3.4234   28.0815 C   0  0  0  0  0  0  0  0  0  0  0  0
   -8.8688   -4.4915   28.2071 C   0  0  0  0  0  0  0  0  0  0  0  0
   -7.0803   -3.1882   28.1883 C   0  0  0  0  0  0  0  0  0  0  0  0
   -7.5747   -4.3565   28.2585 C   0  0  0  0  0  0  0  0  0  0  0  0
  2  3  1  0
  4 13  1  0
 13 14  3  0
  9 15  1  0
  6 16  1  0
 16 17  1  0
 16 23  1  1
 23 24  1  0
 23 25  1  0
 24 32  1  0
 29 33  1  0
 28 34  1  0
 12 35  1  0
 24 31  1  6
 32 33  1  0
 25 26  2  0
 26 27  1  0
 27 28  2  0
 28 30  1  0
 30 29  2  0
 29 25  1  0
  1  2  2  0
  2  7  1  0
  7  6  2  0
  6  5  1  0
  5  4  2  0
  4  1  1  0
  3  8  2  0
  8  9  1  0
  9 10  2  0
 10 12  1  0
 12 11  2  0
 11  3  1  0
 35 36  2  0
 36 37  1  0
 37 38  2  0
 38 40  1  0
 40 39  2  0
 39 35  1  0
 17 18  2  0
 18 19  1  0
 19 20  2  0
 20 21  1  0
 21 22  2  0
 22 17  1  0
M  END
$$$$
