No_7406-complexes_sdf/6BKW-FPZ/2024-09-17-14-21-01/
     RDKit          3D

 33 36  0  0  0  0  0  0  0  0999 V2000
   -7.7129    4.2099   27.0854 C   0  0  0  0  0  0  0  0  0  0  0  0
   -8.2112    3.0637   26.9225 C   0  0  0  0  0  0  0  0  0  0  0  0
   -8.5108    5.3904   26.9436 C   0  0  0  0  0  0  0  0  0  0  0  0
   -9.7256    5.1955   26.3518 C   0  0  0  0  0  0  0  0  0  0  0  0
   -7.4704    1.8386   27.3272 C   0  0  0  0  0  0  0  0  0  0  0  0
   -9.4948    2.8714   26.4765 C   0  0  0  0  0  0  0  0  0  0  0  0
  -10.0318    1.5514   26.2490 C   0  0  0  0  0  0  0  0  0  0  0  0
  -10.2671    3.9730   26.1637 C   0  0  0  0  0  0  0  0  0  0  0  0
   -7.1586    0.9960   26.6464 C   0  0  0  0  0  0  0  0  0  0  0  0
   -6.1516    0.1256   27.2572 C   0  0  0  0  0  0  0  0  0  0  0  0
   -5.3517    0.7827   28.1328 C   0  0  0  0  0  0  0  0  0  0  0  0
   -4.2460    0.0670   28.7989 C   0  0  0  0  0  0  0  0  0  0  0  0
   -4.0104   -1.1919   28.6372 C   0  0  0  0  0  0  0  0  0  0  0  0
   -4.8701   -1.8779   27.7247 C   0  0  0  0  0  0  0  0  0  0  0  0
   -5.8869   -1.2135   27.0673 C   0  0  0  0  0  0  0  0  0  0  0  0
   -7.9500    6.7645   27.1745 C   0  0  0  0  0  0  0  0  0  0  0  0
  -10.6578    1.0129   27.1999 C   0  0  0  0  0  0  0  0  0  0  0  0
  -11.2902    1.8205   28.1745 C   0  0  0  0  0  0  0  0  0  0  0  0
  -10.8899   -0.4180   27.4341 C   0  0  0  0  0  0  0  0  0  0  0  0
  -11.3447   -0.9634   28.4914 C   0  0  0  0  0  0  0  0  0  0  0  0
  -12.1322    1.2456   29.2679 C   0  0  0  0  0  0  0  0  0  0  0  0
  -12.1316   -0.0761   29.3933 C   0  0  0  0  0  0  0  0  0  0  0  0
   -8.6205    7.8288   26.8295 O   0  0  0  0  0  0  0  0  0  0  0  0
   -6.7859    6.8589   27.7524 O   0  0  0  0  0  0  0  0  0  0  0  0
  -10.8199    1.5231   24.9256 C   0  0  0  0  0  0  0  0  0  0  0  0
  -10.3447    0.7679   23.9275 C   0  0  0  0  0  0  0  0  0  0  0  0
  -10.9967    0.8043   22.7098 C   0  0  0  0  0  0  0  0  0  0  0  0
  -12.1340    1.5401   22.5247 C   0  0  0  0  0  0  0  0  0  0  0  0
  -12.6289    2.2561   23.6061 C   0  0  0  0  0  0  0  0  0  0  0  0
  -11.9659    2.2938   24.7991 C   0  0  0  0  0  0  0  0  0  0  0  0
   -2.8974   -1.8890   29.2939 C   0  0  0  0  0  0  0  0  0  0  0  0
   -3.2669   -2.9356   29.8506 O   0  0  0  0  0  0  0  0  0  0  0  0
   -1.7300   -1.4162   29.2256 O   0  0  0  0  0  0  0  0  0  0  0  0
  2  5  1  0
  6  7  1  0
  5  9  1  0
  9 10  1  0
  3 16  1  0
  7 17  1  0
 16 23  2  0
 16 24  1  0
  7 25  1  0
 13 31  1  0
 31 32  1  0
 31 33  2  0
 25 26  2  0
 26 27  1  0
 27 28  2  0
 28 29  1  0
 29 30  2  0
 30 25  1  0
  1  2  2  0
  2  6  1  0
  6  8  2  0
  8  4  1  0
  4  3  2  0
  3  1  1  0
 17 18  2  0
 18 21  1  0
 21 22  2  0
 22 20  1  0
 20 19  2  0
 19 17  1  0
 10 11  2  0
 11 12  1  0
 12 13  2  0
 13 14  1  0
 14 15  2  0
 15 10  1  0
M  END
$$$$
