No_7209-complexes_sdf/6BKW-FPZ/2024-09-17-14-21-01/
     RDKit          3D

 28 32  0  0  0  0  0  0  0  0999 V2000
   -7.7129    4.2099   27.0854 C   0  0  0  0  0  0  0  0  0  0  0  0
   -8.9133    4.4736   27.0998 C   0  0  0  0  0  0  0  0  0  0  0  0
   -9.4643    5.5426   27.7628 C   0  0  0  0  0  0  0  0  0  0  0  0
   -6.8373    4.9942   27.9785 C   0  0  0  0  0  0  0  0  0  0  0  0
   -7.3717    6.0428   28.6744 C   0  0  0  0  0  0  0  0  0  0  0  0
   -8.7562    6.2623   28.2529 C   0  0  0  0  0  0  0  0  0  0  0  0
   -9.7825    3.5240   26.2428 C   0  0  0  0  0  0  0  0  0  0  0  0
   -9.9160    2.2756   26.4951 C   0  0  0  0  0  0  0  0  0  0  0  0
   -9.5063    1.7068   27.5105 C   0  0  0  0  0  0  0  0  0  0  0  0
   -9.6729    0.2828   27.9177 C   0  0  0  0  0  0  0  0  0  0  0  0
  -10.3284    4.2164   25.0625 C   0  0  0  0  0  0  0  0  0  0  0  0
  -11.0403    3.8306   24.2901 C   0  0  0  0  0  0  0  0  0  0  0  0
  -11.2394    2.3398   24.4382 C   0  0  0  0  0  0  0  0  0  0  0  0
  -10.7565    1.5995   25.5245 C   0  0  0  0  0  0  0  0  0  0  0  0
   -9.4998   -0.5240   26.9088 C   0  0  0  0  0  0  0  0  0  0  0  0
  -10.3183   -0.4882   25.6866 C   0  0  0  0  0  0  0  0  0  0  0  0
  -10.7128    0.2819   25.2233 C   0  0  0  0  0  0  0  0  0  0  0  0
  -12.0060    1.7085   23.3213 C   0  0  0  0  0  0  0  0  0  0  0  0
  -12.7184    2.4099   22.5997 C   0  0  0  0  0  0  0  0  0  0  0  0
  -11.4945    0.1837   23.9532 C   0  0  2  0  0  0  0  0  0  0  0  0
  -12.0142   -0.8458   23.2228 C   0  0  0  0  0  0  0  0  0  0  0  0
  -12.4993   -1.0020   22.1775 C   0  0  0  0  0  0  0  0  0  0  0  0
  -12.9023   -2.2399   21.5691 C   0  0  0  0  0  0  0  0  0  0  0  0
  -12.6401   -3.3721   22.3415 C   0  0  0  0  0  0  0  0  0  0  0  0
  -12.1086   -3.3141   23.5592 C   0  0  0  0  0  0  0  0  0  0  0  0
  -11.7393   -2.1260   24.1168 C   0  0  0  0  0  0  0  0  0  0  0  0
  -14.0046    2.7376   23.0714 C   0  0  0  0  0  0  0  0  0  0  0  0
  -14.9160    3.4095   22.2139 C   0  0  0  0  0  0  0  0  0  0  0  0
  2  7  1  0
  9 10  1  0
 10 15  2  0
 15 16  1  0
 14 17  1  0
 16 17  2  0
 13 18  1  0
 18 19  2  3
 17 20  1  0
 18 20  1  0
 20 21  1  1
 19 27  1  0
 27 28  2  0
  9  8  1  0
 21 22  2  0
 22 23  1  0
 23 24  2  0
 24 25  1  0
 25 26  2  0
 26 21  1  0
  1  2  2  0
  2  3  1  0
  3  6  2  0
  6  5  1  0
  5  4  2  0
  4  1  1  0
  7  8  1  0
  8 14  2  0
 14 13  1  0
 13 12  2  0
 12 11  1  0
 11  7  2  0
M  END
$$$$
