No_7616-complexes_sdf/6BKW-FPZ/2024-09-17-14-21-01/
     RDKit          3D

 22 22  0  0  0  0  0  0  0  0999 V2000
   -7.9040    3.9820   27.1177 C   0  0  0  0  0  0  0  0  0  0  0  0
   -9.0711    4.3164   27.0630 C   0  0  0  0  0  0  0  0  0  0  0  0
   -9.8698    3.9665   25.9495 C   0  0  0  0  0  0  0  0  0  0  0  0
   -7.0332    4.5030   28.2025 C   0  0  0  0  0  0  0  0  0  0  0  0
   -9.4357    2.9501   25.1393 C   0  0  0  0  0  0  0  0  0  0  0  0
   -8.2567    2.3218   25.4797 C   0  0  0  0  0  0  0  0  0  0  0  0
   -7.5105    2.7966   26.5752 C   0  0  0  0  0  0  0  0  0  0  0  0
  -10.2472    2.5204   24.0264 C   0  0  0  0  0  0  0  0  0  0  0  0
   -9.7887    1.5403   23.3785 F   0  0  0  0  0  0  0  0  0  0  0  0
  -10.2794    3.6270   23.0761 F   0  0  0  0  0  0  0  0  0  0  0  0
  -11.5079    2.2873   24.3454 F   0  0  0  0  0  0  0  0  0  0  0  0
   -7.4626    5.5390   28.9365 N   0  0  0  0  0  0  0  0  0  0  0  0
   -5.7212    4.4210   28.0425 O   0  0  0  0  0  0  0  0  0  0  0  0
  -10.9841    4.5416   25.5109 F   0  0  0  0  0  0  0  0  0  0  0  0
   -6.4431    2.0370   26.9574 O   0  0  0  0  0  0  0  0  0  0  0  0
   -6.5553    0.6307   27.1167 C   0  0  0  0  0  0  0  0  0  0  0  0
   -5.4292    0.1942   27.8580 C   0  0  0  0  0  0  0  0  0  0  0  0
   -4.6334   -0.5948   27.3619 C   0  0  0  0  0  0  0  0  0  0  0  0
   -4.0474   -1.3822   27.9373 O   0  0  0  0  0  0  0  0  0  0  0  0
   -4.0918   -0.1717   26.1626 O   0  0  0  0  0  0  0  0  0  0  0  0
   -6.0870   -0.4463   29.0330 F   0  0  0  0  0  0  0  0  0  0  0  0
   -4.8949    1.2569   28.6281 F   0  0  0  0  0  0  0  0  0  0  0  0
  1  4  1  0
  5  8  1  0
  8  9  1  0
  8 10  1  0
  8 11  1  0
  4 12  1  0
  4 13  2  0
  3 14  1  0
  7 15  1  0
 15 16  1  0
 16 17  1  0
 17 18  1  0
 18 19  2  0
 18 20  1  0
 17 21  1  0
 17 22  1  0
  1  2  2  0
  2  3  1  0
  3  5  2  0
  5  6  1  0
  6  7  2  0
  7  1  1  0
M  END
$$$$
