No_7749-complexes_sdf/6BKW-FPZ/2024-09-17-14-21-01/
     RDKit          3D

 28 29  0  0  0  0  0  0  0  0999 V2000
   -7.7129    4.2099   27.0854 C   0  0  0  0  0  0  0  0  0  0  0  0
   -8.2112    3.0637   26.9225 C   0  0  0  0  0  0  0  0  0  0  0  0
   -7.5138    1.9223   27.4249 C   0  0  0  0  0  0  0  0  0  0  0  0
   -6.5434    4.4363   27.9024 C   0  0  0  0  0  0  0  0  0  0  0  0
   -6.2005    2.1121   27.9323 C   0  0  0  0  0  0  0  0  0  0  0  0
   -5.7560    3.3924   28.1795 C   0  0  0  0  0  0  0  0  0  0  0  0
   -8.5326    5.4191   26.7935 C   0  0  0  0  0  0  0  0  0  0  0  0
   -8.0226    6.5469   27.0569 F   0  0  0  0  0  0  0  0  0  0  0  0
   -9.8341    5.3702   27.3447 F   0  0  0  0  0  0  0  0  0  0  0  0
   -8.8546    5.4020   25.4354 F   0  0  0  0  0  0  0  0  0  0  0  0
   -5.4182    0.9143   28.3181 C   0  0  0  0  0  0  0  0  0  0  0  0
   -4.6589    0.3206   27.5385 C   0  0  0  0  0  0  0  0  0  0  0  0
   -4.5267   -0.0909   26.6294 C   0  0  0  0  0  0  0  0  0  0  0  0
   -3.9019   -0.9855   26.0439 C   0  0  0  0  0  0  0  0  0  0  0  0
   -2.6523   -1.3937   26.7156 C   0  0  0  0  0  0  0  0  0  0  0  0
   -2.4886   -0.9186   27.9882 C   0  0  0  0  0  0  0  0  0  0  0  0
   -3.3902   -0.0699   28.5995 C   0  0  0  0  0  0  0  0  0  0  0  0
   -1.6885   -2.3216   26.1478 C   0  0  0  0  0  0  0  0  0  0  0  0
   -1.9867   -2.9287   25.1787 O   0  0  0  0  0  0  0  0  0  0  0  0
   -0.5165   -2.4342   26.7201 O   0  0  0  0  0  0  0  0  0  0  0  0
   -7.9765    0.3209   27.0176 Cl  0  0  0  0  0  0  0  0  0  0  0  0
   -9.6931    2.7058   26.1566 Cl  0  0  0  0  0  0  0  0  0  0  0  0
   -3.3540    0.4840   29.9283 C   0  0  0  0  0  0  0  0  0  0  0  0
   -4.2625   -0.0308   30.8186 N   0  0  0  0  0  0  0  0  0  0  0  0
   -4.1178   -1.1614   31.5431 C   0  0  0  0  0  0  0  0  0  0  0  0
   -3.0185   -1.6755   31.6458 C   0  0  0  0  0  0  0  0  0  0  0  0
   -5.3311   -1.6363   32.1575 C   0  0  0  0  0  0  0  0  0  0  0  0
   -5.6802   -1.1783   33.4360 C   0  0  0  0  0  0  0  0  0  0  0  0
  1  7  1  0
  7  8  1  0
  7  9  1  0
  7 10  1  0
  5 11  1  0
 11 12  1  0
 15 18  1  0
 18 19  2  0
 18 20  1  0
  3 21  1  0
  2 22  1  0
 17 23  1  0
 23 24  1  0
 24 25  1  0
 25 26  1  0
 25 27  1  0
 27 28  1  0
 12 13  2  0
 13 14  1  0
 14 15  2  0
 15 16  1  0
 16 17  2  0
 17 12  1  0
  1  2  2  0
  2  3  1  0
  3  5  2  0
  5  6  1  0
  6  4  2  0
  4  1  1  0
M  END
$$$$
