No_7115-complexes_sdf/6BKW-FPZ/2024-09-17-14-21-01/
     RDKit          3D

 24 26  0  0  0  0  0  0  0  0999 V2000
   -7.2496    3.8871   27.4508 C   0  0  0  0  0  0  0  0  0  0  0  0
   -7.6161    2.7143   27.1523 C   0  0  0  0  0  0  0  0  0  0  0  0
   -8.8302    2.4659   26.5056 C   0  0  0  0  0  0  0  0  0  0  0  0
   -8.1584    5.0090   27.3234 C   0  0  0  0  0  0  0  0  0  0  0  0
   -9.3788    4.7965   26.7695 C   0  0  0  0  0  0  0  0  0  0  0  0
   -9.7028    3.5649   26.3276 C   0  0  0  0  0  0  0  0  0  0  0  0
   -6.7182    1.5519   27.3631 C   0  0  0  0  0  0  0  0  0  0  0  0
   -5.6037    1.7361   28.0113 O   0  0  0  0  0  0  0  0  0  0  0  0
   -7.0832    0.2952   27.1832 N   0  0  0  0  0  0  0  0  0  0  0  0
   -6.2388   -0.8545   27.4412 C   0  0  0  0  0  0  0  0  0  0  0  0
   -7.6007    6.5747   27.8660 Cl  0  0  0  0  0  0  0  0  0  0  0  0
   -5.0946   -0.8562   27.4193 C   0  0  0  0  0  0  0  0  0  0  0  0
  -10.9879    3.3730   25.6289 C   0  0  0  0  0  0  0  0  0  0  0  0
  -11.0256    3.5709   24.2366 C   0  0  0  0  0  0  0  0  0  0  0  0
  -12.1190    3.7219   23.5063 C   0  0  0  0  0  0  0  0  0  0  0  0
  -12.1123    3.0151   26.2875 C   0  0  0  0  0  0  0  0  0  0  0  0
  -13.3527    3.0619   25.5816 C   0  0  0  0  0  0  0  0  0  0  0  0
  -13.3411    3.4104   24.2474 C   0  0  0  0  0  0  0  0  0  0  0  0
   -7.1145   -2.0359   27.6726 C   0  0  0  0  0  0  0  0  0  0  0  0
   -4.3023   -2.0784   27.4937 C   0  0  0  0  0  0  0  0  0  0  0  0
   -6.3886   -3.2261   27.8514 C   0  0  0  0  0  0  0  0  0  0  0  0
   -5.0184   -3.2393   27.7608 C   0  0  0  0  0  0  0  0  0  0  0  0
   -7.2783   -4.6453   28.1262 Cl  0  0  0  0  0  0  0  0  0  0  0  0
  -14.5135    3.4385   23.5660 F   0  0  0  0  0  0  0  0  0  0  0  0
  2  7  1  0
  7  8  2  0
  7  9  1  0
  9 10  1  0
  4 11  1  0
  6 13  1  0
 21 23  1  0
 18 24  1  0
 13 14  2  0
 14 15  1  0
 15 18  2  0
 18 17  1  0
 17 16  2  0
 16 13  1  0
  1  2  2  0
  2  3  1  0
  3  6  2  0
  6  5  1  0
  5  4  2  0
  4  1  1  0
 10 12  2  0
 12 20  1  0
 20 22  2  0
 22 21  1  0
 21 19  2  0
 19 10  1  0
M  END
$$$$
