No_76-complexes_sdf/6BKW-FPZ/2024-09-17-14-21-01/
     RDKit          3D

 14 15  0  0  0  0  0  0  0  0999 V2000
   -7.2496    3.8871   27.4508 C   0  0  0  0  0  0  0  0  0  0  0  0
   -7.9379    4.9063   27.8518 C   0  0  0  0  0  0  0  0  0  0  0  0
   -9.3460    4.8223   27.8695 C   0  0  0  0  0  0  0  0  0  0  0  0
   -7.8628    2.6163   27.1065 C   0  0  0  0  0  0  0  0  0  0  0  0
   -9.2787    2.5744   27.1970 C   0  0  0  0  0  0  0  0  0  0  0  0
  -10.0108    3.6770   27.6340 C   0  0  0  0  0  0  0  0  0  0  0  0
  -11.5178    3.7574   27.7698 C   0  0  0  0  0  0  0  0  0  0  0  0
  -12.2297    4.3986   26.9821 C   0  0  0  0  0  0  0  0  0  0  0  0
  -13.6570    4.5105   27.0489 C   0  0  0  0  0  0  0  0  0  0  0  0
  -12.0871    3.4298   29.0280 C   0  0  0  0  0  0  0  0  0  0  0  0
  -13.4626    3.4670   29.2596 C   0  0  0  0  0  0  0  0  0  0  0  0
  -14.2328    4.1345   28.2648 C   0  0  0  0  0  0  0  0  0  0  0  0
   -7.0098    1.2553   26.7179 Cl  0  0  0  0  0  0  0  0  0  0  0  0
   -7.3046    6.0638   28.0886 O   0  0  0  0  0  0  0  0  0  0  0  0
  6  7  1  0
  4 13  1  0
  2 14  1  0
  1  2  2  0
  2  3  1  0
  3  6  2  0
  6  5  1  0
  5  4  2  0
  4  1  1  0
  7  8  2  0
  8  9  1  0
  9 12  2  0
 12 11  1  0
 11 10  2  0
 10  7  1  0
M  END
$$$$
