No_7700-complexes_sdf/6BKW-FPZ/2024-09-17-14-21-01/
     RDKit          3D

 29 31  0  0  0  0  0  0  0  0999 V2000
   -7.9040    3.9820   27.1177 C   0  0  0  0  0  0  0  0  0  0  0  0
   -9.0711    4.3164   27.0630 C   0  0  0  0  0  0  0  0  0  0  0  0
  -10.0395    3.8218   27.1938 C   0  0  0  0  0  0  0  0  0  0  0  0
   -7.6424    2.5858   27.3610 C   0  0  0  0  0  0  0  0  0  0  0  0
   -8.7646    1.7754   27.4263 C   0  0  0  0  0  0  0  0  0  0  0  0
   -9.9966    2.3406   27.3957 C   0  0  0  0  0  0  0  0  0  0  0  0
  -11.2016    1.4680   27.6051 C   0  0  0  0  0  0  0  0  0  0  0  0
  -10.9539    0.2135   27.7368 C   0  0  0  0  0  0  0  0  0  0  0  0
  -12.0190   -0.5933   28.2473 C   0  0  0  0  0  0  0  0  0  0  0  0
  -12.4356    2.0493   27.8563 C   0  0  0  0  0  0  0  0  0  0  0  0
  -13.4953    1.2546   28.2977 C   0  0  0  0  0  0  0  0  0  0  0  0
  -13.2552   -0.0726   28.4499 C   0  0  0  0  0  0  0  0  0  0  0  0
   -6.2580    2.0257   27.3746 C   0  0  0  0  0  0  0  0  0  0  0  0
   -5.9907    0.6788   27.3378 C   0  0  2  0  0  0  0  0  0  0  0  0
   -4.7527    0.2947   27.6435 C   0  0  0  0  0  0  0  0  0  0  0  0
   -4.4464   -0.3360   28.8022 C   0  0  0  0  0  0  0  0  0  0  0  0
   -3.0866   -0.6477   29.2303 C   0  0  0  0  0  0  0  0  0  0  0  0
   -2.1010   -0.3560   28.3036 C   0  0  0  0  0  0  0  0  0  0  0  0
   -2.3598    0.2987   27.1012 C   0  0  0  0  0  0  0  0  0  0  0  0
   -3.6748    0.6288   26.8016 C   0  0  0  0  0  0  0  0  0  0  0  0
   -9.1348    6.0067   26.8882 C   0  0  0  0  0  0  0  0  0  0  0  0
   -7.9593    6.7897   26.9925 C   0  0  0  0  0  0  0  0  0  0  0  0
   -8.0292    8.1654   26.6609 C   0  0  0  0  0  0  0  0  0  0  0  0
   -2.8304   -1.2552   30.5161 C   0  0  0  0  0  0  0  0  0  0  0  0
   -1.7803   -1.9164   30.6073 F   0  0  0  0  0  0  0  0  0  0  0  0
   -2.7901   -0.2278   31.4951 F   0  0  0  0  0  0  0  0  0  0  0  0
   -3.9167   -1.9465   30.8844 F   0  0  0  0  0  0  0  0  0  0  0  0
   -6.2689    0.2409   26.0173 F   0  0  0  0  0  0  0  0  0  0  0  0
   -6.9489   -0.0764   28.1508 O   0  0  0  0  0  0  0  0  0  0  0  0
  6  7  1  0
  4 13  1  0
 13 14  1  0
 14 15  1  0
  2 21  1  0
 21 22  1  0
 22 23  1  0
 17 24  1  0
 24 25  1  0
 24 26  1  0
 24 27  1  0
 14 28  1  0
 14 29  1  1
 15 16  2  0
 16 17  1  0
 17 18  2  0
 18 19  1  0
 19 20  2  0
 20 15  1  0
  1  2  2  0
  2  3  1  0
  3  6  2  0
  6  5  1  0
  5  4  2  0
  4  1  1  0
  7  8  2  0
  8  9  1  0
  9 12  2  0
 12 11  1  0
 11 10  2  0
 10  7  1  0
M  END
$$$$
