No_749-complexes_sdf/6BKW-FPZ/2024-09-17-14-21-01/
     RDKit          3D

 34 38  0  0  0  0  0  0  0  0999 V2000
   -7.7129    4.2099   27.0854 C   0  0  0  0  0  0  0  0  0  0  0  0
   -8.9133    4.4736   27.0998 C   0  0  0  0  0  0  0  0  0  0  0  0
   -9.8363    3.8127   27.2418 C   0  0  0  0  0  0  0  0  0  0  0  0
   -7.2995    2.8520   27.3808 C   0  0  0  0  0  0  0  0  0  0  0  0
   -8.3404    1.9507   27.4989 C   0  0  0  0  0  0  0  0  0  0  0  0
   -9.6166    2.3791   27.4719 C   0  0  0  0  0  0  0  0  0  0  0  0
   -9.1683    6.0342   26.9011 C   0  0  0  0  0  0  0  0  0  0  0  0
   -8.9375    6.8545   27.9520 C   0  0  0  0  0  0  0  0  0  0  0  0
   -8.2741    6.4981   25.6543 C   0  0  0  0  0  0  0  0  0  0  0  0
   -8.0017    0.5126   27.7026 C   0  0  0  0  0  0  0  0  0  0  0  0
   -6.6868    0.0725   27.7422 C   0  0  0  0  0  0  0  0  0  0  0  0
   -6.2254   -1.0348   27.9795 C   0  0  0  0  0  0  0  0  0  0  0  0
   -4.7820   -1.3291   28.0950 C   0  0  0  0  0  0  0  0  0  0  0  0
   -3.8648   -0.2842   27.8308 C   0  0  0  0  0  0  0  0  0  0  0  0
   -4.3735    0.9547   27.4614 C   0  0  0  0  0  0  0  0  0  0  0  0
   -5.7095    1.2173   27.4891 C   0  0  0  0  0  0  0  0  0  0  0  0
   -6.1654    2.5096   27.3174 N   0  0  0  0  0  0  0  0  0  0  0  0
  -10.8121    1.4911   27.7433 C   0  0  0  0  0  0  0  0  0  0  0  0
  -11.8236    2.0788   28.4849 C   0  0  0  0  0  0  0  0  0  0  0  0
  -12.9774    1.2824   28.8502 C   0  0  0  0  0  0  0  0  0  0  0  0
  -12.9342   -0.0672   28.4871 C   0  0  0  0  0  0  0  0  0  0  0  0
  -11.9226   -0.6179   27.7805 C   0  0  0  0  0  0  0  0  0  0  0  0
  -10.8413    0.1556   27.4541 C   0  0  0  0  0  0  0  0  0  0  0  0
  -11.9450   -2.0514   27.4258 C   0  0  2  0  0  0  0  0  0  0  0  0
  -10.9232   -2.7726   27.5461 N   0  0  0  0  0  0  0  0  0  0  0  0
  -10.5848   -3.7437   26.9862 C   0  0  0  0  0  0  0  0  0  0  0  0
  -11.2723   -4.2691   26.0996 C   0  0  0  0  0  0  0  0  0  0  0  0
  -12.9831   -2.4728   26.6327 C   0  0  0  0  0  0  0  0  0  0  0  0
  -12.6208   -3.6320   25.8360 C   0  0  2  0  0  0  0  0  0  0  0  0
  -13.6019   -4.2073   24.9837 C   0  0  0  0  0  0  0  0  0  0  0  0
  -13.3225   -4.8900   24.2018 F   0  0  0  0  0  0  0  0  0  0  0  0
  -14.2749   -3.0526   24.4531 F   0  0  0  0  0  0  0  0  0  0  0  0
  -14.5479   -4.7271   25.8322 F   0  0  0  0  0  0  0  0  0  0  0  0
  -12.1191   -2.8300   25.2246 F   0  0  0  0  0  0  0  0  0  0  0  0
  2  7  1  0
  7  8  1  0
  7  9  1  0
  6 18  1  0
 24 22  1  6
 24 25  1  0
 25 26  1  0
 26 27  2  0
 24 28  1  0
 27 29  1  0
 28 29  1  0
 29 30  1  0
 30 31  1  0
 30 32  1  0
 30 33  1  0
 29 34  1  6
 18 19  2  0
 19 20  1  0
 20 21  2  0
 21 22  1  0
 22 23  2  0
 23 18  1  0
  1  2  2  0
  2  3  1  0
  3  6  2  0
  6  5  1  0
  4  1  1  0
 11 12  1  0
 12 13  2  0
 13 14  1  0
 14 15  2  0
 15 16  1  0
  4  5  2  0
  5 10  1  0
 10 11  2  0
 11 16  1  0
 16 17  2  0
 17  4  1  0
M  END
$$$$
