No_7293-complexes_sdf/6BKW-FPZ/2024-09-17-14-21-01/
     RDKit          3D

 16 18  0  0  0  0  0  0  0  0999 V2000
   -7.9040    3.9820   27.1177 C   0  0  0  0  0  0  0  0  0  0  0  0
   -7.8663    4.8694   27.9238 C   0  0  0  0  0  0  0  0  0  0  0  0
   -9.0501    3.8017   26.2617 C   0  0  0  0  0  0  0  0  0  0  0  0
  -10.0189    4.7608   26.3707 C   0  0  0  0  0  0  0  0  0  0  0  0
   -8.6973    5.9722   27.8968 C   0  0  0  0  0  0  0  0  0  0  0  0
   -9.8216    5.8946   27.1241 C   0  0  0  0  0  0  0  0  0  0  0  0
   -9.1437    2.6293   25.4175 C   0  0  0  0  0  0  0  0  0  0  0  0
   -9.9232    2.7400   24.3320 N   0  0  0  0  0  0  0  0  0  0  0  0
   -9.9747    1.6541   23.5117 C   0  0  0  0  0  0  0  0  0  0  0  0
   -8.5018    1.5035   25.6706 C   0  0  0  0  0  0  0  0  0  0  0  0
   -8.5373    0.4150   24.8459 C   0  0  0  0  0  0  0  0  0  0  0  0
   -9.2974    0.5318   23.7170 C   0  0  0  0  0  0  0  0  0  0  0  0
   -9.4107   -0.5967   22.7380 C   0  0  0  0  0  0  0  0  0  0  0  0
  -10.1409   -0.4826   21.6517 C   0  0  0  0  0  0  0  0  0  0  0  0
  -10.8228    0.7956   21.4125 C   0  0  0  0  0  0  0  0  0  0  0  0
  -10.7632    1.8313   22.2792 C   0  0  0  0  0  0  0  0  0  0  0  0
  3  7  1  0
 12 13  2  0
 13 14  1  0
 14 15  2  0
 15 16  1  0
 16  9  2  0
  1  2  2  0
  2  5  1  0
  5  6  2  0
  6  4  1  0
  4  3  2  0
  3  1  1  0
  7  8  2  0
  8  9  1  0
  9 12  1  0
 12 11  1  0
 11 10  2  0
 10  7  1  0
M  END
$$$$
