No_782-complexes_sdf/6BKW-FPZ/2024-09-17-14-21-01/
     RDKit          3D

 24 27  0  0  0  0  0  0  0  0999 V2000
   -7.9040    3.9820   27.1177 C   0  0  0  0  0  0  0  0  0  0  0  0
   -7.8663    4.8694   27.9238 C   0  0  0  0  0  0  0  0  0  0  0  0
   -9.0491    3.8523   26.2542 C   0  0  0  0  0  0  0  0  0  0  0  0
   -8.7661    5.9491   27.9690 C   0  0  0  0  0  0  0  0  0  0  0  0
   -9.9295    4.8502   26.2323 C   0  0  0  0  0  0  0  0  0  0  0  0
   -9.8077    5.9288   27.0933 C   0  0  0  0  0  0  0  0  0  0  0  0
   -9.0726    2.7074   25.3087 C   0  0  0  0  0  0  0  0  0  0  0  0
   -8.6026    1.4628   25.7488 C   0  0  0  0  0  0  0  0  0  0  0  0
   -9.7747    2.8675   24.1040 C   0  0  0  0  0  0  0  0  0  0  0  0
   -8.7082    0.4024   24.8766 C   0  0  0  0  0  0  0  0  0  0  0  0
   -9.8729    1.7491   23.2711 C   0  0  0  0  0  0  0  0  0  0  0  0
   -9.3145    0.5407   23.6405 C   0  0  0  0  0  0  0  0  0  0  0  0
   -9.4760   -0.4745   22.5788 C   0  0  0  0  0  0  0  0  0  0  0  0
  -10.2883   -1.5165   22.8936 C   0  0  0  0  0  0  0  0  0  0  0  0
  -10.4063   -2.5547   21.9208 C   0  0  0  0  0  0  0  0  0  0  0  0
   -9.6991   -2.4976   20.7003 C   0  0  0  0  0  0  0  0  0  0  0  0
   -8.8442   -1.4279   20.4412 C   0  0  0  0  0  0  0  0  0  0  0  0
   -8.6693   -0.3923   21.4056 C   0  0  0  0  0  0  0  0  0  0  0  0
   -8.0847   -0.8968   25.2433 C   0  0  0  0  0  0  0  0  0  0  0  0
   -8.6167   -1.6525   26.0934 C   0  0  0  0  0  0  0  0  0  0  0  0
   -6.8683   -1.2807   24.5585 C   0  0  0  0  0  0  0  0  0  0  0  0
   -8.2746   -2.9650   26.3620 C   0  0  0  0  0  0  0  0  0  0  0  0
   -6.3285   -2.5535   24.8284 C   0  0  0  0  0  0  0  0  0  0  0  0
   -7.0394   -3.3872   25.7339 C   0  0  0  0  0  0  0  0  0  0  0  0
  3  7  1  0
 12 13  1  0
 10 19  1  0
 19 20  2  0
 20 22  1  0
 22 24  2  0
 24 23  1  0
 23 21  2  0
 21 19  1  0
 13 14  2  0
 14 15  1  0
 15 16  2  0
 16 17  1  0
 17 18  2  0
 18 13  1  0
  1  2  2  0
  2  4  1  0
  4  6  2  0
  6  5  1  0
  5  3  2  0
  3  1  1  0
  7  8  2  0
  8 10  1  0
 10 12  2  0
 12 11  1  0
 11  9  2  0
  9  7  1  0
M  END
$$$$
