No_7928-complexes_sdf/6BKW-FPZ/2024-09-17-14-21-01/
     RDKit          3D

 12 12  0  0  0  0  0  0  0  0999 V2000
   -7.2496    3.8871   27.4508 C   0  0  0  0  0  0  0  0  0  0  0  0
   -7.9379    4.9063   27.8518 C   0  0  0  0  0  0  0  0  0  0  0  0
   -9.3376    4.8647   27.7795 C   0  0  0  0  0  0  0  0  0  0  0  0
   -7.8544    2.6294   27.0414 C   0  0  0  0  0  0  0  0  0  0  0  0
   -9.2852    2.6570   27.0666 C   0  0  0  0  0  0  0  0  0  0  0  0
   -9.9582    3.8401   27.4064 C   0  0  0  0  0  0  0  0  0  0  0  0
   -7.1279    1.4853   26.7708 C   0  0  1  0  0  0  0  0  0  0  0  0
   -6.0334    1.2991   27.4163 O   0  0  0  0  0  0  0  0  0  0  0  0
   -8.0968    0.0284   26.8582 P   0  0  0  0  0  0  0  0  0  0  0  0
   -9.3420    0.1668   26.9480 O   0  0  0  0  0  0  0  0  0  0  0  0
   -7.4886   -0.6464   28.1037 O   0  0  0  0  0  0  0  0  0  0  0  0
   -7.6697   -0.7850   25.6669 O   0  0  0  0  0  0  0  0  0  0  0  0
  4  7  1  0
  7  8  1  1
  7  9  1  0
  9 10  1  0
  9 11  1  0
  9 12  2  0
  1  2  2  0
  2  3  1  0
  3  6  2  0
  6  5  1  0
  5  4  2  0
  4  1  1  0
M  END
$$$$
