No_7280-complexes_sdf/6BKW-FPZ/2024-09-17-14-21-01/
     RDKit          3D

 22 23  0  0  0  0  0  0  0  0999 V2000
   -7.7129    4.2099   27.0854 C   0  0  0  0  0  0  0  0  0  0  0  0
   -7.7814    5.1722   27.8972 C   0  0  0  0  0  0  0  0  0  0  0  0
   -8.8776    3.8408   26.3416 C   0  0  0  0  0  0  0  0  0  0  0  0
   -9.9844    4.6492   26.4743 C   0  0  0  0  0  0  0  0  0  0  0  0
   -8.8033    6.1375   27.8728 C   0  0  0  0  0  0  0  0  0  0  0  0
   -9.9554    5.8280   27.1737 C   0  0  0  0  0  0  0  0  0  0  0  0
   -8.8752    2.6155   25.5663 C   0  0  0  0  0  0  0  0  0  0  0  0
   -9.7166    1.6539   26.0316 C   0  0  0  0  0  0  0  0  0  0  0  0
  -10.6418    1.5908   26.6416 C   0  0  0  0  0  0  0  0  0  0  0  0
  -11.3449    0.3502   27.1585 C   0  0  0  0  0  0  0  0  0  0  0  0
  -10.7615   -0.8010   26.7464 C   0  0  0  0  0  0  0  0  0  0  0  0
   -9.2250    0.1768   25.7086 C   0  0  0  0  0  0  0  0  0  0  0  0
   -9.7793   -0.8975   26.0639 C   0  0  0  0  0  0  0  0  0  0  0  0
  -11.4513   -1.9880   27.1916 F   0  0  0  0  0  0  0  0  0  0  0  0
   -6.6582    5.6366   28.6136 O   0  0  0  0  0  0  0  0  0  0  0  0
  -12.5381    0.4580   28.1035 C   0  0  0  0  0  0  0  0  0  0  0  0
  -12.4182    1.4738   28.7489 F   0  0  0  0  0  0  0  0  0  0  0  0
  -13.6301    0.6568   27.2961 F   0  0  0  0  0  0  0  0  0  0  0  0
  -12.6437   -0.5798   28.8812 F   0  0  0  0  0  0  0  0  0  0  0  0
   -9.2826   -2.0584   25.7135 F   0  0  0  0  0  0  0  0  0  0  0  0
  -11.3731    4.2689   25.5463 Cl  0  0  0  0  0  0  0  0  0  0  0  0
   -7.7422    0.2164   24.6916 Cl  0  0  0  0  0  0  0  0  0  0  0  0
  3  7  1  0
  7  8  1  0
 11 14  1  0
  2 15  1  0
 10 16  1  0
 16 17  1  0
 16 18  1  0
 16 19  1  0
 13 20  1  0
  4 21  1  0
 12 22  1  0
  1  2  2  0
  2  5  1  0
  5  6  2  0
  6  4  1  0
  4  3  2  0
  3  1  1  0
  8  9  2  0
  9 10  1  0
 10 11  2  0
 11 13  1  0
 13 12  2  0
 12  8  1  0
M  END
$$$$
