No_7255-complexes_sdf/6BKW-FPZ/2024-09-17-14-21-01/
     RDKit          3D

 22 25  0  0  0  0  0  0  0  0999 V2000
   -7.7129    4.2099   27.0854 C   0  0  0  0  0  0  0  0  0  0  0  0
   -8.9133    4.4736   27.0998 C   0  0  0  0  0  0  0  0  0  0  0  0
   -9.4643    5.5426   27.7628 C   0  0  0  0  0  0  0  0  0  0  0  0
   -6.8373    4.9942   27.9785 C   0  0  0  0  0  0  0  0  0  0  0  0
   -7.3717    6.0428   28.6744 C   0  0  0  0  0  0  0  0  0  0  0  0
   -8.6869    6.3937   28.5345 C   0  0  0  0  0  0  0  0  0  0  0  0
   -9.8077    3.6185   26.2213 C   0  0  0  0  0  0  0  0  0  0  0  0
   -9.9184    4.0253   24.8835 C   0  0  0  0  0  0  0  0  0  0  0  0
  -10.6241    3.3348   23.9331 C   0  0  0  0  0  0  0  0  0  0  0  0
  -11.1761    2.1164   24.2285 C   0  0  0  0  0  0  0  0  0  0  0  0
  -10.3202    2.4125   26.5487 C   0  0  0  0  0  0  0  0  0  0  0  0
  -11.0334    1.6145   25.5906 C   0  0  0  0  0  0  0  0  0  0  0  0
  -10.7741    3.8894   22.5718 C   0  0  0  0  0  0  0  0  0  0  0  0
  -11.7482    3.8675   21.9398 C   0  0  0  0  0  0  0  0  0  0  0  0
  -11.7478    4.3424   20.5501 C   0  0  0  0  0  0  0  0  0  0  0  0
  -10.5311    4.8241   20.0525 C   0  0  0  0  0  0  0  0  0  0  0  0
   -9.4552    4.8034   20.8243 C   0  0  0  0  0  0  0  0  0  0  0  0
   -9.4892    4.3479   22.0539 C   0  0  0  0  0  0  0  0  0  0  0  0
  -10.1541    1.8829   27.9507 C   0  0  0  0  0  0  0  0  0  0  0  0
  -10.2828    0.5259   28.1787 C   0  0  0  0  0  0  0  0  0  0  0  0
  -10.4282   -0.2344   27.2600 C   0  0  0  0  0  0  0  0  0  0  0  0
  -10.9908    0.2116   25.9124 C   0  0  0  0  0  0  0  0  0  0  0  0
  2  7  1  0
  9 13  1  0
  7  8  2  0
  8  9  1  0
  9 10  2  0
 10 12  1  0
 11  7  1  0
 11 12  2  0
 12 22  1  0
 22 21  2  0
 21 20  1  0
 20 19  2  0
 19 11  1  0
 13 14  2  0
 14 15  1  0
 15 16  2  0
 16 17  1  0
 17 18  2  0
 18 13  1  0
  1  2  2  0
  2  3  1  0
  3  6  2  0
  6  5  1  0
  5  4  2  0
  4  1  1  0
M  END
$$$$
