No_7349-complexes_sdf/6BKW-FPZ/2024-09-17-14-21-01/
     RDKit          3D

 30 33  0  0  0  0  0  0  0  0999 V2000
   -7.2496    3.8871   27.4508 C   0  0  0  0  0  0  0  0  0  0  0  0
   -7.6161    2.7143   27.1523 C   0  0  0  0  0  0  0  0  0  0  0  0
   -7.1618    1.8631   27.5232 C   0  0  0  0  0  0  0  0  0  0  0  0
   -8.0384    5.0866   27.3232 C   0  0  0  0  0  0  0  0  0  0  0  0
   -9.1208    5.0561   26.6921 C   0  0  0  0  0  0  0  0  0  0  0  0
   -8.9505    2.6573   26.5814 C   0  0  0  0  0  0  0  0  0  0  0  0
   -9.6008    3.6611   26.3969 C   0  0  0  0  0  0  0  0  0  0  0  0
   -5.7126    1.8227   27.9692 C   0  0  0  0  0  0  0  0  0  0  0  0
   -5.0339    0.5623   28.2548 C   0  0  0  0  0  0  0  0  0  0  0  0
   -5.7075   -0.5987   28.1575 C   0  0  0  0  0  0  0  0  0  0  0  0
   -7.3746    0.3616   27.4871 C   0  0  0  0  0  0  0  0  0  0  0  0
   -4.9559   -1.7816   28.5557 C   0  0  0  0  0  0  0  0  0  0  0  0
   -6.8490   -0.6861   27.8067 C   0  0  0  0  0  0  0  0  0  0  0  0
   -7.4698    6.4475   27.7287 C   0  0  0  0  0  0  0  0  0  0  0  0
   -3.7308   -1.7072   29.1364 C   0  0  0  0  0  0  0  0  0  0  0  0
   -2.9642   -0.5720   29.0556 C   0  0  0  0  0  0  0  0  0  0  0  0
   -3.6349    0.6716   28.7519 C   0  0  0  0  0  0  0  0  0  0  0  0
   -6.5577    6.4308   28.5327 F   0  0  0  0  0  0  0  0  0  0  0  0
   -7.1331    7.1410   26.6794 F   0  0  0  0  0  0  0  0  0  0  0  0
   -8.6023    6.9944   28.2854 F   0  0  0  0  0  0  0  0  0  0  0  0
   -5.6388   -3.0748   28.6059 C   0  0  0  0  0  0  0  0  0  0  0  0
   -6.3688   -3.4396   29.4443 N   0  0  0  0  0  0  0  0  0  0  0  0
   -6.1947   -3.1691   30.7030 C   0  0  0  0  0  0  0  0  0  0  0  0
   -5.3663   -3.3576   31.4011 C   0  0  0  0  0  0  0  0  0  0  0  0
   -5.1142   -3.2044   32.5392 C   0  0  0  0  0  0  0  0  0  0  0  0
   -3.8760   -3.4121   33.3761 C   0  0  0  0  0  0  0  0  0  0  0  0
   -3.6700   -2.9336   34.6372 C   0  0  0  0  0  0  0  0  0  0  0  0
   -4.7726   -2.2892   35.3293 C   0  0  0  0  0  0  0  0  0  0  0  0
   -5.9131   -2.0347   34.6724 C   0  0  0  0  0  0  0  0  0  0  0  0
   -6.0660   -2.3710   33.3554 C   0  0  0  0  0  0  0  0  0  0  0  0
  2  3  1  0
  4 14  1  0
 14 18  1  0
 14 19  1  0
 14 20  1  0
 12 21  1  0
 21 22  1  0
 22 23  1  0
 23 24  2  3
 24 25  1  0
 25 26  2  0
 26 27  1  0
 27 28  2  0
 28 29  1  0
 29 30  2  0
 30 25  1  0
 10 12  2  0
 12 15  1  0
 15 16  2  0
 16 17  1  0
 17  9  2  0
  1  2  2  0
  2  6  1  0
  6  7  2  0
  7  5  1  0
  5  4  2  0
  4  1  1  0
  3  8  2  0
  8  9  1  0
  9 10  1  0
 10 13  1  0
 13 11  2  0
 11  3  1  0
M  END
$$$$
