No_7495-complexes_sdf/6BKW-FPZ/2024-09-17-14-21-01/
     RDKit          3D

 22 24  0  0  0  0  0  0  0  0999 V2000
   -7.2496    3.8871   27.4508 C   0  0  0  0  0  0  0  0  0  0  0  0
   -7.6161    2.7143   27.1523 C   0  0  0  0  0  0  0  0  0  0  0  0
   -8.8827    2.2318   27.1220 C   0  0  0  0  0  0  0  0  0  0  0  0
   -8.2837    4.9116   27.6108 C   0  0  0  0  0  0  0  0  0  0  0  0
   -9.6088    4.5175   27.5560 C   0  0  0  0  0  0  0  0  0  0  0  0
   -9.9243    3.2149   27.3938 C   0  0  0  0  0  0  0  0  0  0  0  0
   -7.8973    6.1858   27.9018 O   0  0  0  0  0  0  0  0  0  0  0  0
   -9.2735    0.8536   26.9291 C   0  0  0  0  0  0  0  0  0  0  0  0
  -10.3220    0.3728   27.5127 C   0  0  0  0  0  0  0  0  0  0  0  0
  -10.6647   -0.9713   27.3842 C   0  0  0  0  0  0  0  0  0  0  0  0
   -9.8350   -1.7864   26.6560 C   0  0  0  0  0  0  0  0  0  0  0  0
   -8.3520   -0.0467   26.2288 C   0  0  0  0  0  0  0  0  0  0  0  0
   -8.6890   -1.3085   26.0827 C   0  0  0  0  0  0  0  0  0  0  0  0
   -7.9312    7.0840   26.7623 C   0  0  0  0  0  0  0  0  0  0  0  0
  -11.9065   -1.5183   28.0497 C   0  0  0  0  0  0  0  0  0  0  0  0
  -12.7171   -1.0638   28.5668 N   0  0  0  0  0  0  0  0  0  0  0  0
  -12.7780    0.2826   28.6722 C   0  0  0  0  0  0  0  0  0  0  0  0
  -11.6018    1.0632   28.2684 C   0  0  0  0  0  0  0  0  0  0  0  0
  -11.9925   -3.3237   27.8979 Cl  0  0  0  0  0  0  0  0  0  0  0  0
  -13.7243    1.0988   29.4494 C   0  0  0  0  0  0  0  0  0  0  0  0
  -13.7226    2.1967   29.6013 O   0  0  0  0  0  0  0  0  0  0  0  0
  -14.6621    0.3432   29.9602 O   0  0  0  0  0  0  0  0  0  0  0  0
  4  7  1  0
  3  8  1  0
  7 14  1  0
 15 19  1  0
 17 20  1  0
 20 21  2  0
 20 22  1  0
  1  2  2  0
  2  3  1  0
  3  6  2  0
  6  5  1  0
  5  4  2  0
  4  1  1  0
 10 15  1  0
 15 16  2  0
 16 17  1  0
 17 18  2  0
 18  9  1  0
  8  9  2  0
  9 10  1  0
 10 11  2  0
 11 13  1  0
 13 12  2  0
 12  8  1  0
M  END
$$$$
