No_7708-complexes_sdf/6BKW-FPZ/2024-09-17-14-21-01/
     RDKit          3D

 40 45  0  0  0  0  0  0  0  0999 V2000
   -7.2496    3.8871   27.4508 C   0  0  0  0  0  0  0  0  0  0  0  0
   -7.9379    4.9063   27.8518 C   0  0  0  0  0  0  0  0  0  0  0  0
   -7.5112    6.1898   27.6280 C   0  0  0  0  0  0  0  0  0  0  0  0
   -7.8078    2.6331   27.2522 C   0  0  2  0  0  0  0  0  0  0  0  0
   -9.1846    2.4724   27.5426 C   0  0  0  0  0  0  0  0  0  0  0  0
   -9.9168    3.5155   28.0405 C   0  0  0  0  0  0  0  0  0  0  0  0
   -9.3366    4.7963   28.1727 C   0  0  0  0  0  0  0  0  0  0  0  0
  -11.3251    3.2741   28.4031 C   0  0  0  0  0  0  0  0  0  0  0  0
  -12.1976    4.2617   28.5764 C   0  0  0  0  0  0  0  0  0  0  0  0
  -11.7283    1.9654   28.7646 C   0  0  0  0  0  0  0  0  0  0  0  0
  -13.5369    4.0796   28.9277 C   0  0  0  0  0  0  0  0  0  0  0  0
  -13.0416    1.7304   29.1737 C   0  0  0  0  0  0  0  0  0  0  0  0
  -13.9222    2.7916   29.2437 C   0  0  0  0  0  0  0  0  0  0  0  0
   -7.0520    1.4397   26.8657 C   0  0  0  0  0  0  0  0  0  0  0  0
   -7.0699    0.3593   27.7324 C   0  0  0  0  0  0  0  0  0  0  0  0
   -6.7565   -0.8435   27.1165 C   0  0  0  0  0  0  0  0  0  0  0  0
   -6.0948   -1.6085   27.5971 C   0  0  0  0  0  0  0  0  0  0  0  0
   -5.5213   -1.4844   28.5848 C   0  0  0  0  0  0  0  0  0  0  0  0
   -4.3613   -1.0586   29.0117 C   0  0  0  0  0  0  0  0  0  0  0  0
   -3.9106   -0.6892   30.3549 C   0  0  0  0  0  0  0  0  0  0  0  0
   -2.8189    0.1793   30.5707 C   0  0  0  0  0  0  0  0  0  0  0  0
   -3.6247   -0.0532   28.1582 C   0  0  0  0  0  0  0  0  0  0  0  0
   -3.6613   -0.0919   26.8263 C   0  0  0  0  0  0  0  0  0  0  0  0
   -4.4818   -1.4500   31.4774 C   0  0  0  0  0  0  0  0  0  0  0  0
   -2.1294    0.7607   29.6504 N   0  0  0  0  0  0  0  0  0  0  0  0
   -2.4507    0.6215   28.5191 C   0  0  0  0  0  0  0  0  0  0  0  0
   -4.2380   -2.3564   31.9106 C   0  0  0  0  0  0  0  0  0  0  0  0
   -4.9614   -3.0416   33.0491 C   0  0  0  0  0  0  0  0  0  0  0  0
   -6.0920   -2.3481   33.5726 C   0  0  0  0  0  0  0  0  0  0  0  0
   -6.4505   -1.1482   33.0238 C   0  0  0  0  0  0  0  0  0  0  0  0
   -5.6760   -0.5989   32.0095 C   0  0  0  0  0  0  0  0  0  0  0  0
   -1.8097    1.1461   27.4570 N   0  0  0  0  0  0  0  0  0  0  0  0
   -2.5523    0.7369   26.4430 N   0  0  0  0  0  0  0  0  0  0  0  0
   -7.4710   -1.0129   25.8262 C   0  0  0  0  0  0  0  0  0  0  0  0
   -6.9167   -1.5931   24.8792 C   0  0  0  0  0  0  0  0  0  0  0  0
   -7.4265   -1.4996   23.5456 C   0  0  0  0  0  0  0  0  0  0  0  0
   -8.5644   -0.7478   23.3226 C   0  0  0  0  0  0  0  0  0  0  0  0
   -9.1346   -0.0246   24.3201 C   0  0  0  0  0  0  0  0  0  0  0  0
  -10.2822    0.7778   24.1672 C   0  0  0  0  0  0  0  0  0  0  0  0
   -8.5267   -0.1716   25.6281 C   0  0  0  0  0  0  0  0  0  0  0  0
  1  2  1  0
  2  3  2  0
  1  4  1  0
  4  5  1  0
  5  6  1  0
  2  7  1  0
  6  7  1  0
  6  8  1  0
  4 14  1  1
 14 15  1  0
 15 16  1  0
 16 17  2  3
 17 18  1  0
 22 23  1  0
 20 24  1  0
 26 32  1  0
 23 33  1  0
 32 33  1  0
 16 34  1  0
 38 39  1  0
 18 19  1  0
  8  9  2  0
  9 11  1  0
 11 13  2  0
 13 12  1  0
 12 10  2  0
 10  8  1  0
 34 35  2  0
 35 36  1  0
 36 37  2  0
 37 38  1  0
 38 40  2  0
 40 34  1  0
 19 20  1  0
 20 21  2  0
 21 25  1  0
 25 26  2  0
 26 22  1  0
 22 19  2  0
 24 27  2  0
 27 28  1  0
 28 29  2  0
 29 30  1  0
 30 31  2  0
 31 24  1  0
M  END
$$$$
