No_7971-complexes_sdf/6BKW-FPZ/2024-09-17-14-21-01/
     RDKit          3D

 12 13  0  0  0  0  0  0  0  0999 V2000
   -7.9040    3.9820   27.1177 C   0  0  0  0  0  0  0  0  0  0  0  0
   -9.0711    4.3164   27.0630 C   0  0  0  0  0  0  0  0  0  0  0  0
   -9.8698    3.9665   25.9495 C   0  0  0  0  0  0  0  0  0  0  0  0
   -6.9515    4.6878   28.0207 C   0  0  0  0  0  0  0  0  0  0  0  0
   -9.6406    4.4469   24.7375 C   0  0  0  0  0  0  0  0  0  0  0  0
   -7.5454    5.6191   28.8925 C   0  0  0  0  0  0  0  0  0  0  0  0
  -10.4200    4.2184   23.5841 C   0  0  0  0  0  0  0  0  0  0  0  0
  -11.4525    3.3353   23.6504 C   0  0  0  0  0  0  0  0  0  0  0  0
  -11.0107    3.1833   26.0056 C   0  0  0  0  0  0  0  0  0  0  0  0
  -11.8107    2.8964   24.9347 C   0  0  0  0  0  0  0  0  0  0  0  0
   -9.4739    5.3914   27.9667 C   0  0  0  0  0  0  0  0  0  0  0  0
   -8.7724    6.0189   28.7606 C   0  0  0  0  0  0  0  0  0  0  0  0
  2  3  1  0
  1  2  2  0
  2 11  1  0
 11 12  2  0
 12  6  1  0
  6  4  2  0
  4  1  1  0
  3  5  2  0
  5  7  1  0
  7  8  2  0
  8 10  1  0
 10  9  2  0
  9  3  1  0
M  END
$$$$
