No_7570-complexes_sdf/6BKW-FPZ/2024-09-17-14-21-01/
     RDKit          3D

 18 19  0  0  0  0  0  0  0  0999 V2000
   -7.9040    3.9820   27.1177 C   0  0  0  0  0  0  0  0  0  0  0  0
   -7.8663    4.8694   27.9238 C   0  0  0  0  0  0  0  0  0  0  0  0
   -9.0501    3.8017   26.2617 C   0  0  0  0  0  0  0  0  0  0  0  0
  -10.0189    4.7608   26.3707 C   0  0  0  0  0  0  0  0  0  0  0  0
   -8.6973    5.9722   27.8968 C   0  0  0  0  0  0  0  0  0  0  0  0
   -9.8216    5.8946   27.1241 C   0  0  0  0  0  0  0  0  0  0  0  0
   -9.1445    2.6271   25.4265 C   0  0  0  0  0  0  0  0  0  0  0  0
  -10.1480    1.8402   25.6891 C   0  0  0  0  0  0  0  0  0  0  0  0
  -10.1535    0.6589   25.0443 C   0  0  0  0  0  0  0  0  0  0  0  0
   -9.5218    0.4827   24.0453 C   0  0  0  0  0  0  0  0  0  0  0  0
   -8.5878    1.4042   23.4951 C   0  0  0  0  0  0  0  0  0  0  0  0
   -8.3505    2.4796   24.3093 C   0  0  0  0  0  0  0  0  0  0  0  0
   -6.9758    2.9384   27.1680 O   0  0  0  0  0  0  0  0  0  0  0  0
   -7.2595    1.6576   27.6206 C   0  0  0  0  0  0  0  0  0  0  0  0
   -6.0538    0.8397   27.7311 C   0  0  0  0  0  0  0  0  0  0  0  0
   -4.7794    1.3981   27.7216 C   0  0  0  0  0  0  0  0  0  0  0  0
   -3.7457    0.5330   27.9680 C   0  0  0  0  0  0  0  0  0  0  0  0
   -3.8530   -0.7890   28.1761 C   0  0  0  0  0  0  0  0  0  0  0  0
  3  7  1  0
  1 13  1  0
 13 14  1  0
 14 15  2  3
 15 16  1  0
 16 17  2  3
 17 18  1  0
  1  2  2  0
  2  5  1  0
  5  6  2  0
  6  4  1  0
  4  3  2  0
  3  1  1  0
  7  8  2  0
  8  9  1  0
  9 10  2  0
 10 11  1  0
 11 12  2  0
 12  7  1  0
M  END
$$$$
