No_7094-complexes_sdf/6BKW-FPZ/2024-09-17-14-21-01/
     RDKit          3D

 40 44  0  0  0  0  0  0  0  0999 V2000
   -7.9040    3.9820   27.1177 C   0  0  0  0  0  0  0  0  0  0  0  0
   -9.0711    4.3164   27.0630 C   0  0  0  0  0  0  0  0  0  0  0  0
   -9.5294    5.4517   27.7215 C   0  0  0  0  0  0  0  0  0  0  0  0
   -7.4336    2.7132   26.5681 C   0  0  0  0  0  0  0  0  0  0  0  0
   -8.3353    1.8569   26.0442 C   0  0  0  0  0  0  0  0  0  0  0  0
   -9.6477    2.2853   25.9146 C   0  0  0  0  0  0  0  0  0  0  0  0
  -10.0346    3.4497   26.4483 C   0  0  0  0  0  0  0  0  0  0  0  0
   -7.8608    0.5626   25.5840 C   0  0  0  0  0  0  0  0  0  0  0  0
   -8.2927    0.2179   24.4935 O   0  0  0  0  0  0  0  0  0  0  0  0
   -7.1034   -0.1513   26.3488 O   0  0  0  0  0  0  0  0  0  0  0  0
   -6.8226    4.5525   27.7935 N   0  0  0  0  0  0  0  0  0  0  0  0
   -7.1224    5.8037   28.4110 C   0  0  0  0  0  0  0  0  0  0  0  0
   -8.4577    6.2304   28.3196 N   0  0  0  0  0  0  0  0  0  0  0  0
   -6.4436   -1.2137   26.0367 C   0  0  0  0  0  0  0  0  0  0  0  0
   -5.1233   -1.1723   26.3110 C   0  0  0  0  0  0  0  0  0  0  0  0
   -4.5363   -0.1387   27.0165 C   0  0  0  0  0  0  0  0  0  0  0  0
   -3.7480   -0.2364   27.8777 C   0  0  0  0  0  0  0  0  0  0  0  0
   -3.4097    0.8409   28.8803 C   0  0  0  0  0  0  0  0  0  0  0  0
   -2.8456    0.4497   30.1062 C   0  0  0  0  0  0  0  0  0  0  0  0
   -2.4687   -0.8776   30.3656 C   0  0  0  0  0  0  0  0  0  0  0  0
   -2.6970   -1.8122   29.4356 C   0  0  0  0  0  0  0  0  0  0  0  0
   -3.3230   -1.5541   28.3308 C   0  0  0  0  0  0  0  0  0  0  0  0
   -1.8363   -1.1001   31.5311 F   0  0  0  0  0  0  0  0  0  0  0  0
  -11.4247    3.8768   26.2053 C   0  0  0  0  0  0  0  0  0  0  0  0
  -12.2364    3.0369   26.7256 C   0  0  0  0  0  0  0  0  0  0  0  0
  -13.6031    3.3949   26.7678 C   0  0  0  0  0  0  0  0  0  0  0  0
  -14.0079    4.4293   26.0019 C   0  0  0  0  0  0  0  0  0  0  0  0
  -13.0499    5.1896   25.2439 C   0  0  0  0  0  0  0  0  0  0  0  0
  -11.5984    5.0106   25.5775 C   0  0  0  0  0  0  0  0  0  0  0  0
  -15.4272    4.8628   25.7813 C   0  0  0  0  0  0  0  0  0  0  0  0
  -16.2921    3.9004   25.4986 C   0  0  0  0  0  0  0  0  0  0  0  0
  -17.5370    4.2161   25.3376 C   0  0  0  0  0  0  0  0  0  0  0  0
  -17.9353    5.4900   25.3649 C   0  0  0  0  0  0  0  0  0  0  0  0
  -17.0820    6.5738   25.6237 C   0  0  0  0  0  0  0  0  0  0  0  0
  -15.7506    6.2755   25.8373 C   0  0  0  0  0  0  0  0  0  0  0  0
  -18.5798    3.1910   25.0792 C   0  0  0  0  0  0  0  0  0  0  0  0
  -19.5345    2.9637   25.7112 N   0  0  0  0  0  0  0  0  0  0  0  0
  -18.2716    2.3359   24.1058 O   0  0  0  0  0  0  0  0  0  0  0  0
  -20.5229    1.9444   25.5357 C   0  0  0  0  0  0  0  0  0  0  0  0
  -21.6349    2.0785   26.1033 C   0  0  0  0  0  0  0  0  0  0  0  0
  5  8  1  0
  8  9  2  0
  8 10  1  0
 10 14  1  0
 14 15  2  3
 15 16  1  0
 20 23  1  0
  7 24  1  0
 27 30  1  0
 32 36  1  0
 36 37  1  0
 36 38  2  0
 37 39  1  0
 39 40  1  0
 16 17  1  0
 24 25  2  0
 25 26  1  0
 26 27  2  0
 27 28  1  0
 28 29  2  0
 29 24  1  0
 30 31  2  0
 31 32  1  0
 32 33  2  0
 33 34  1  0
 34 35  2  0
 35 30  1  0
  2  7  1  0
  7  6  2  0
  6  5  1  0
  5  4  2  0
  4  1  1  0
  1  2  1  0
  2  3  2  0
  3 13  1  0
 13 12  2  0
 12 11  1  0
 11  1  2  0
 17 18  2  0
 18 19  1  0
 19 20  2  0
 20 21  1  0
 21 22  2  0
 22 17  1  0
M  END
$$$$
