No_7540-complexes_sdf/6BKW-FPZ/2024-09-17-14-21-01/
     RDKit          3D

 23 25  0  0  0  0  0  0  0  0999 V2000
   -7.7129    4.2099   27.0854 C   0  0  0  0  0  0  0  0  0  0  0  0
   -8.2112    3.0637   26.9225 C   0  0  0  0  0  0  0  0  0  0  0  0
   -8.5108    5.3904   26.9436 C   0  0  0  0  0  0  0  0  0  0  0  0
   -9.7256    5.1955   26.3518 C   0  0  0  0  0  0  0  0  0  0  0  0
   -9.4995    2.8258   26.4878 C   0  0  0  0  0  0  0  0  0  0  0  0
  -10.2542    3.9691   26.2055 C   0  0  0  0  0  0  0  0  0  0  0  0
   -7.9135    6.7086   27.1885 C   0  0  0  0  0  0  0  0  0  0  0  0
   -7.3624    1.8198   27.2561 C   0  0  0  0  0  0  0  0  0  0  0  0
   -7.8435    0.5905   27.1677 N   0  0  0  0  0  0  0  0  0  0  0  0
   -6.0929    1.9708   27.6546 N   0  0  0  0  0  0  0  0  0  0  0  0
   -6.7970   -0.1904   27.6006 C   0  0  0  0  0  0  0  0  0  0  0  0
   -5.7078    0.6756   27.9125 C   0  0  0  0  0  0  0  0  0  0  0  0
   -4.3568    0.3248   28.4224 C   0  0  1  0  0  0  0  0  0  0  0  0
   -4.2673   -0.1335   29.6521 C   0  0  0  0  0  0  0  0  0  0  0  0
   -5.1549   -0.4117   30.5667 C   0  0  0  0  0  0  0  0  0  0  0  0
   -4.8014   -0.8648   31.8934 C   0  0  0  0  0  0  0  0  0  0  0  0
   -3.4702   -0.9214   32.2666 C   0  0  0  0  0  0  0  0  0  0  0  0
   -2.4666   -0.6523   31.3597 C   0  0  0  0  0  0  0  0  0  0  0  0
   -2.7924   -0.1963   30.1639 C   0  0  0  0  0  0  0  0  0  0  0  0
   -3.3285    0.4315   27.4167 C   0  0  0  0  0  0  0  0  0  0  0  0
   -8.5777    7.8241   26.8015 N   0  0  0  0  0  0  0  0  0  0  0  0
   -6.8166    6.7929   27.7876 O   0  0  0  0  0  0  0  0  0  0  0  0
   -2.6690   -0.5188   27.0581 O   0  0  0  0  0  0  0  0  0  0  0  0
  3  7  1  0
  2  8  1  0
  8  9  2  0
  8 10  1  0
  9 11  1  0
 10 12  1  0
 11 12  2  0
 12 13  1  0
 13 14  1  0
 13 20  1  6
  7 21  1  0
  7 22  2  0
 20 23  2  0
 14 15  2  0
 15 16  1  0
 16 17  2  0
 17 18  1  0
 18 19  2  0
 19 14  1  0
  1  2  2  0
  2  5  1  0
  5  6  2  0
  6  4  1  0
  4  3  2  0
  3  1  1  0
M  END
$$$$
