No_7335-complexes_sdf/6BKW-FPZ/2024-09-17-14-21-01/
     RDKit          3D

 36 40  0  0  0  0  0  0  0  0999 V2000
   -7.9040    3.9820   27.1177 C   0  0  0  0  0  0  0  0  0  0  0  0
   -8.2057    2.8231   26.8733 C   0  0  0  0  0  0  0  0  0  0  0  0
   -8.7695    5.0740   26.7916 C   0  0  0  0  0  0  0  0  0  0  0  0
   -8.4337    6.4678   27.0913 C   0  0  1  0  0  0  0  0  0  0  0  0
   -9.3742    2.4311   26.2346 C   0  0  0  0  0  0  0  0  0  0  0  0
  -10.2395    3.4267   25.8887 C   0  0  0  0  0  0  0  0  0  0  0  0
   -9.9567    4.7548   26.1374 C   0  0  0  0  0  0  0  0  0  0  0  0
   -7.5893    7.3438   26.5876 C   0  0  0  0  0  0  0  0  0  0  0  0
   -7.2210    1.6779   27.2834 C   0  0  0  0  0  0  0  0  0  0  0  0
   -6.0674    2.0037   27.8347 N   0  0  0  0  0  0  0  0  0  0  0  0
   -5.2136    0.9374   28.1785 C   0  0  0  0  0  0  0  0  0  0  0  0
   -3.9188    1.2101   28.7985 C   0  0  0  0  0  0  0  0  0  0  0  0
   -5.7485   -0.3785   28.0703 C   0  0  0  0  0  0  0  0  0  0  0  0
   -7.7767    0.5497   27.0387 O   0  0  0  0  0  0  0  0  0  0  0  0
   -3.1733    0.1883   29.2817 C   0  0  0  0  0  0  0  0  0  0  0  0
   -4.8679   -1.4042   28.6839 C   0  0  0  0  0  0  0  0  0  0  0  0
   -3.6458   -1.1157   29.2168 C   0  0  0  0  0  0  0  0  0  0  0  0
   -9.5134    6.9736   27.9143 O   0  0  0  0  0  0  0  0  0  0  0  0
  -11.4525    3.1596   25.1012 C   0  0  0  0  0  0  0  0  0  0  0  0
  -11.5140    2.0357   24.3486 C   0  0  0  0  0  0  0  0  0  0  0  0
  -12.4704    1.9027   23.4569 C   0  0  0  0  0  0  0  0  0  0  0  0
  -12.5451    0.7448   22.5472 C   0  0  0  0  0  0  0  0  0  0  0  0
  -11.5043   -0.1939   22.6436 C   0  0  0  0  0  0  0  0  0  0  0  0
  -10.4346   -0.0243   23.4979 C   0  0  0  0  0  0  0  0  0  0  0  0
  -10.3847    1.0559   24.3101 C   0  0  0  0  0  0  0  0  0  0  0  0
   -9.2502    1.2832   25.2795 C   0  0  0  0  0  0  0  0  0  0  0  0
  -12.4521    3.9210   25.2938 O   0  0  0  0  0  0  0  0  0  0  0  0
   -2.8058   -2.2099   29.7647 C   0  0  2  0  0  0  0  0  0  0  0  0
   -3.0758   -2.6309   30.9527 C   0  0  0  0  0  0  0  0  0  0  0  0
   -3.9351   -2.2307   31.7668 C   0  0  0  0  0  0  0  0  0  0  0  0
   -4.1097   -2.7068   33.1212 C   0  0  0  0  0  0  0  0  0  0  0  0
   -3.2907   -3.7300   33.5134 C   0  0  0  0  0  0  0  0  0  0  0  0
   -2.3317   -4.1943   32.7526 C   0  0  0  0  0  0  0  0  0  0  0  0
   -2.0857   -3.6385   31.4751 C   0  0  0  0  0  0  0  0  0  0  0  0
   -1.7290   -2.5204   28.8651 C   0  0  0  0  0  0  0  0  0  0  0  0
   -1.8756   -3.5265   28.0337 C   0  0  0  0  0  0  0  0  0  0  0  0
  3  4  1  0
  4  8  1  6
  2  9  1  0
  9 10  1  0
  9 14  2  0
  4 18  1  0
  6 19  1  0
 19 20  1  0
  5 26  1  0
 25 26  1  0
 19 27  2  0
 17 28  1  0
 28 29  1  0
 28 35  1  1
 35 36  1  0
 10 11  1  0
 11 12  2  0
 12 15  1  0
 15 17  2  0
 17 16  1  0
 16 13  2  0
 13 11  1  0
  1  2  2  0
  2  5  1  0
  5  6  2  0
  6  7  1  0
  7  3  2  0
  3  1  1  0
 20 21  2  0
 21 22  1  0
 22 23  2  0
 23 24  1  0
 24 25  2  0
 25 20  1  0
 29 30  2  0
 30 31  1  0
 31 32  2  0
 32 33  1  0
 33 34  2  0
 34 29  1  0
M  END
$$$$
