No_7398-complexes_sdf/6BKW-FPZ/2024-09-17-14-21-01/
     RDKit          3D

 15 16  0  0  0  0  0  0  0  0999 V2000
   -7.9040    3.9820   27.1177 C   0  0  0  0  0  0  0  0  0  0  0  0
   -9.0711    4.3164   27.0630 C   0  0  0  0  0  0  0  0  0  0  0  0
   -9.8698    3.9665   25.9494 C   0  0  0  0  0  0  0  0  0  0  0  0
   -7.0332    4.5030   28.2025 C   0  0  0  0  0  0  0  0  0  0  0  0
   -9.4357    2.9501   25.1393 C   0  0  0  0  0  0  0  0  0  0  0  0
   -8.2567    2.3218   25.4797 C   0  0  0  0  0  0  0  0  0  0  0  0
   -7.5105    2.7966   26.5752 C   0  0  0  0  0  0  0  0  0  0  0  0
  -10.2472    2.5204   24.0264 C   0  0  0  0  0  0  0  0  0  0  0  0
  -10.1048    1.3095   23.5388 C   0  0  0  0  0  0  0  0  0  0  0  0
  -10.7349    0.9072   22.2888 C   0  0  0  0  0  0  0  0  0  0  0  0
  -11.5710    1.8285   21.6592 C   0  0  0  0  0  0  0  0  0  0  0  0
  -10.9892    3.4603   23.2376 C   0  0  0  0  0  0  0  0  0  0  0  0
  -11.6522    3.1477   22.1353 C   0  0  0  0  0  0  0  0  0  0  0  0
   -6.9469    5.7212   28.4104 N   0  0  0  0  0  0  0  0  0  0  0  0
   -5.8898    3.8485   28.4035 O   0  0  0  0  0  0  0  0  0  0  0  0
  1  4  1  0
  5  8  1  0
  4 14  2  0
  4 15  1  0
  8  9  2  0
  9 10  1  0
 10 11  2  0
 11 13  1  0
 13 12  2  0
 12  8  1  0
  1  2  2  0
  2  3  1  0
  3  5  2  0
  5  6  1  0
  6  7  2  0
  7  1  1  0
M  END
$$$$
