No_7619-complexes_sdf/6BKW-FPZ/2024-09-17-14-21-01/
     RDKit          3D

 20 22  0  0  0  0  0  0  0  0999 V2000
   -7.7129    4.2099   27.0854 C   0  0  0  0  0  0  0  0  0  0  0  0
   -8.2112    3.0637   26.9225 C   0  0  0  0  0  0  0  0  0  0  0  0
   -7.5138    1.9223   27.4249 C   0  0  0  0  0  0  0  0  0  0  0  0
   -8.5309    5.4147   26.8151 C   0  0  0  0  0  0  0  0  0  0  0  0
   -9.6817    5.2393   26.1100 C   0  0  0  0  0  0  0  0  0  0  0  0
  -10.1032    3.9957   25.8534 C   0  0  0  0  0  0  0  0  0  0  0  0
   -9.4034    2.8430   26.2573 C   0  0  0  0  0  0  0  0  0  0  0  0
   -7.9625    0.5664   27.2655 C   0  0  0  0  0  0  0  0  0  0  0  0
   -9.2649    0.5125   26.5943 C   0  0  0  0  0  0  0  0  0  0  0  0
   -9.9476    1.5566   26.0984 C   0  0  0  0  0  0  0  0  0  0  0  0
   -7.9740    6.7775   27.0800 C   0  0  0  0  0  0  0  0  0  0  0  0
   -8.6444    7.8626   26.7369 N   0  0  0  0  0  0  0  0  0  0  0  0
   -6.9040    6.8372   27.7890 O   0  0  0  0  0  0  0  0  0  0  0  0
   -7.2752   -0.5256   27.8161 C   0  0  0  0  0  0  0  0  0  0  0  0
   -7.9116   -1.6896   28.2074 C   0  0  0  0  0  0  0  0  0  0  0  0
   -9.3166   -1.6274   28.1535 C   0  0  0  0  0  0  0  0  0  0  0  0
   -9.9712   -0.7093   27.0935 C   0  0  0  0  0  0  0  0  0  0  0  0
  -11.3637   -0.8277   26.8660 C   0  0  0  0  0  0  0  0  0  0  0  0
  -12.1050   -1.0622   27.6580 O   0  0  0  0  0  0  0  0  0  0  0  0
  -11.6384   -0.7078   25.5987 O   0  0  0  0  0  0  0  0  0  0  0  0
  4 11  1  0
 11 12  1  0
 11 13  2  0
 17 18  1  0
 18 19  2  0
 18 20  1  0
  1  2  2  0
  7  6  2  0
  6  5  1  0
  5  4  2  0
  4  1  1  0
  9 17  1  0
 17 16  2  0
 16 15  1  0
 15 14  2  0
 14  8  1  0
  2  3  1  0
  3  8  2  0
  8  9  1  0
  9 10  2  0
 10  7  1  0
  7  2  1  0
M  END
$$$$
