No_7452-complexes_sdf/6BKW-FPZ/2024-09-17-14-21-01/
     RDKit          3D

 17 18  0  0  0  0  0  0  0  0999 V2000
   -7.2496    3.8871   27.4508 C   0  0  0  0  0  0  0  0  0  0  0  0
   -8.5096    4.0291   27.2770 C   0  0  0  0  0  0  0  0  0  0  0  0
   -9.3451    2.8786   26.9046 C   0  0  0  0  0  0  0  0  0  0  0  0
   -6.6065    2.5680   27.5073 C   0  0  0  0  0  0  0  0  0  0  0  0
   -7.4233    1.4858   27.2402 C   0  0  0  0  0  0  0  0  0  0  0  0
   -8.7362    1.6525   26.9989 C   0  0  0  0  0  0  0  0  0  0  0  0
   -9.1023    5.3710   27.2131 C   0  0  0  0  0  0  0  0  0  0  0  0
   -8.3463    6.4776   26.8511 C   0  0  0  0  0  0  0  0  0  0  0  0
   -8.5633    7.7879   27.2945 C   0  0  0  0  0  0  0  0  0  0  0  0
   -6.7925    0.1733   27.3020 C   0  0  0  0  0  0  0  0  0  0  0  0
   -7.4405   -0.9399   27.4069 C   0  0  0  0  0  0  0  0  0  0  0  0
   -6.8583   -2.1573   27.5273 C   0  0  0  0  0  0  0  0  0  0  0  0
   -5.3687    0.0862   27.2252 C   0  0  0  0  0  0  0  0  0  0  0  0
   -4.7110   -1.1332   27.3701 C   0  0  0  0  0  0  0  0  0  0  0  0
   -5.4799   -2.2688   27.4819 C   0  0  0  0  0  0  0  0  0  0  0  0
  -10.4942    5.4789   27.4880 C   0  0  0  0  0  0  0  0  0  0  0  0
   -7.5820    8.7041   26.8391 C   0  0  0  0  0  0  0  0  0  0  0  0
  2  7  1  0
  7  8  1  0
  8  9  2  3
  5 10  1  0
  7 16  1  0
  9 17  1  0
  1  2  2  0
  2  3  1  0
  3  6  2  0
  6  5  1  0
  5  4  2  0
  4  1  1  0
 10 11  2  0
 11 12  1  0
 12 15  2  0
 15 14  1  0
 14 13  2  0
 13 10  1  0
M  END
$$$$
