No_7222-complexes_sdf/6BKW-FPZ/2024-09-17-14-21-01/
     RDKit          3D

 19 21  0  0  0  0  0  0  0  0999 V2000
   -7.2496    3.8871   27.4508 C   0  0  0  0  0  0  0  0  0  0  0  0
   -8.5096    4.0291   27.2770 C   0  0  0  0  0  0  0  0  0  0  0  0
   -9.3451    2.8786   26.9046 C   0  0  0  0  0  0  0  0  0  0  0  0
   -6.6065    2.5680   27.5073 C   0  0  0  0  0  0  0  0  0  0  0  0
   -7.4233    1.4858   27.2402 C   0  0  0  0  0  0  0  0  0  0  0  0
   -8.7362    1.6525   26.9989 C   0  0  0  0  0  0  0  0  0  0  0  0
   -9.2878    5.2643   27.2322 C   0  0  0  0  0  0  0  0  0  0  0  0
   -8.5371    6.4294   26.9529 C   0  0  0  0  0  0  0  0  0  0  0  0
   -8.0746    7.4343   26.8954 C   0  0  0  0  0  0  0  0  0  0  0  0
   -6.7679    0.1807   27.2896 C   0  0  0  0  0  0  0  0  0  0  0  0
   -5.5139    0.0549   27.7936 C   0  0  0  0  0  0  0  0  0  0  0  0
   -4.8858   -1.2063   27.9088 C   0  0  0  0  0  0  0  0  0  0  0  0
   -3.6161   -1.2940   28.5678 C   0  0  0  0  0  0  0  0  0  0  0  0
   -2.9663   -0.1446   29.0419 C   0  0  0  0  0  0  0  0  0  0  0  0
   -3.6731    1.1027   28.9767 C   0  0  0  0  0  0  0  0  0  0  0  0
   -4.8691    1.1841   28.4319 C   0  0  0  0  0  0  0  0  0  0  0  0
   -5.4994    2.4372   28.1886 N   0  0  0  0  0  0  0  0  0  0  0  0
  -10.6547    5.3460   27.4901 C   0  0  0  0  0  0  0  0  0  0  0  0
   -7.7299    8.4844   26.9168 F   0  0  0  0  0  0  0  0  0  0  0  0
  2  7  1  0
  7  8  1  0
  8  9  3  0
  7 18  1  0
  9 19  1  0
 11 12  1  0
 12 13  2  0
 13 14  1  0
 14 15  2  0
 15 16  1  0
  1  2  2  0
  2  3  1  0
  3  6  2  0
  6  5  1  0
  4  1  1  0
  4  5  2  0
  5 10  1  0
 10 11  2  0
 11 16  1  0
 16 17  2  0
 17  4  1  0
M  END
$$$$
