No_7233-complexes_sdf/6BKW-FPZ/2024-09-17-14-21-01/
     RDKit          3D

 19 21  0  0  0  0  0  0  0  0999 V2000
   -7.9040    3.9820   27.1177 C   0  0  0  0  0  0  0  0  0  0  0  0
   -7.8663    4.8694   27.9238 C   0  0  0  0  0  0  0  0  0  0  0  0
   -9.0501    3.8017   26.2617 C   0  0  0  0  0  0  0  0  0  0  0  0
   -9.1826    2.7026   25.3575 C   0  0  0  0  0  0  0  0  0  0  0  0
   -8.6940    6.0131   27.8614 C   0  0  0  0  0  0  0  0  0  0  0  0
   -9.9755    4.8547   26.2361 C   0  0  0  0  0  0  0  0  0  0  0  0
   -9.7463    5.9398   27.0364 C   0  0  0  0  0  0  0  0  0  0  0  0
  -10.1292    1.8678   25.6851 C   0  0  0  0  0  0  0  0  0  0  0  0
  -10.1305    0.7169   25.0275 C   0  0  0  0  0  0  0  0  0  0  0  0
   -9.8833    0.6809   23.9258 C   0  0  0  0  0  0  0  0  0  0  0  0
  -10.1301    1.2193   23.0575 C   0  0  0  0  0  0  0  0  0  0  0  0
   -9.8242    0.9577   21.6065 C   0  0  0  0  0  0  0  0  0  0  0  0
   -9.0493   -0.1448   21.4040 C   0  0  0  0  0  0  0  0  0  0  0  0
   -9.0467   -0.6122   23.3184 C   0  0  0  0  0  0  0  0  0  0  0  0
   -8.7367   -1.0878   22.2537 C   0  0  0  0  0  0  0  0  0  0  0  0
  -11.2013    2.0846   26.6220 C   0  0  0  0  0  0  0  0  0  0  0  0
  -11.3035    1.1517   27.6155 C   0  0  0  0  0  0  0  0  0  0  0  0
  -11.3526   -0.2523   27.2175 C   0  0  0  0  0  0  0  0  0  0  0  0
  -10.7391   -0.4600   25.8851 C   0  0  0  0  0  0  0  0  0  0  0  0
  3  4  1  0
  4  8  1  0
  9 10  1  0
 10 11  2  0
 11 12  1  0
 12 13  2  0
 13 15  1  0
 15 14  2  0
 14 10  1  0
  8  9  2  0
  9 19  1  0
 19 18  2  0
 18 17  1  0
 17 16  2  0
 16  8  1  0
  1  2  2  0
  2  5  1  0
  5  7  2  0
  7  6  1  0
  6  3  2  0
  3  1  1  0
M  END
$$$$
