No_7105-complexes_sdf/6BKW-FPZ/2024-09-17-14-21-01/
     RDKit          3D

 40 45  0  0  0  0  0  0  0  0999 V2000
   -7.9040    3.9820   27.1177 C   0  0  0  0  0  0  0  0  0  0  0  0
   -7.8663    4.8694   27.9238 C   0  0  0  0  0  0  0  0  0  0  0  0
   -9.0501    3.8017   26.2617 C   0  0  0  0  0  0  0  0  0  0  0  0
   -9.1826    2.7026   25.3575 C   0  0  0  0  0  0  0  0  0  0  0  0
   -8.6940    6.0131   27.8614 C   0  0  0  0  0  0  0  0  0  0  0  0
   -9.9755    4.8547   26.2361 C   0  0  0  0  0  0  0  0  0  0  0  0
   -9.7463    5.9398   27.0364 C   0  0  0  0  0  0  0  0  0  0  0  0
  -10.1068    2.7543   24.3357 C   0  0  0  0  0  0  0  0  0  0  0  0
  -10.2724    1.6570   23.4902 C   0  0  0  0  0  0  0  0  0  0  0  0
  -11.1324    1.7274   22.3477 C   0  0  0  0  0  0  0  0  0  0  0  0
  -11.8356    2.9353   22.1917 C   0  0  0  0  0  0  0  0  0  0  0  0
  -11.6677    4.0120   23.0013 C   0  0  0  0  0  0  0  0  0  0  0  0
  -10.7282    3.9571   24.0600 C   0  0  0  0  0  0  0  0  0  0  0  0
  -10.6953    5.0464   25.0080 C   0  0  0  0  0  0  0  0  0  0  0  0
   -6.9804    2.7688   27.3107 C   0  0  0  0  0  0  0  0  0  0  0  0
   -5.8259    2.8746   27.9078 N   0  0  0  0  0  0  0  0  0  0  0  0
   -7.2831    1.6266   26.8611 F   0  0  0  0  0  0  0  0  0  0  0  0
   -4.9278    1.8454   28.1038 C   0  0  0  0  0  0  0  0  0  0  0  0
   -4.6839    1.1845   29.2498 C   0  0  0  0  0  0  0  0  0  0  0  0
   -3.7354    0.0825   29.2430 C   0  0  0  0  0  0  0  0  0  0  0  0
   -2.9520   -0.1217   28.0440 C   0  0  0  0  0  0  0  0  0  0  0  0
   -3.2002    0.5933   26.9166 C   0  0  0  0  0  0  0  0  0  0  0  0
   -4.1548    1.5457   26.9221 C   0  0  0  0  0  0  0  0  0  0  0  0
   -3.4281   -0.6141   30.4878 C   0  0  0  0  0  0  0  0  0  0  0  0
   -2.7648   -1.7326   30.5128 C   0  0  0  0  0  0  0  0  0  0  0  0
   -3.8322    0.0222   31.7614 C   0  0  0  0  0  0  0  0  0  0  0  0
   -2.4937   -2.4171   31.7198 C   0  0  0  0  0  0  0  0  0  0  0  0
   -3.5479   -0.6676   32.9646 C   0  0  0  0  0  0  0  0  0  0  0  0
   -2.8533   -1.8600   32.9695 C   0  0  0  0  0  0  0  0  0  0  0  0
   -9.5422    0.3564   23.6263 C   0  0  0  0  0  0  0  0  0  0  0  0
   -9.7693   -0.3962   24.6352 N   0  0  0  0  0  0  0  0  0  0  0  0
   -9.0146   -1.2228   25.1745 C   0  0  0  0  0  0  0  0  0  0  0  0
  -11.1214   -0.3907   25.1470 C   0  0  0  0  0  0  0  0  0  0  0  0
  -11.3647   -1.1158   26.2691 C   0  0  0  0  0  0  0  0  0  0  0  0
   -9.1687   -2.0356   26.3115 C   0  0  0  0  0  0  0  0  0  0  0  0
  -12.7126   -1.0468   26.9030 C   0  0  0  0  0  0  0  0  0  0  0  0
  -10.3975   -1.9275   26.8999 C   0  0  0  0  0  0  0  0  0  0  0  0
  -12.9768   -1.9223   27.5309 F   0  0  0  0  0  0  0  0  0  0  0  0
  -12.7535    0.1451   27.6371 F   0  0  0  0  0  0  0  0  0  0  0  0
  -13.6358   -0.7305   25.8953 F   0  0  0  0  0  0  0  0  0  0  0  0
  1 15  1  0
 15 16  1  0
 15 17  1  0
 16 18  1  0
 20 24  1  0
  9 30  1  0
 30 31  1  0
 31 32  1  0
 31 33  1  0
 34 36  1  0
 34 37  1  0
 35 37  1  0
 36 38  1  0
 36 39  1  0
 36 40  1  0
 32 35  1  0
 34 33  1  0
 18 19  2  0
 19 20  1  0
 20 21  2  0
 21 22  1  0
 22 23  2  0
 23 18  1  0
 24 25  2  0
 25 27  1  0
 27 29  2  0
 29 28  1  0
 28 26  2  0
 26 24  1  0
  3  4  2  0
  4  8  1  0
 13 14  1  0
 14  6  2  0
  8  9  2  0
  9 10  1  0
 10 11  2  0
 11 12  1  0
 12 13  2  0
 13  8  1  0
  1  2  2  0
  2  5  1  0
  5  7  2  0
  7  6  1  0
  6  3  1  0
  3  1  1  0
M  END
$$$$
