No_7278-complexes_sdf/6BKW-FPZ/2024-09-17-14-21-01/
     RDKit          3D

 40 43  0  0  0  0  0  0  0  0999 V2000
   -7.7129    4.2099   27.0854 C   0  0  0  0  0  0  0  0  0  0  0  0
   -7.7814    5.1722   27.8972 C   0  0  0  0  0  0  0  0  0  0  0  0
   -8.8998    3.8713   26.3707 C   0  0  0  0  0  0  0  0  0  0  0  0
   -9.9938    4.6774   26.5446 C   0  0  0  0  0  0  0  0  0  0  0  0
   -8.7789    6.1536   27.9256 C   0  0  0  0  0  0  0  0  0  0  0  0
   -9.9428    5.8398   27.2296 C   0  0  0  0  0  0  0  0  0  0  0  0
   -9.1381    2.6848   25.5884 C   0  0  0  0  0  0  0  0  0  0  0  0
   -9.7030    2.7050   24.4989 O   0  0  0  0  0  0  0  0  0  0  0  0
   -8.1534    1.7136   25.8158 O   0  0  0  0  0  0  0  0  0  0  0  0
   -8.1988    1.0880   26.9832 C   0  0  1  0  0  0  0  0  0  0  0  0
   -9.1635    0.1499   27.2126 C   0  0  0  0  0  0  0  0  0  0  0  0
  -10.4067    0.6220   27.4352 C   0  0  0  0  0  0  0  0  0  0  0  0
  -11.4882   -0.2211   27.9053 C   0  0  0  0  0  0  0  0  0  0  0  0
  -11.1205   -1.5659   28.1551 C   0  0  0  0  0  0  0  0  0  0  0  0
   -9.0352   -1.2093   27.6441 C   0  0  0  0  0  0  0  0  0  0  0  0
   -9.9337   -2.0117   28.0316 C   0  0  0  0  0  0  0  0  0  0  0  0
   -6.8410    0.7011   27.3984 O   0  0  0  0  0  0  0  0  0  0  0  0
   -6.2265   -0.3234   27.6691 C   0  0  0  0  0  0  0  0  0  0  0  0
   -4.8436   -0.3571   27.3642 C   0  0  1  0  0  0  0  0  0  0  0  0
   -4.1037    0.7342   27.8416 C   0  0  0  0  0  0  0  0  0  0  0  0
   -4.5704    1.3569   28.7839 O   0  0  0  0  0  0  0  0  0  0  0  0
   -4.2773   -1.5389   27.8727 O   0  0  0  0  0  0  0  0  0  0  0  0
   -3.0625    1.1941   27.2275 O   0  0  0  0  0  0  0  0  0  0  0  0
   -3.1719   -1.9521   27.4510 C   0  0  0  0  0  0  0  0  0  0  0  0
   -9.6403   -3.4271   28.3831 C   0  0  0  0  0  0  0  0  0  0  0  0
   -8.9903   -4.0245   27.8246 O   0  0  0  0  0  0  0  0  0  0  0  0
  -10.2034   -3.8545   29.5438 O   0  0  0  0  0  0  0  0  0  0  0  0
   -2.1304   -1.5031   27.9604 C   0  0  0  0  0  0  0  0  0  0  0  0
   -0.8602   -1.9301   27.5064 C   0  0  0  0  0  0  0  0  0  0  0  0
   -0.7277   -2.7170   26.4251 C   0  0  0  0  0  0  0  0  0  0  0  0
   -1.9175   -3.1635   25.7963 C   0  0  0  0  0  0  0  0  0  0  0  0
   -3.1137   -2.7368   26.2787 C   0  0  0  0  0  0  0  0  0  0  0  0
   -4.2816   -3.1477   25.5444 C   0  0  0  0  0  0  0  0  0  0  0  0
   -5.0669   -2.3001   25.0033 C   0  0  0  0  0  0  0  0  0  0  0  0
   -6.2162   -2.6094   24.2239 C   0  0  0  0  0  0  0  0  0  0  0  0
   -6.6318   -3.8948   24.2824 C   0  0  0  0  0  0  0  0  0  0  0  0
   -5.8487   -4.8593   24.9729 C   0  0  0  0  0  0  0  0  0  0  0  0
   -4.6899   -4.4985   25.6137 C   0  0  0  0  0  0  0  0  0  0  0  0
   -7.0550   -1.6042   23.5639 C   0  0  0  0  0  0  0  0  0  0  0  0
   -8.5697   -1.3804   23.5681 Cl  0  0  0  0  0  0  0  0  0  0  0  0
  3  7  1  0
  7  8  2  0
  7  9  1  0
 10  9  1  6
 10 11  1  0
 10 17  1  0
 17 18  1  0
 19 18  1  1
 19 20  1  0
 20 21  1  0
 19 22  1  0
 20 23  2  0
 22 24  1  0
 16 25  1  0
 25 26  2  0
 25 27  1  0
 32 33  1  0
 35 39  1  0
 39 40  1  0
 33 34  2  0
 34 35  1  0
 35 36  2  0
 36 37  1  0
 37 38  2  0
 38 33  1  0
 11 12  2  0
 12 13  1  0
 13 14  2  0
 14 16  1  0
 16 15  2  0
 15 11  1  0
  1  2  2  0
  2  5  1  0
  5  6  2  0
  6  4  1  0
  4  3  2  0
  3  1  1  0
 24 28  2  0
 28 29  1  0
 29 30  2  0
 30 31  1  0
 31 32  2  0
 32 24  1  0
M  END
$$$$
