No_7779-complexes_sdf/6BKW-FPZ/2024-09-17-14-21-01/
     RDKit          3D

 24 27  0  0  0  0  0  0  0  0999 V2000
   -7.7129    4.2099   27.0854 C   0  0  0  0  0  0  0  0  0  0  0  0
   -7.7814    5.1722   27.8972 C   0  0  0  0  0  0  0  0  0  0  0  0
   -8.8255    3.2789   27.1191 C   0  0  0  0  0  0  0  0  0  0  0  0
   -8.7530    2.0643   26.3119 C   0  0  0  0  0  0  0  0  0  0  0  0
   -7.6193    1.3092   26.4290 C   0  0  0  0  0  0  0  0  0  0  0  0
   -9.0029    5.8383   28.2110 C   0  0  0  0  0  0  0  0  0  0  0  0
  -10.1982    5.1082   27.9555 C   0  0  0  0  0  0  0  0  0  0  0  0
  -10.0742    3.8676   27.3520 C   0  0  0  0  0  0  0  0  0  0  0  0
   -7.5352    0.0285   25.8742 C   0  0  0  0  0  0  0  0  0  0  0  0
   -8.5278   -0.3218   24.9853 C   0  0  0  0  0  0  0  0  0  0  0  0
   -9.6255    1.6507   25.3131 C   0  0  0  0  0  0  0  0  0  0  0  0
   -9.4991    0.5587   24.6371 C   0  0  0  0  0  0  0  0  0  0  0  0
  -11.3153    3.0632   27.1656 C   0  0  0  0  0  0  0  0  0  0  0  0
  -11.6216    2.1829   28.1581 C   0  0  0  0  0  0  0  0  0  0  0  0
  -12.6261    1.2247   28.0986 C   0  0  0  0  0  0  0  0  0  0  0  0
  -13.3734    1.2788   26.9255 C   0  0  0  0  0  0  0  0  0  0  0  0
  -12.0717    3.1342   26.0440 C   0  0  0  0  0  0  0  0  0  0  0  0
  -13.1418    2.2454   25.9182 C   0  0  0  0  0  0  0  0  0  0  0  0
  -14.5050    0.3595   26.7461 C   0  0  0  0  0  0  0  0  0  0  0  0
  -15.0257    0.1300   25.8148 C   0  0  0  0  0  0  0  0  0  0  0  0
  -15.9970   -0.8790   25.6782 C   0  0  0  0  0  0  0  0  0  0  0  0
  -16.3299   -1.5888   26.8059 C   0  0  0  0  0  0  0  0  0  0  0  0
  -15.7243   -1.3660   27.9655 C   0  0  0  0  0  0  0  0  0  0  0  0
  -14.7196   -0.4170   28.0566 C   0  0  0  0  0  0  0  0  0  0  0  0
  3  4  1  0
  8 13  1  0
 16 19  1  0
 19 20  2  0
 20 21  1  0
 21 22  2  0
 22 23  1  0
 23 24  2  0
 24 19  1  0
  4  5  2  0
  5  9  1  0
  9 10  2  0
 10 12  1  0
 12 11  2  0
 11  4  1  0
 13 14  2  0
 14 15  1  0
 15 16  2  0
 16 18  1  0
 18 17  2  0
 17 13  1  0
  1  2  2  0
  2  6  1  0
  6  7  2  0
  7  8  1  0
  8  3  2  0
  3  1  1  0
M  END
$$$$
