No_7178-complexes_sdf/6BKW-FPZ/2024-09-17-14-21-01/
     RDKit          3D

 20 23  0  0  0  0  0  0  0  0999 V2000
   -7.9040    3.9820   27.1177 C   0  0  0  0  0  0  0  0  0  0  0  0
   -8.2057    2.8231   26.8733 C   0  0  0  0  0  0  0  0  0  0  0  0
   -9.2962    2.4021   26.1155 C   0  0  0  0  0  0  0  0  0  0  0  0
   -6.8682    4.5169   28.0704 C   0  0  0  0  0  0  0  0  0  0  0  0
  -10.0578    3.3688   25.5520 C   0  0  0  0  0  0  0  0  0  0  0  0
   -9.6997    4.7480   25.6981 C   0  0  0  0  0  0  0  0  0  0  0  0
   -8.6783    5.1111   26.5262 C   0  0  0  0  0  0  0  0  0  0  0  0
   -8.6679    6.4248   26.7278 N   0  0  0  0  0  0  0  0  0  0  0  0
   -7.4580    7.0356   27.1667 C   0  0  2  0  0  0  0  0  0  0  0  0
   -6.7664    6.0314   28.0244 N   0  0  0  0  0  0  0  0  0  0  0  0
   -7.1827    8.1740   27.2325 N   0  0  0  0  0  0  0  0  0  0  0  0
   -7.3485    1.6685   27.4994 C   0  0  0  0  0  0  0  0  0  0  0  0
   -7.6993    0.3201   27.2591 C   0  0  0  0  0  0  0  0  0  0  0  0
   -6.8574   -0.6321   27.7209 C   0  0  0  0  0  0  0  0  0  0  0  0
   -7.2606   -1.9980   27.7517 C   0  0  0  0  0  0  0  0  0  0  0  0
   -8.5098   -2.2491   27.1283 C   0  0  0  0  0  0  0  0  0  0  0  0
   -9.3147   -1.3142   26.6490 C   0  0  0  0  0  0  0  0  0  0  0  0
   -8.9359    0.0229   26.7537 C   0  0  0  0  0  0  0  0  0  0  0  0
   -9.6932    1.0339   25.9946 C   0  0  0  0  0  0  0  0  0  0  0  0
  -10.6655    0.6443   25.3011 O   0  0  0  0  0  0  0  0  0  0  0  0
  1  4  1  0
  7  8  1  0
  8  9  1  0
  4 10  1  0
  9 10  1  0
  9 11  1  1
  2 12  1  0
  3 19  1  0
 18 19  1  0
 19 20  2  0
 12 13  1  0
 13 14  2  0
 14 15  1  0
 15 16  2  0
 16 17  1  0
 17 18  2  0
 18 13  1  0
  1  2  2  0
  2  3  1  0
  3  5  2  0
  5  6  1  0
  6  7  2  0
  7  1  1  0
M  END
$$$$
