No_7566-complexes_sdf/6BKW-FPZ/2024-09-17-14-21-01/
     RDKit          3D

 29 33  0  0  0  0  0  0  0  0999 V2000
   -7.2496    3.8871   27.4508 C   0  0  0  0  0  0  0  0  0  0  0  0
   -7.9379    4.9063   27.8518 C   0  0  0  0  0  0  0  0  0  0  0  0
   -9.3460    4.8223   27.8695 C   0  0  0  0  0  0  0  0  0  0  0  0
   -7.8628    2.6163   27.1065 C   0  0  0  0  0  0  0  0  0  0  0  0
   -7.1773    1.4959   26.7593 C   0  0  0  0  0  0  0  0  0  0  0  0
   -9.2781    2.5892   27.1482 C   0  0  1  0  0  0  0  0  0  0  0  0
   -9.9152    1.3696   26.8084 C   0  0  0  0  0  0  0  0  0  0  0  0
  -10.0185    3.6972   27.5880 C   0  0  1  0  0  0  0  0  0  0  0  0
   -9.2107    0.2538   26.6211 C   0  0  0  0  0  0  0  0  0  0  0  0
   -7.8075    0.3082   26.5235 C   0  0  0  0  0  0  0  0  0  0  0  0
  -11.4657    3.6077   27.8019 C   0  0  0  0  0  0  0  0  0  0  0  0
  -12.2075    2.8124   27.2768 C   0  0  0  0  0  0  0  0  0  0  0  0
  -11.4032    1.3444   26.9728 C   0  0  0  0  0  0  0  0  0  0  0  0
   -7.4301    6.1238   28.3118 N   0  0  0  0  0  0  0  0  0  0  0  0
   -7.0312   -0.8923   26.2157 C   0  0  2  0  0  0  0  0  0  0  0  0
   -6.8487   -1.1201   24.9978 C   0  0  0  0  0  0  0  0  0  0  0  0
   -6.6021   -1.7381   27.2577 C   0  0  0  0  0  0  0  0  0  0  0  0
   -6.2070   -2.8101   27.1001 C   0  0  0  0  0  0  0  0  0  0  0  0
   -6.1455   -2.3745   24.6155 C   0  0  0  0  0  0  0  0  0  0  0  0
   -5.8028   -3.2182   25.6988 C   0  0  0  0  0  0  0  0  0  0  0  0
   -7.1143   -0.2425   23.8211 C   0  0  0  0  0  0  0  0  0  0  0  0
   -6.9752   -0.7281   22.4869 C   0  0  0  0  0  0  0  0  0  0  0  0
   -7.6030   -1.7160   22.2641 C   0  0  0  0  0  0  0  0  0  0  0  0
   -8.0974   -1.9716   21.0804 C   0  0  0  0  0  0  0  0  0  0  0  0
   -8.7196   -3.2107   20.5759 C   0  0  0  0  0  0  0  0  0  0  0  0
   -9.2992   -3.1753   19.3489 C   0  0  0  0  0  0  0  0  0  0  0  0
   -9.3117   -2.0417   18.5419 C   0  0  0  0  0  0  0  0  0  0  0  0
   -8.8447   -0.8885   19.0590 C   0  0  0  0  0  0  0  0  0  0  0  0
   -8.2888   -0.7991   20.1976 C   0  0  0  0  0  0  0  0  0  0  0  0
  1  2  2  0
  2  3  1  0
  1  4  1  0
  4  5  1  0
  6  4  1  1
  6  7  1  0
  8  3  1  1
  6  8  1  0
  7  9  2  0
  5 10  1  0
  9 10  1  0
  8 11  1  0
 11 12  2  0
  7 13  1  0
 12 13  1  0
  2 14  1  0
 15 10  1  6
 15 16  1  0
 15 17  1  0
 17 18  2  0
 16 19  2  0
 18 20  1  0
 19 20  1  0
 16 21  1  0
 21 22  2  3
 22 23  1  0
 23 24  2  3
 24 25  1  0
 25 26  2  0
 26 27  1  0
 27 28  2  0
 24 29  1  0
 28 29  1  0
M  END
$$$$
