No_7586-complexes_sdf/6BKW-FPZ/2024-09-17-14-21-01/
     RDKit          3D

 16 17  0  0  0  0  0  0  0  0999 V2000
   -7.9040    3.9820   27.1177 C   0  0  0  0  0  0  0  0  0  0  0  0
   -9.0711    4.3164   27.0630 C   0  0  0  0  0  0  0  0  0  0  0  0
   -9.8698    3.9665   25.9495 C   0  0  0  0  0  0  0  0  0  0  0  0
   -7.0332    4.5030   28.2025 C   0  0  0  0  0  0  0  0  0  0  0  0
  -10.9909    4.7237   25.5958 C   0  0  0  0  0  0  0  0  0  0  0  0
   -7.5840    5.4918   28.9036 N   0  0  0  0  0  0  0  0  0  0  0  0
  -11.7343    4.2277   24.5327 C   0  0  0  0  0  0  0  0  0  0  0  0
  -11.2834    3.2344   23.7040 C   0  0  0  0  0  0  0  0  0  0  0  0
  -10.1365    2.5891   24.0239 C   0  0  0  0  0  0  0  0  0  0  0  0
   -9.3794    3.0042   25.1310 C   0  0  0  0  0  0  0  0  0  0  0  0
   -9.3040    5.4378   27.9819 C   0  0  0  0  0  0  0  0  0  0  0  0
   -8.7430    5.9871   28.7751 C   0  0  0  0  0  0  0  0  0  0  0  0
   -9.6356    1.4539   23.1812 C   0  0  0  0  0  0  0  0  0  0  0  0
  -10.0841    0.2939   23.3619 C   0  0  0  0  0  0  0  0  0  0  0  0
  -10.6699   -0.2135   24.0105 C   0  0  0  0  0  0  0  0  0  0  0  0
  -11.0576   -1.6666   23.9969 C   0  0  0  0  0  0  0  0  0  0  0  0
  9 13  1  0
 13 14  1  0
 14 15  2  3
 15 16  1  0
  3  2  1  0
  1  2  2  0
  2 11  1  0
 11 12  2  0
 12  6  1  0
  6  4  2  0
  4  1  1  0
  3  5  2  0
  5  7  1  0
  7  8  2  0
  8  9  1  0
  9 10  2  0
 10  3  1  0
M  END
$$$$
