No_7326-complexes_sdf/6BKW-FPZ/2024-09-17-14-21-01/
     RDKit          3D

 40 43  0  0  0  0  0  0  0  0999 V2000
   -7.9040    3.9820   27.1177 C   0  0  0  0  0  0  0  0  0  0  0  0
   -8.2057    2.8231   26.8733 C   0  0  0  0  0  0  0  0  0  0  0  0
   -8.7695    5.0740   26.7916 C   0  0  0  0  0  0  0  0  0  0  0  0
   -9.9618    4.7598   26.1630 C   0  0  0  0  0  0  0  0  0  0  0  0
   -9.4200    2.4524   26.2849 C   0  0  0  0  0  0  0  0  0  0  0  0
  -10.2590    3.4815   25.9250 C   0  0  0  0  0  0  0  0  0  0  0  0
   -8.3840    6.4693   27.0829 C   0  0  0  0  0  0  0  0  0  0  0  0
   -8.3637    6.7809   28.2310 F   0  0  0  0  0  0  0  0  0  0  0  0
   -8.2971    7.3067   26.1460 F   0  0  0  0  0  0  0  0  0  0  0  0
   -7.2732    1.6745   27.2888 C   0  0  0  0  0  0  0  0  0  0  0  0
   -7.6041    0.3154   27.2218 C   0  0  0  0  0  0  0  0  0  0  0  0
   -6.6836   -0.6159   27.6363 C   0  0  0  0  0  0  0  0  0  0  0  0
   -5.3942   -0.1837   28.0762 C   0  0  0  0  0  0  0  0  0  0  0  0
   -5.0787    1.1711   28.0971 C   0  0  0  0  0  0  0  0  0  0  0  0
   -5.9312    2.0658   27.7433 C   0  0  0  0  0  0  0  0  0  0  0  0
   -4.4294   -1.2209   28.5771 C   0  0  0  0  0  0  0  0  0  0  0  0
   -3.4106   -1.3135   28.2532 N   0  0  0  0  0  0  0  0  0  0  0  0
   -5.0082   -2.2590   29.2773 O   0  0  0  0  0  0  0  0  0  0  0  0
   -2.6761   -0.2631   27.4627 C   0  0  0  0  0  0  0  0  0  0  0  0
   -2.3911   -0.7055   26.1187 C   0  0  0  0  0  0  0  0  0  0  0  0
   -1.3075    0.1532   28.1066 C   0  0  0  0  0  0  0  0  0  0  0  0
  -11.5209    3.1878   25.1782 C   0  0  0  0  0  0  0  0  0  0  0  0
  -12.5958    2.6698   25.8361 C   0  0  0  0  0  0  0  0  0  0  0  0
  -12.6725    2.2342   26.8607 C   0  0  0  0  0  0  0  0  0  0  0  0
  -11.5052    2.1913   27.7914 C   0  0  0  0  0  0  0  0  0  0  0  0
  -11.8717    1.8889   29.2780 C   0  0  0  0  0  0  0  0  0  0  0  0
  -13.1695    1.5133   29.6491 C   0  0  0  0  0  0  0  0  0  0  0  0
  -14.2052    1.5702   28.7645 C   0  0  0  0  0  0  0  0  0  0  0  0
  -13.9882    1.9296   27.5205 C   0  0  0  0  0  0  0  0  0  0  0  0
  -11.4504    3.5488   23.7674 C   0  0  0  0  0  0  0  0  0  0  0  0
  -12.4011    3.8492   23.0445 C   0  0  0  0  0  0  0  0  0  0  0  0
  -13.7487    2.6590   24.9149 C   0  0  0  0  0  0  0  0  0  0  0  0
  -13.6655    3.2744   23.5822 C   0  0  0  0  0  0  0  0  0  0  0  0
   -4.8659   -2.1915   30.6602 C   0  0  0  0  0  0  0  0  0  0  0  0
   -4.0785   -1.5855   31.2100 C   0  0  0  0  0  0  0  0  0  0  0  0
   -4.0575   -0.8727   32.1809 C   0  0  0  0  0  0  0  0  0  0  0  0
   -2.9006   -0.1490   32.9048 C   0  0  0  0  0  0  0  0  0  0  0  0
   -1.9950   -0.8345   33.5170 C   0  0  0  0  0  0  0  0  0  0  0  0
   -1.1066   -0.2437   34.4755 C   0  0  0  0  0  0  0  0  0  0  0  0
   -0.5293   -0.8054   35.6171 C   0  0  0  0  0  0  0  0  0  0  0  0
  3  7  1  0
  7  8  1  0
  7  9  1  0
  2 10  1  0
 13 16  1  0
 16 17  2  3
 16 18  1  0
 17 19  1  0
 19 20  1  0
 19 21  1  0
  6 22  1  0
 18 34  1  0
 34 35  1  0
 35 36  2  3
 36 37  1  0
 37 38  2  3
 38 39  1  0
 39 40  2  0
 23 24  1  0
 22 23  2  0
 23 32  1  0
 32 33  2  0
 33 31  1  0
 31 30  2  0
 30 22  1  0
 24 25  2  0
 25 26  1  0
 26 27  2  0
 27 28  1  0
 28 29  2  0
 29 24  1  0
  1  2  2  0
  2  5  1  0
  5  6  2  0
  6  4  1  0
  4  3  2  0
  3  1  1  0
 10 11  2  0
 11 12  1  0
 12 13  2  0
 13 14  1  0
 14 15  2  0
 15 10  1  0
M  END
$$$$
