No_7618-complexes_sdf/6BKW-FPZ/2024-09-17-14-21-01/
     RDKit          3D

 13 13  0  0  0  0  0  0  0  0999 V2000
   -7.2496    3.8871   27.4508 C   0  0  0  0  0  0  0  0  0  0  0  0
   -7.9379    4.9063   27.8518 C   0  0  0  0  0  0  0  0  0  0  0  0
   -7.5112    6.1898   27.6280 C   0  0  0  0  0  0  0  0  0  0  0  0
   -7.8078    2.6331   27.2522 C   0  0  0  0  0  0  0  0  0  0  0  0
   -9.1846    2.4724   27.5426 C   0  0  0  0  0  0  0  0  0  0  0  0
   -9.8869    3.5177   28.0783 C   0  0  0  0  0  0  0  0  0  0  0  0
   -9.3786    4.7757   28.1464 C   0  0  0  0  0  0  0  0  0  0  0  0
  -11.3170    3.2078   28.4137 C   0  0  0  0  0  0  0  0  0  0  0  0
  -12.2401    3.1459   27.5573 C   0  0  0  0  0  0  0  0  0  0  0  0
  -12.2054    3.1009   26.3675 C   0  0  0  0  0  0  0  0  0  0  0  0
  -11.1974    2.9671   25.6695 C   0  0  0  0  0  0  0  0  0  0  0  0
  -11.2224    3.1723   24.1144 C   0  0  0  0  0  0  0  0  0  0  0  0
  -10.0150    3.1210   23.3571 C   0  0  0  0  0  0  0  0  0  0  0  0
  6  8  1  0
  8  9  1  0
  9 10  1  0
 10 11  1  0
 11 12  2  3
 12 13  1  0
  3  2  1  0
  1  2  2  0
  2  7  1  0
  7  6  2  0
  6  5  1  0
  5  4  2  0
  4  1  1  0
M  END
$$$$
