No_7732-complexes_sdf/6BKW-FPZ/2024-09-17-14-21-01/
     RDKit          3D

 13 14  0  0  0  0  0  0  0  0999 V2000
   -7.9040    3.9820   27.1177 C   0  0  0  0  0  0  0  0  0  0  0  0
   -7.8663    4.8694   27.9238 C   0  0  0  0  0  0  0  0  0  0  0  0
   -9.0501    3.8017   26.2617 C   0  0  0  0  0  0  0  0  0  0  0  0
   -9.1826    2.7026   25.3575 C   0  0  0  0  0  0  0  0  0  0  0  0
   -8.6940    6.0131   27.8614 C   0  0  0  0  0  0  0  0  0  0  0  0
  -10.1138    4.6733   26.4644 C   0  0  0  0  0  0  0  0  0  0  0  0
   -9.8579    5.8496   27.1764 C   0  0  0  0  0  0  0  0  0  0  0  0
   -8.6820    1.4638   25.6980 C   0  0  0  0  0  0  0  0  0  0  0  0
   -8.7841    0.4059   24.8093 C   0  0  0  0  0  0  0  0  0  0  0  0
   -8.1903   -0.8085   25.1062 C   0  0  0  0  0  0  0  0  0  0  0  0
   -7.5389   -0.9850   26.3705 C   0  0  0  0  0  0  0  0  0  0  0  0
   -7.4564    0.0693   27.2689 C   0  0  0  0  0  0  0  0  0  0  0  0
   -7.9742    1.2588   26.9877 C   0  0  0  0  0  0  0  0  0  0  0  0
  3  4  1  0
  4  8  1  0
  8  9  2  0
  9 10  1  0
 10 11  2  0
 11 12  1  0
 12 13  2  0
 13  8  1  0
  1  2  2  0
  2  5  1  0
  5  7  2  0
  7  6  1  0
  6  3  2  0
  3  1  1  0
M  END
$$$$
