No_7459-complexes_sdf/6BKW-FPZ/2024-09-17-14-21-01/
     RDKit          3D

 19 20  0  0  0  0  0  0  0  0999 V2000
   -7.9040    3.9820   27.1177 C   0  0  0  0  0  0  0  0  0  0  0  0
   -8.2057    2.8231   26.8733 C   0  0  0  0  0  0  0  0  0  0  0  0
   -8.7695    5.0740   26.7916 C   0  0  0  0  0  0  0  0  0  0  0  0
   -8.4337    6.4678   27.0913 C   0  0  0  0  0  0  0  0  0  0  0  0
   -9.3742    2.4311   26.2346 C   0  0  0  0  0  0  0  0  0  0  0  0
  -10.2395    3.4267   25.8887 C   0  0  0  0  0  0  0  0  0  0  0  0
   -9.9567    4.7548   26.1374 C   0  0  0  0  0  0  0  0  0  0  0  0
   -7.9839    7.5474   27.0128 N   0  0  0  0  0  0  0  0  0  0  0  0
   -7.2381    1.6824   27.2965 C   0  0  0  0  0  0  0  0  0  0  0  0
   -6.1584    2.0226   27.8899 O   0  0  0  0  0  0  0  0  0  0  0  0
   -7.4649    0.4320   27.0239 N   0  0  0  0  0  0  0  0  0  0  0  0
   -6.5465   -0.6505   27.4101 C   0  0  0  0  0  0  0  0  0  0  0  0
   -5.4523   -0.5710   27.6114 C   0  0  0  0  0  0  0  0  0  0  0  0
   -4.5500   -0.9437   27.9960 C   0  0  0  0  0  0  0  0  0  0  0  0
   -3.1195   -0.4376   28.2497 C   0  0  0  0  0  0  0  0  0  0  0  0
   -2.9922    0.8880   27.7016 C   0  0  0  0  0  0  0  0  0  0  0  0
   -3.9782    1.5301   27.1007 C   0  0  0  0  0  0  0  0  0  0  0  0
   -5.1000    0.9777   27.0148 C   0  0  0  0  0  0  0  0  0  0  0  0
   -5.3173    0.8932   25.7316 F   0  0  0  0  0  0  0  0  0  0  0  0
  3  4  1  0
  4  8  3  0
  2  9  1  0
  9 10  2  0
  9 11  1  0
 11 12  1  0
 18 19  1  0
 12 13  1  0
 13 14  2  0
 14 15  1  0
 15 16  2  0
 16 17  1  0
 17 18  2  0
 18 13  1  0
  1  2  2  0
  2  5  1  0
  5  6  2  0
  6  7  1  0
  7  3  2  0
  3  1  1  0
M  END
$$$$
