No_7277-complexes_sdf/6BKW-FPZ/2024-09-17-14-21-01/
     RDKit          3D

 19 20  0  0  0  0  0  0  0  0999 V2000
   -7.2496    3.8871   27.4508 C   0  0  0  0  0  0  0  0  0  0  0  0
   -7.6161    2.7143   27.1523 C   0  0  0  0  0  0  0  0  0  0  0  0
   -7.1618    1.8631   27.5232 C   0  0  0  0  0  0  0  0  0  0  0  0
   -8.0384    5.0866   27.3232 C   0  0  0  0  0  0  0  0  0  0  0  0
   -9.1224    5.1097   26.4856 C   0  0  0  0  0  0  0  0  0  0  0  0
   -8.9382    2.7289   26.5134 C   0  0  0  0  0  0  0  0  0  0  0  0
   -9.6249    3.8520   26.1646 C   0  0  0  0  0  0  0  0  0  0  0  0
   -7.4458    0.3982   27.3241 C   0  0  0  0  0  0  0  0  0  0  0  0
   -6.7227   -0.6505   27.7043 C   0  0  0  0  0  0  0  0  0  0  0  0
   -5.4322   -0.3479   28.2492 C   0  0  0  0  0  0  0  0  0  0  0  0
   -4.9374    0.9269   28.3547 C   0  0  0  0  0  0  0  0  0  0  0  0
   -5.6567    1.9452   28.0109 C   0  0  0  0  0  0  0  0  0  0  0  0
   -7.6971    6.3999   27.7543 N   0  0  0  0  0  0  0  0  0  0  0  0
   -4.6163   -1.5350   28.7460 C   0  0  0  0  0  0  0  0  0  0  0  0
   -3.5961   -1.6772   28.3722 O   0  0  0  0  0  0  0  0  0  0  0  0
   -5.0775   -2.0247   29.9115 O   0  0  0  0  0  0  0  0  0  0  0  0
  -10.8324    3.7402   25.3041 C   0  0  0  0  0  0  0  0  0  0  0  0
  -12.0011    3.5410   25.9215 C   0  0  0  0  0  0  0  0  0  0  0  0
  -13.2397    3.5441   25.2081 C   0  0  0  0  0  0  0  0  0  0  0  0
  2  3  1  0
  4 13  1  0
 10 14  1  0
 14 15  2  0
 14 16  1  0
  7 17  1  0
 17 18  2  3
 18 19  1  0
  3  8  2  0
  8  9  1  0
  9 10  2  0
 10 11  1  0
 11 12  2  0
 12  3  1  0
  1  2  2  0
  2  6  1  0
  6  7  2  0
  7  5  1  0
  5  4  2  0
  4  1  1  0
M  END
$$$$
