No_7960-complexes_sdf/6BKW-FPZ/2024-09-17-14-21-01/
     RDKit          3D

 23 24  0  0  0  0  0  0  0  0999 V2000
   -7.9040    3.9820   27.1177 C   0  0  0  0  0  0  0  0  0  0  0  0
   -8.2057    2.8231   26.8733 C   0  0  0  0  0  0  0  0  0  0  0  0
   -8.7695    5.0740   26.7916 C   0  0  0  0  0  0  0  0  0  0  0  0
   -8.4337    6.4678   27.0913 C   0  0  0  0  0  0  0  0  0  0  0  0
   -9.3742    2.4311   26.2346 C   0  0  0  0  0  0  0  0  0  0  0  0
  -10.2395    3.4267   25.8887 C   0  0  0  0  0  0  0  0  0  0  0  0
   -9.9567    4.7548   26.1374 C   0  0  0  0  0  0  0  0  0  0  0  0
   -8.8110    7.3245   26.4321 F   0  0  0  0  0  0  0  0  0  0  0  0
   -7.6042    6.5882   28.1073 F   0  0  0  0  0  0  0  0  0  0  0  0
   -7.0919    1.8016   27.3399 C   0  0  0  0  0  0  0  0  0  0  0  0
   -6.5121    0.9760   26.6751 C   0  0  0  0  0  0  0  0  0  0  0  0
   -5.4675    0.2253   27.3566 C   0  0  0  0  0  0  0  0  0  0  0  0
   -4.8793    0.2658   28.2376 C   0  0  0  0  0  0  0  0  0  0  0  0
   -4.5613    0.7919   29.0482 C   0  0  0  0  0  0  0  0  0  0  0  0
   -4.3740    1.3804   30.2942 C   0  0  0  0  0  0  0  0  0  0  0  0
   -3.7442    0.5160   31.3786 C   0  0  1  0  0  0  0  0  0  0  0  0
   -3.1030    1.0907   32.2338 F   0  0  0  0  0  0  0  0  0  0  0  0
   -3.9710   -0.9245   31.4232 C   0  0  0  0  0  0  0  0  0  0  0  0
   -3.9251   -1.7709   30.8477 C   0  0  0  0  0  0  0  0  0  0  0  0
   -4.3847   -3.0941   31.1714 C   0  0  0  0  0  0  0  0  0  0  0  0
   -4.9566   -3.1599   32.0459 C   0  0  0  0  0  0  0  0  0  0  0  0
   -4.8039   -1.2364   32.6960 C   0  0  0  0  0  0  0  0  0  0  0  0
   -5.3172   -2.3027   33.0515 C   0  0  0  0  0  0  0  0  0  0  0  0
  3  4  1  0
  4  8  1  0
  4  9  1  0
  2 10  1  0
 10 11  1  0
 11 12  2  3
 12 13  1  0
 13 14  2  3
 14 15  1  0
 15 16  1  0
 16 17  1  1
 16 18  1  0
 18 19  2  0
 19 20  1  0
 20 21  2  0
 21 23  1  0
 23 22  2  0
 22 18  1  0
  1  2  2  0
  2  5  1  0
  5  6  2  0
  6  7  1  0
  7  3  2  0
  3  1  1  0
M  END
$$$$
