No_7229-complexes_sdf/6BKW-FPZ/2024-09-17-14-21-01/
     RDKit          3D

  7  7  0  0  0  0  0  0  0  0999 V2000
   -7.2496    3.8871   27.4508 C   0  0  0  0  0  0  0  0  0  0  0  0
   -7.9379    4.9063   27.8518 C   0  0  0  0  0  0  0  0  0  0  0  0
   -8.7729    5.5444   27.0168 C   0  0  0  0  0  0  0  0  0  0  0  0
   -7.7708    3.0049   26.4155 C   0  0  0  0  0  0  0  0  0  0  0  0
   -9.3905    6.7713   27.4103 C   0  0  0  0  0  0  0  0  0  0  0  0
   -8.9247    3.4642   25.7574 C   0  0  0  0  0  0  0  0  0  0  0  0
   -9.4236    4.7765   26.0257 C   0  0  0  0  0  0  0  0  0  0  0  0
  3  5  1  0
  1  2  2  0
  2  3  1  0
  3  7  2  0
  7  6  1  0
  6  4  2  0
  4  1  1  0
M  END
$$$$
