No_7043-complexes_sdf/6BKW-FPZ/2024-09-17-14-21-01/
     RDKit          3D

 16 18  0  0  0  0  0  0  0  0999 V2000
   -7.9040    3.9820   27.1177 C   0  0  0  0  0  0  0  0  0  0  0  0
   -9.0711    4.3164   27.0630 C   0  0  0  0  0  0  0  0  0  0  0  0
   -9.5182    5.5541   27.5777 C   0  0  0  0  0  0  0  0  0  0  0  0
   -7.4468    2.6843   26.6499 C   0  0  0  0  0  0  0  0  0  0  0  0
   -8.3856    1.7878   26.2216 C   0  0  0  0  0  0  0  0  0  0  0  0
   -9.6812    2.2328   26.0889 C   0  0  0  0  0  0  0  0  0  0  0  0
  -10.0147    3.4312   26.5259 C   0  0  0  0  0  0  0  0  0  0  0  0
   -7.9132    0.4733   25.8127 C   0  0  0  0  0  0  0  0  0  0  0  0
   -8.1299    0.0169   24.7318 N   0  0  0  0  0  0  0  0  0  0  0  0
   -7.5709   -1.1797   24.3305 C   0  0  0  0  0  0  0  0  0  0  0  0
   -7.2475   -0.3252   26.8193 C   0  0  0  0  0  0  0  0  0  0  0  0
   -6.7220   -1.5375   26.5404 C   0  0  0  0  0  0  0  0  0  0  0  0
   -6.9348   -1.9740   25.2140 C   0  0  0  0  0  0  0  0  0  0  0  0
   -8.5967    6.6692   27.4320 C   0  0  0  0  0  0  0  0  0  0  0  0
   -7.2855    6.3580   27.1042 C   0  0  0  0  0  0  0  0  0  0  0  0
   -6.8674    5.0403   27.1145 C   0  0  0  0  0  0  0  0  0  0  0  0
  5  8  1  0
  8  9  2  0
  9 10  1  0
 10 13  2  0
 13 12  1  0
 12 11  2  0
 11  8  1  0
  2  7  1  0
  7  6  2  0
  6  5  1  0
  5  4  2  0
  4  1  1  0
  1  2  1  0
  2  3  2  0
  3 14  1  0
 14 15  2  0
 15 16  1  0
 16  1  2  0
M  END
$$$$
