No_7675-complexes_sdf/6BKW-FPZ/2024-09-17-14-21-01/
     RDKit          3D

 40 45  0  0  0  0  0  0  0  0999 V2000
   -7.2496    3.8871   27.4508 C   0  0  0  0  0  0  0  0  0  0  0  0
   -8.5096    4.0291   27.2770 C   0  0  0  0  0  0  0  0  0  0  0  0
   -9.2669    5.1645   27.5845 C   0  0  0  0  0  0  0  0  0  0  0  0
   -8.4566    6.3212   27.8001 C   0  0  0  0  0  0  0  0  0  0  0  0
   -6.5590    2.5934   27.2169 C   0  0  0  0  0  0  0  0  0  0  0  0
   -7.3469    1.4814   27.0290 C   0  0  0  0  0  0  0  0  0  0  0  0
   -8.6628    1.6034   26.8522 C   0  0  0  0  0  0  0  0  0  0  0  0
   -9.3578    2.8220   27.1151 C   0  0  0  0  0  0  0  0  0  0  0  0
   -7.0638    6.2363   27.7486 C   0  0  0  0  0  0  0  0  0  0  0  0
   -6.4391    5.0081   27.6655 C   0  0  0  0  0  0  0  0  0  0  0  0
   -6.6712    0.2001   26.8141 C   0  0  0  0  0  0  0  0  0  0  0  0
   -5.4252   -0.2452   27.8099 P   0  0  0  0  0  0  0  0  0  0  0  0
   -4.7783    0.8389   28.0792 O   0  0  0  0  0  0  0  0  0  0  0  0
   -6.2013   -0.9506   29.0331 O   0  0  0  0  0  0  0  0  0  0  0  0
   -4.6211   -1.3100   27.0971 O   0  0  0  0  0  0  0  0  0  0  0  0
  -10.8072    2.8608   27.0689 C   0  0  1  0  0  0  0  0  0  0  0  0
  -11.3719    1.8806   27.8247 C   0  0  0  0  0  0  0  0  0  0  0  0
  -12.1631    1.8659   28.4572 C   0  0  0  0  0  0  0  0  0  0  0  0
  -12.8404    3.1838   28.8012 C   0  0  1  0  0  0  0  0  0  0  0  0
  -12.6005    4.1683   27.8658 C   0  0  0  0  0  0  0  0  0  0  0  0
  -11.3598    4.1149   27.2559 C   0  0  1  0  0  0  0  0  0  0  0  0
  -10.3820    5.3158   27.6908 C   0  0  0  0  0  0  0  0  0  0  0  0
  -11.2913    2.7786   25.5923 C   0  0  0  0  0  0  0  0  0  0  0  0
  -10.8997    3.7616   24.8393 C   0  0  0  0  0  0  0  0  0  0  0  0
  -11.2043    3.7416   23.3869 C   0  0  0  0  0  0  0  0  0  0  0  0
  -11.8568    2.7284   22.8610 C   0  0  0  0  0  0  0  0  0  0  0  0
  -11.9203    1.6459   25.1223 C   0  0  0  0  0  0  0  0  0  0  0  0
  -12.0843    1.6676   23.9108 C   0  0  0  0  0  0  0  0  0  0  0  0
  -14.2486    3.1726   29.4300 C   0  0  0  0  0  0  0  0  0  0  0  0
  -14.2274    3.1596   30.8053 C   0  0  0  0  0  0  0  0  0  0  0  0
  -15.3429    3.2212   31.5772 C   0  0  0  0  0  0  0  0  0  0  0  0
  -16.5410    3.2146   30.8477 C   0  0  0  0  0  0  0  0  0  0  0  0
  -15.4372    3.2227   28.8630 C   0  0  0  0  0  0  0  0  0  0  0  0
  -16.6000    3.2318   29.5378 C   0  0  0  0  0  0  0  0  0  0  0  0
  -10.7373    5.1958   22.2560 Br  0  0  0  0  0  0  0  0  0  0  0  0
  -15.5093    3.2403   27.3519 C   0  0  0  0  0  0  0  0  0  0  0  0
  -15.6114    4.4251   26.6391 C   0  0  0  0  0  0  0  0  0  0  0  0
  -15.4396    4.4420   25.2712 C   0  0  0  0  0  0  0  0  0  0  0  0
  -15.5495    2.0089   26.6792 C   0  0  0  0  0  0  0  0  0  0  0  0
  -15.5177    2.0153   25.2656 C   0  0  0  0  0  0  0  0  0  0  0  0
  6 11  1  0
 11 12  1  0
 12 13  2  0
 12 14  1  0
 12 15  1  0
  8 16  1  0
 16 17  1  0
 18 19  1  0
 16 21  1  0
 21 20  1  1
  3 22  1  0
 21 22  1  0
 16 23  1  6
 19 29  1  6
 25 35  1  0
 33 36  1  0
 36 37  1  0
 37 38  2  0
 36 39  1  0
 39 40  2  0
 17 18  1  0
 19 20  1  0
  2  3  1  0
  3  4  2  0
  4  9  1  0
  9 10  2  0
 10  1  1  0
  1  2  2  0
  2  8  1  0
  8  7  2  0
  7  6  1  0
  6  5  2  0
  5  1  1  0
 29 30  2  0
 30 31  1  0
 31 32  2  0
 32 34  1  0
 34 33  2  0
 33 29  1  0
 23 24  2  0
 24 25  1  0
 25 26  2  0
 26 28  1  0
 28 27  2  0
 27 23  1  0
M  END
$$$$
