No_7384-complexes_sdf/6BKW-FPZ/2024-09-17-14-21-01/
     RDKit          3D

 17 18  0  0  0  0  0  0  0  0999 V2000
   -7.2496    3.8871   27.4508 C   0  0  0  0  0  0  0  0  0  0  0  0
   -8.5096    4.0291   27.2770 C   0  0  0  0  0  0  0  0  0  0  0  0
   -9.3502    2.8685   26.8763 C   0  0  0  0  0  0  0  0  0  0  0  0
   -6.6288    2.5513   27.4938 C   0  0  0  0  0  0  0  0  0  0  0  0
   -7.4365    1.4714   27.2032 C   0  0  0  0  0  0  0  0  0  0  0  0
   -8.7772    1.6579   26.9338 C   0  0  0  0  0  0  0  0  0  0  0  0
   -8.9255    5.4785   27.2355 C   0  0  0  0  0  0  0  0  0  0  0  0
   -8.1887    6.4215   27.5303 N   0  0  0  0  0  0  0  0  0  0  0  0
  -10.2127    5.6291   27.0312 O   0  0  0  0  0  0  0  0  0  0  0  0
   -6.8376    0.1604   27.1813 C   0  0  0  0  0  0  0  0  0  0  0  0
   -5.6497   -0.0763   27.8321 C   0  0  0  0  0  0  0  0  0  0  0  0
   -5.0202   -1.3606   27.8517 C   0  0  0  0  0  0  0  0  0  0  0  0
   -5.6797   -2.3230   27.0950 C   0  0  0  0  0  0  0  0  0  0  0  0
   -7.2367   -1.0139   26.5940 C   0  0  0  0  0  0  0  0  0  0  0  0
   -6.7537   -2.1684   26.5145 C   0  0  0  0  0  0  0  0  0  0  0  0
   -8.5222    7.8400   27.2518 C   0  0  0  0  0  0  0  0  0  0  0  0
   -3.8655   -1.5284   28.5290 F   0  0  0  0  0  0  0  0  0  0  0  0
  2  7  1  0
  7  8  1  0
  7  9  2  0
  5 10  1  0
  8 16  1  0
 12 17  1  0
  1  2  2  0
  2  3  1  0
  3  6  2  0
  6  5  1  0
  5  4  2  0
  4  1  1  0
 10 11  2  0
 11 12  1  0
 12 13  2  0
 13 15  1  0
 15 14  2  0
 14 10  1  0
M  END
$$$$
