No_7930-complexes_sdf/6BKW-FPZ/2024-09-17-14-21-01/
     RDKit          3D

 12 12  0  0  0  0  0  0  0  0999 V2000
   -7.7129    4.2099   27.0854 C   0  0  0  0  0  0  0  0  0  0  0  0
   -7.7814    5.1722   27.8972 C   0  0  0  0  0  0  0  0  0  0  0  0
   -7.3155    2.9700   27.6145 C   0  0  0  0  0  0  0  0  0  0  0  0
   -6.9774    2.0071   26.9623 C   0  0  0  0  0  0  0  0  0  0  0  0
   -7.9586    1.6186   25.9316 C   0  0  0  0  0  0  0  0  0  0  0  0
   -8.8776    2.5976   25.5619 C   0  0  0  0  0  0  0  0  0  0  0  0
   -8.7887    3.9241   26.1465 C   0  0  0  0  0  0  0  0  0  0  0  0
   -8.3745    5.8251   28.4053 F   0  0  0  0  0  0  0  0  0  0  0  0
   -6.8416    5.9649   27.2198 F   0  0  0  0  0  0  0  0  0  0  0  0
   -9.7700    2.4383   24.4163 C   0  0  0  0  0  0  0  0  0  0  0  0
  -10.6204    3.4170   23.9559 C   0  0  0  0  0  0  0  0  0  0  0  0
  -11.3021    3.5043   23.0469 C   0  0  0  0  0  0  0  0  0  0  0  0
  1  2  1  0
  2  8  1  0
  2  9  1  0
  6 10  1  0
 10 11  2  3
 11 12  1  0
  1  3  2  0
  3  4  1  0
  4  5  2  0
  5  6  1  0
  6  7  2  0
  7  1  1  0
M  END
$$$$
