No_7852-complexes_sdf/6BKW-FPZ/2024-09-17-14-21-01/
     RDKit          3D

 14 14  0  0  0  0  0  0  0  0999 V2000
   -7.9040    3.9820   27.1177 C   0  0  0  0  0  0  0  0  0  0  0  0
   -8.2057    2.8231   26.8733 C   0  0  0  0  0  0  0  0  0  0  0  0
   -7.4766    1.7477   27.4593 C   0  0  0  0  0  0  0  0  0  0  0  0
   -8.7468    5.1251   26.6967 C   0  0  0  0  0  0  0  0  0  0  0  0
   -9.7234    4.8589   25.8202 C   0  0  0  0  0  0  0  0  0  0  0  0
   -9.9711    3.5858   25.4266 C   0  0  0  0  0  0  0  0  0  0  0  0
   -9.2266    2.4957   25.9600 C   0  0  0  0  0  0  0  0  0  0  0  0
   -7.8826    0.4491   27.3570 N   0  0  0  0  0  0  0  0  0  0  0  0
   -9.0872    0.1761   27.3809 C   0  0  0  0  0  0  0  0  0  0  0  0
   -6.1930    2.0003   27.7510 O   0  0  0  0  0  0  0  0  0  0  0  0
   -8.3891    6.5214   27.0887 C   0  0  0  0  0  0  0  0  0  0  0  0
   -8.1278    6.7467   28.2659 O   0  0  0  0  0  0  0  0  0  0  0  0
   -8.2464    7.4797   26.2201 O   0  0  0  0  0  0  0  0  0  0  0  0
   -9.8279   -0.4429   27.9654 C   0  0  0  0  0  0  0  0  0  0  0  0
  2  3  1  0
  3  8  1  0
  8  9  1  0
  3 10  2  0
  4 11  1  0
 11 12  2  0
 11 13  1  0
  9 14  3  0
  1  2  2  0
  2  7  1  0
  7  6  2  0
  6  5  1  0
  5  4  2  0
  4  1  1  0
M  END
$$$$
