No_7306-complexes_sdf/6BKW-FPZ/2024-09-17-14-21-01/
     RDKit          3D

 18 19  0  0  0  0  0  0  0  0999 V2000
   -7.2496    3.8871   27.4508 C   0  0  0  0  0  0  0  0  0  0  0  0
   -8.5096    4.0291   27.2770 C   0  0  0  0  0  0  0  0  0  0  0  0
   -9.3451    2.8786   26.9046 C   0  0  0  0  0  0  0  0  0  0  0  0
   -8.7138    1.7135   26.7541 C   0  0  0  0  0  0  0  0  0  0  0  0
   -6.6024    2.6286   27.4581 C   0  0  0  0  0  0  0  0  0  0  0  0
   -7.3557    1.5598   27.1381 C   0  0  0  0  0  0  0  0  0  0  0  0
   -9.1549    5.3689   27.3374 C   0  0  0  0  0  0  0  0  0  0  0  0
   -8.3270    6.5188   27.1630 C   0  0  0  0  0  0  0  0  0  0  0  0
   -6.6940    0.2513   27.0445 C   0  0  0  0  0  0  0  0  0  0  0  0
   -7.1660   -0.7077   27.8102 C   0  0  0  0  0  0  0  0  0  0  0  0
   -6.4117   -1.7576   28.3025 C   0  0  0  0  0  0  0  0  0  0  0  0
   -6.9231   -2.6022   29.3079 C   0  0  0  0  0  0  0  0  0  0  0  0
   -8.3202   -2.5710   29.5843 C   0  0  0  0  0  0  0  0  0  0  0  0
   -9.1382   -1.6342   28.9703 C   0  0  0  0  0  0  0  0  0  0  0  0
   -8.5986   -0.6910   28.2049 C   0  0  0  0  0  0  0  0  0  0  0  0
   -8.7949    7.7849   26.6895 C   0  0  0  0  0  0  0  0  0  0  0  0
   -5.6888    0.1076   26.3227 O   0  0  0  0  0  0  0  0  0  0  0  0
   -7.0011    6.5652   27.7163 C   0  0  0  0  0  0  0  0  0  0  0  0
  2  7  1  0
  7  8  1  0
  6  9  1  0
  9 10  1  0
  8 16  2  0
  9 17  2  0
  8 18  1  0
  1  2  2  0
  2  3  1  0
  3  4  2  0
  4  6  1  0
  6  5  2  0
  5  1  1  0
 10 11  2  0
 11 12  1  0
 12 13  2  0
 13 14  1  0
 14 15  2  0
 15 10  1  0
M  END
$$$$
