No_7142-complexes_sdf/6BKW-FPZ/2024-09-17-14-21-01/
     RDKit          3D

 19 21  0  0  0  0  0  0  0  0999 V2000
   -7.7129    4.2099   27.0854 C   0  0  0  0  0  0  0  0  0  0  0  0
   -8.2112    3.0637   26.9225 C   0  0  0  0  0  0  0  0  0  0  0  0
   -9.4446    2.8304   26.1868 C   0  0  0  0  0  0  0  0  0  0  0  0
   -6.6388    4.5347   28.1122 C   0  0  0  0  0  0  0  0  0  0  0  0
   -9.9448    3.9173   25.5585 C   0  0  0  0  0  0  0  0  0  0  0  0
   -9.3660    5.1901   25.7094 C   0  0  0  0  0  0  0  0  0  0  0  0
   -8.3659    5.4005   26.5436 C   0  0  0  0  0  0  0  0  0  0  0  0
  -11.1204    3.7819   24.6448 C   0  0  0  0  0  0  0  0  0  0  0  0
  -12.3200    3.5881   25.1544 C   0  0  0  0  0  0  0  0  0  0  0  0
  -10.9246    3.8518   23.2400 C   0  0  0  0  0  0  0  0  0  0  0  0
  -11.8326    3.9116   22.3046 C   0  0  0  0  0  0  0  0  0  0  0  0
  -12.6259    3.5168   26.5021 C   0  0  0  0  0  0  0  0  0  0  0  0
  -13.9401    3.6390   26.9894 C   0  0  0  0  0  0  0  0  0  0  0  0
  -13.1621    3.7415   22.8438 C   0  0  0  0  0  0  0  0  0  0  0  0
  -13.4251    3.6663   24.2109 C   0  0  0  0  0  0  0  0  0  0  0  0
  -14.1485    3.5776   28.3917 C   0  0  0  0  0  0  0  0  0  0  0  0
  -13.0839    3.3330   29.2828 C   0  0  0  0  0  0  0  0  0  0  0  0
  -11.7468    3.2139   28.8010 C   0  0  0  0  0  0  0  0  0  0  0  0
  -11.6085    3.3393   27.5044 C   0  0  0  0  0  0  0  0  0  0  0  0
  1  4  1  0
  5  8  1  0
  9 12  1  0
  8  9  2  0
  9 15  1  0
 15 14  2  0
 14 11  1  0
 11 10  2  0
 10  8  1  0
 12 13  2  0
 13 16  1  0
 16 17  2  0
 17 18  1  0
 18 19  2  0
 19 12  1  0
  1  2  2  0
  2  3  1  0
  3  5  2  0
  5  6  1  0
  6  7  2  0
  7  1  1  0
M  END
$$$$
