No_7275-complexes_sdf/6BKW-FPZ/2024-09-17-14-21-01/
     RDKit          3D

 32 35  0  0  0  0  0  0  0  0999 V2000
   -7.9040    3.9820   27.1177 C   0  0  0  0  0  0  0  0  0  0  0  0
   -7.8663    4.8694   27.9238 C   0  0  0  0  0  0  0  0  0  0  0  0
   -7.4698    2.6989   27.4277 C   0  0  0  0  0  0  0  0  0  0  0  0
   -7.9683    1.5964   26.8266 C   0  0  1  0  0  0  0  0  0  0  0  0
   -8.9447    1.7923   25.8533 C   0  0  0  0  0  0  0  0  0  0  0  0
   -9.4405    2.9988   25.5757 C   0  0  0  0  0  0  0  0  0  0  0  0
   -8.9424    4.1117   26.2388 C   0  0  0  0  0  0  0  0  0  0  0  0
   -8.2732    6.2141   27.6484 N   0  0  0  0  0  0  0  0  0  0  0  0
   -9.1540    6.5068   26.6734 C   0  0  0  0  0  0  0  0  0  0  0  0
   -9.5312    5.3927   25.9147 C   0  0  0  0  0  0  0  0  0  0  0  0
   -7.3926    0.2681   27.0981 C   0  0  0  0  0  0  0  0  0  0  0  0
   -6.0780    0.1119   27.4650 C   0  0  0  0  0  0  0  0  0  0  0  0
   -5.5514   -1.1190   27.8199 C   0  0  0  0  0  0  0  0  0  0  0  0
   -6.3961   -2.2031   27.7643 C   0  0  0  0  0  0  0  0  0  0  0  0
   -8.0015   -0.9961   27.1588 C   0  0  0  0  0  0  0  0  0  0  0  0
   -7.6245   -2.1221   27.4675 C   0  0  0  0  0  0  0  0  0  0  0  0
   -4.0927   -1.1491   28.2435 C   0  0  0  0  0  0  0  0  0  0  0  0
   -3.8260   -0.7406   29.5780 C   0  0  2  0  0  0  0  0  0  0  0  0
   -4.0343    0.5918   29.8815 C   0  0  0  0  0  0  0  0  0  0  0  0
   -3.2789   -1.6542   30.5289 C   0  0  0  0  0  0  0  0  0  0  0  0
   -2.6068   -2.5524   30.2719 C   0  0  0  0  0  0  0  0  0  0  0  0
   -3.6369   -1.2648   31.9234 C   0  0  0  0  0  0  0  0  0  0  0  0
   -4.6452   -1.6764   32.4658 C   0  0  0  0  0  0  0  0  0  0  0  0
   -5.6037   -2.0970   32.2513 C   0  0  0  0  0  0  0  0  0  0  0  0
   -5.9644   -2.5385   30.9112 C   0  0  0  0  0  0  0  0  0  0  0  0
   -7.2859   -3.1465   30.6402 C   0  0  0  0  0  0  0  0  0  0  0  0
   -8.1931   -3.0872   31.6477 C   0  0  0  0  0  0  0  0  0  0  0  0
   -7.9692   -2.6408   32.9489 C   0  0  0  0  0  0  0  0  0  0  0  0
   -6.7686   -2.1463   33.2347 C   0  0  0  0  0  0  0  0  0  0  0  0
   -2.8675   -3.8228   30.5624 C   0  0  0  0  0  0  0  0  0  0  0  0
   -2.7504   -4.3687   31.7358 C   0  0  0  0  0  0  0  0  0  0  0  0
   -3.1138   -5.7353   32.0592 C   0  0  0  0  0  0  0  0  0  0  0  0
  1  3  1  0
  3  4  1  0
  4  5  1  0
  5  6  1  0
  6  7  1  0
  4 11  1  6
 13 17  1  0
 17 18  1  0
 18 19  1  6
 18 20  1  0
 20 21  1  0
 20 22  1  0
 22 23  1  0
 21 30  1  0
 30 31  2  3
 31 32  1  0
 23 24  1  0
  1  2  2  0
  2  8  1  0
  8  9  2  0
  9 10  1  0
 10  7  2  0
  7  1  1  0
 24 25  2  0
 25 26  1  0
 26 27  2  0
 27 28  1  0
 28 29  2  0
 29 24  1  0
 11 12  2  0
 12 13  1  0
 13 14  2  0
 14 16  1  0
 16 15  2  0
 15 11  1  0
M  END
$$$$
