No_7391-complexes_sdf/6BKW-FPZ/2024-09-17-14-21-01/
     RDKit          3D

 17 18  0  0  0  0  0  0  0  0999 V2000
   -7.9040    3.9820   27.1177 C   0  0  0  0  0  0  0  0  0  0  0  0
   -9.0711    4.3164   27.0630 C   0  0  0  0  0  0  0  0  0  0  0  0
   -9.5294    5.4517   27.7215 C   0  0  0  0  0  0  0  0  0  0  0  0
   -7.4336    2.7132   26.5681 C   0  0  0  0  0  0  0  0  0  0  0  0
   -8.3353    1.8569   26.0442 C   0  0  0  0  0  0  0  0  0  0  0  0
   -9.6477    2.2853   25.9146 C   0  0  0  0  0  0  0  0  0  0  0  0
  -10.0346    3.4497   26.4483 C   0  0  0  0  0  0  0  0  0  0  0  0
   -7.8608    0.5626   25.5840 C   0  0  2  0  0  0  0  0  0  0  0  0
   -6.6884   -0.4120   26.4204 Br  0  0  0  0  0  0  0  0  0  0  0  0
   -6.9290    4.7315   27.8451 N   0  0  0  0  0  0  0  0  0  0  0  0
   -7.2805    5.9139   28.4258 C   0  0  0  0  0  0  0  0  0  0  0  0
   -8.5766    6.3438   28.2963 C   0  0  0  0  0  0  0  0  0  0  0  0
   -8.2661    0.0691   24.2619 C   0  0  0  0  0  0  0  0  0  0  0  0
   -7.4816   -0.8374   23.6541 C   0  0  0  0  0  0  0  0  0  0  0  0
   -7.7599   -1.2519   22.2811 C   0  0  0  0  0  0  0  0  0  0  0  0
   -8.9052   -0.6676   21.6767 C   0  0  0  0  0  0  0  0  0  0  0  0
   -9.6515    0.3061   22.3661 C   0  0  0  0  0  0  0  0  0  0  0  0
  5  8  1  0
  8  9  1  6
  8 13  1  0
 13 14  2  3
 14 15  1  0
 15 16  2  3
 16 17  1  0
  2  7  1  0
  7  6  2  0
  6  5  1  0
  5  4  2  0
  4  1  1  0
  1  2  1  0
  2  3  2  0
  3 12  1  0
 12 11  2  0
 11 10  1  0
 10  1  2  0
M  END
$$$$
