No_7009-complexes_sdf/6BKW-FPZ/2024-09-17-14-21-01/
     RDKit          3D

 12 13  0  0  0  0  0  0  0  0999 V2000
   -7.9040    3.9820   27.1177 C   0  0  0  0  0  0  0  0  0  0  0  0
   -7.8663    4.8694   27.9238 C   0  0  0  0  0  0  0  0  0  0  0  0
   -9.0491    3.8523   26.2542 C   0  0  0  0  0  0  0  0  0  0  0  0
   -9.7161    4.8785   25.9890 C   0  0  0  0  0  0  0  0  0  0  0  0
   -8.4128    6.0590   27.3934 C   0  0  0  0  0  0  0  0  0  0  0  0
   -9.6166    6.0534   26.7117 C   0  0  0  0  0  0  0  0  0  0  0  0
   -7.1383    2.6626   27.4203 C   0  0  0  0  0  0  0  0  0  0  0  0
   -5.9035    2.6918   28.0366 C   0  0  0  0  0  0  0  0  0  0  0  0
   -7.6498    1.3899   27.0260 C   0  0  0  0  0  0  0  0  0  0  0  0
   -5.0697    1.5621   28.1378 C   0  0  0  0  0  0  0  0  0  0  0  0
   -6.8602    0.2525   27.2260 C   0  0  0  0  0  0  0  0  0  0  0  0
   -5.5752    0.3632   27.8113 C   0  0  0  0  0  0  0  0  0  0  0  0
  1  2  1  0
  1  3  1  0
  3  4  1  0
  2  5  1  0
  4  6  1  0
  5  6  1  0
  1  7  1  0
  7  8  2  0
  8 10  1  0
 10 12  2  0
 12 11  1  0
 11  9  2  0
  9  7  1  0
M  END
$$$$
