No_7847-complexes_sdf/6BKW-FPZ/2024-09-17-14-21-01/
     RDKit          3D

 32 35  0  0  0  0  0  0  0  0999 V2000
   -7.7129    4.2099   27.0854 C   0  0  0  0  0  0  0  0  0  0  0  0
   -8.2112    3.0637   26.9225 C   0  0  0  0  0  0  0  0  0  0  0  0
   -7.0021    4.5281   28.2396 C   0  0  0  0  0  0  0  0  0  0  0  0
   -7.5497    1.9016   27.4549 C   0  0  0  0  0  0  0  0  0  0  0  0
   -6.3013    2.1806   28.1305 C   0  0  0  0  0  0  0  0  0  0  0  0
   -5.9502    3.4905   28.4049 C   0  0  0  0  0  0  0  0  0  0  0  0
   -9.3878    2.7767   26.0795 C   0  0  0  0  0  0  0  0  0  0  0  0
  -10.3545    3.6898   25.9162 C   0  0  0  0  0  0  0  0  0  0  0  0
  -10.1730    5.0130   26.5561 C   0  0  0  0  0  0  0  0  0  0  0  0
   -8.7690    5.4264   26.8630 C   0  0  0  0  0  0  0  0  0  0  0  0
   -5.3671    1.0734   28.4082 C   0  0  0  0  0  0  0  0  0  0  0  0
   -5.6916   -0.1852   28.4504 N   0  0  0  0  0  0  0  0  0  0  0  0
   -5.2664   -1.0233   28.1026 C   0  0  0  0  0  0  0  0  0  0  0  0
   -5.8716   -2.3313   28.3160 C   0  0  0  0  0  0  0  0  0  0  0  0
   -4.1069   -1.1765   27.4832 O   0  0  0  0  0  0  0  0  0  0  0  0
   -8.3941    6.7610   26.9489 C   0  0  0  0  0  0  0  0  0  0  0  0
   -8.1724    7.9721   26.8073 N   0  0  0  0  0  0  0  0  0  0  0  0
   -9.5072    1.5117   25.3933 C   0  0  0  0  0  0  0  0  0  0  0  0
   -9.4382    1.4150   24.0642 C   0  0  0  0  0  0  0  0  0  0  0  0
   -9.4263    0.2228   23.3441 C   0  0  0  0  0  0  0  0  0  0  0  0
   -9.3092   -0.9603   23.9848 C   0  0  0  0  0  0  0  0  0  0  0  0
   -9.2741   -0.9066   25.4084 C   0  0  0  0  0  0  0  0  0  0  0  0
   -9.2755    0.2662   26.1068 C   0  0  0  0  0  0  0  0  0  0  0  0
  -11.3690    3.5289   25.2375 F   0  0  0  0  0  0  0  0  0  0  0  0
   -4.1082    1.4218   28.6232 O   0  0  0  0  0  0  0  0  0  0  0  0
   -6.2574   -2.9316   27.2913 O   0  0  0  0  0  0  0  0  0  0  0  0
   -6.2307   -2.7689   29.5311 N   0  0  0  0  0  0  0  0  0  0  0  0
   -7.0520   -3.9113   29.7858 C   0  0  0  0  0  0  0  0  0  0  0  0
   -7.7377   -3.9523   30.8506 C   0  0  0  0  0  0  0  0  0  0  0  0
   -7.5903   -2.9731   31.8847 C   0  0  0  0  0  0  0  0  0  0  0  0
   -6.6207   -1.9258   31.6630 C   0  0  0  0  0  0  0  0  0  0  0  0
   -6.0836   -1.7762   30.5276 C   0  0  0  0  0  0  0  0  0  0  0  0
  5 11  1  0
 11 12  1  0
 12 13  1  0
 13 14  1  0
 13 15  2  0
 10 16  1  0
 16 17  3  0
  7 18  1  0
  8 24  1  0
 11 25  2  0
 14 26  2  0
 14 27  1  0
 27 28  1  0
 29 30  1  0
 27 32  1  0
 31 32  1  0
 28 29  1  0
 30 31  1  0
  2  4  1  0
  4  5  2  0
  5  6  1  0
  6  3  2  0
  3  1  1  0
 18 19  2  0
 19 20  1  0
 20 21  2  0
 21 22  1  0
 22 23  2  0
 23 18  1  0
  1  2  2  0
  2  7  1  0
  7  8  2  0
  8  9  1  0
  9 10  2  0
 10  1  1  0
M  END
$$$$
