No_7005-complexes_sdf/6BKW-FPZ/2024-09-17-14-21-01/
     RDKit          3D

  9  9  0  0  0  0  0  0  0  0999 V2000
   -7.2496    3.8871   27.4508 C   0  0  0  0  0  0  0  0  0  0  0  0
   -8.5096    4.0291   27.2770 C   0  0  0  0  0  0  0  0  0  0  0  0
   -9.3451    2.8786   26.9046 C   0  0  0  0  0  0  0  0  0  0  0  0
  -10.6709    3.0505   26.6789 C   0  0  0  0  0  0  0  0  0  0  0  0
   -6.6580    2.5721   27.5327 C   0  0  0  0  0  0  0  0  0  0  0  0
   -7.4631    1.4726   27.2657 C   0  0  0  0  0  0  0  0  0  0  0  0
   -8.8003    1.6549   26.9477 C   0  0  0  0  0  0  0  0  0  0  0  0
  -11.4701    2.4379   26.9404 C   0  0  0  0  0  0  0  0  0  0  0  0
  -11.1584    1.1122   27.6890 C   0  0  0  0  0  0  0  0  0  0  0  0
  3  4  1  0
  4  8  2  3
  8  9  1  0
  1  2  2  0
  2  3  1  0
  3  7  2  0
  7  6  1  0
  6  5  2  0
  5  1  1  0
M  END
$$$$
