No_7860-complexes_sdf/6BKW-FPZ/2024-09-17-14-21-01/
     RDKit          3D

 27 29  0  0  0  0  0  0  0  0999 V2000
   -7.9040    3.9820   27.1177 C   0  0  0  0  0  0  0  0  0  0  0  0
   -8.2057    2.8231   26.8733 C   0  0  0  0  0  0  0  0  0  0  0  0
   -8.7695    5.0740   26.7916 C   0  0  0  0  0  0  0  0  0  0  0  0
   -8.4337    6.4678   27.0913 C   0  0  0  0  0  0  0  0  0  0  0  0
   -9.3742    2.4311   26.2346 C   0  0  0  0  0  0  0  0  0  0  0  0
  -10.2395    3.4267   25.8887 C   0  0  0  0  0  0  0  0  0  0  0  0
   -9.9567    4.7548   26.1374 C   0  0  0  0  0  0  0  0  0  0  0  0
   -7.9449    7.5014   26.9590 N   0  0  0  0  0  0  0  0  0  0  0  0
   -7.2426    1.6814   27.2966 C   0  0  0  0  0  0  0  0  0  0  0  0
   -7.5605    0.4601   27.2835 O   0  0  0  0  0  0  0  0  0  0  0  0
   -5.9141    2.0087   27.5825 O   0  0  0  0  0  0  0  0  0  0  0  0
   -5.0319    1.0199   27.9903 C   0  0  0  0  0  0  0  0  0  0  0  0
   -4.4942    0.2700   27.1181 C   0  0  0  0  0  0  0  0  0  0  0  0
   -3.1343    0.0392   27.4141 C   0  0  0  0  0  0  0  0  0  0  0  0
   -2.4221   -0.6673   26.3776 C   0  0  0  0  0  0  0  0  0  0  0  0
   -3.1367   -1.3892   25.4202 C   0  0  0  0  0  0  0  0  0  0  0  0
   -4.5317   -1.1655   25.3234 C   0  0  0  0  0  0  0  0  0  0  0  0
   -5.2008   -0.3526   26.1813 C   0  0  0  0  0  0  0  0  0  0  0  0
   -5.1651   -1.8571   24.1661 C   0  0  0  0  0  0  0  0  0  0  0  0
   -5.8955   -1.2449   23.4361 O   0  0  0  0  0  0  0  0  0  0  0  0
   -5.1338   -3.1926   24.0713 N   0  0  0  0  0  0  0  0  0  0  0  0
   -5.8161   -3.8898   23.0108 C   0  0  0  0  0  0  0  0  0  0  0  0
   -6.4518   -4.9601   23.4526 C   0  0  0  0  0  0  0  0  0  0  0  0
   -7.4698   -5.3283   23.2222 C   0  0  0  0  0  0  0  0  0  0  0  0
   -8.3843   -4.4449   22.5225 C   0  0  0  0  0  0  0  0  0  0  0  0
   -7.7993   -3.3473   21.8162 C   0  0  0  0  0  0  0  0  0  0  0  0
   -6.4859   -2.9615   22.2352 C   0  0  0  0  0  0  0  0  0  0  0  0
  3  4  1  0
  4  8  3  0
  2  9  1  0
  9 10  2  0
  9 11  1  0
 11 12  1  0
 12 13  1  0
 17 19  1  0
 19 20  2  0
 19 21  1  0
 21 22  1  0
 13 14  2  0
 14 15  1  0
 15 16  2  0
 16 17  1  0
 17 18  2  0
 18 13  1  0
 22 23  2  0
 23 24  1  0
 24 25  2  0
 25 26  1  0
 26 27  2  0
 27 22  1  0
  1  2  2  0
  2  5  1  0
  5  6  2  0
  6  7  1  0
  7  3  2  0
  3  1  1  0
M  END
$$$$
