No_7895-complexes_sdf/6BKW-FPZ/2024-09-17-14-21-01/
     RDKit          3D

 18 19  0  0  0  0  0  0  0  0999 V2000
   -7.7129    4.2099   27.0854 C   0  0  0  0  0  0  0  0  0  0  0  0
   -7.7814    5.1722   27.8972 C   0  0  0  0  0  0  0  0  0  0  0  0
   -8.8776    3.8408   26.3416 C   0  0  0  0  0  0  0  0  0  0  0  0
   -9.9844    4.6492   26.4743 C   0  0  0  0  0  0  0  0  0  0  0  0
   -8.7830    6.1594   27.8870 C   0  0  0  0  0  0  0  0  0  0  0  0
   -9.9269    5.8191   27.1183 C   0  0  0  0  0  0  0  0  0  0  0  0
   -8.8798    2.6033   25.5707 C   0  0  0  0  0  0  0  0  0  0  0  0
   -8.2954    1.4576   26.2000 C   0  0  0  0  0  0  0  0  0  0  0  0
   -8.1064    0.2967   25.5275 C   0  0  0  0  0  0  0  0  0  0  0  0
   -7.4002   -0.7131   26.1446 C   0  0  0  0  0  0  0  0  0  0  0  0
   -6.8632   -0.5737   27.4518 C   0  0  0  0  0  0  0  0  0  0  0  0
   -6.9544    0.7035   28.0301 C   0  0  0  0  0  0  0  0  0  0  0  0
   -7.6008    1.7176   27.4474 C   0  0  0  0  0  0  0  0  0  0  0  0
  -11.1218    4.3871   25.6017 C   0  0  0  0  0  0  0  0  0  0  0  0
  -12.2413    3.8389   26.0430 C   0  0  0  0  0  0  0  0  0  0  0  0
  -12.3650    3.6163   27.5070 C   0  0  0  0  0  0  0  0  0  0  0  0
  -13.5697    3.1247   28.0622 C   0  0  0  0  0  0  0  0  0  0  0  0
  -14.5173    2.7243   27.1693 C   0  0  0  0  0  0  0  0  0  0  0  0
  3  7  1  0
  7  8  1  0
  4 14  1  0
 14 15  2  3
 15 16  1  0
 16 17  2  3
 17 18  1  0
  8  9  2  0
  9 10  1  0
 10 11  2  0
 11 12  1  0
 12 13  2  0
 13  8  1  0
  1  2  2  0
  2  5  1  0
  5  6  2  0
  6  4  1  0
  4  3  2  0
  3  1  1  0
M  END
$$$$
