No_7323-complexes_sdf/6BKW-FPZ/2024-09-17-14-21-01/
     RDKit          3D

 22 23  0  0  0  0  0  0  0  0999 V2000
   -7.9040    3.9820   27.1177 C   0  0  0  0  0  0  0  0  0  0  0  0
   -9.0711    4.3164   27.0630 C   0  0  0  0  0  0  0  0  0  0  0  0
   -9.8698    3.9665   25.9495 C   0  0  0  0  0  0  0  0  0  0  0  0
   -7.4981    2.6202   26.7684 C   0  0  0  0  0  0  0  0  0  0  0  0
   -9.5665    2.7013   25.4103 C   0  0  0  0  0  0  0  0  0  0  0  0
   -8.3540    2.0892   25.7993 C   0  0  0  0  0  0  0  0  0  0  0  0
   -7.0853    4.4985   28.0813 F   0  0  0  0  0  0  0  0  0  0  0  0
  -10.3280    1.9470   24.4537 C   0  0  0  0  0  0  0  0  0  0  0  0
  -10.8331    2.5507   23.4009 C   0  0  0  0  0  0  0  0  0  0  0  0
  -11.2419    2.4262   22.4719 C   0  0  0  0  0  0  0  0  0  0  0  0
  -11.7669    3.3072   21.3503 C   0  0  0  0  0  0  0  0  0  0  0  0
  -11.6847    4.6754   21.6744 C   0  0  0  0  0  0  0  0  0  0  0  0
  -11.1410    5.0369   22.8403 C   0  0  0  0  0  0  0  0  0  0  0  0
  -10.6445    4.1665   23.7462 C   0  0  0  0  0  0  0  0  0  0  0  0
  -10.0514    4.8588   25.3574 Br  0  0  0  0  0  0  0  0  0  0  0  0
   -9.7460    4.3960   23.2880 Cl  0  0  0  0  0  0  0  0  0  0  0  0
   -6.3776    1.9209   27.3849 C   0  0  1  0  0  0  0  0  0  0  0  0
   -5.4377    2.4717   28.1111 N   0  0  0  0  0  0  0  0  0  0  0  0
   -6.5265    0.4805   27.5520 C   0  0  0  0  0  0  0  0  0  0  0  0
   -7.5062   -0.2676   27.2317 C   0  0  0  0  0  0  0  0  0  0  0  0
   -7.4657   -1.6448   27.4509 C   0  0  0  0  0  0  0  0  0  0  0  0
   -6.3677   -2.1461   28.0559 C   0  0  0  0  0  0  0  0  0  0  0  0
  1  7  1  0
  5  8  1  0
  3 15  1  0
 14 16  1  0
  4 17  1  0
 17 18  1  1
 17 19  1  0
 19 20  2  3
 20 21  1  0
 21 22  2  0
  8  9  1  0
  1  2  2  0
  2  3  1  0
  3  5  2  0
  5  6  1  0
  6  4  2  0
  4  1  1  0
  9 10  2  0
 10 11  1  0
 11 12  2  0
 12 13  1  0
 13 14  2  0
 14  9  1  0
M  END
$$$$
