No_7017-complexes_sdf/6BKW-FPZ/2024-09-17-14-21-01/
     RDKit          3D

 39 44  0  0  0  0  0  0  0  0999 V2000
   -7.2496    3.8871   27.4508 C   0  0  0  0  0  0  0  0  0  0  0  0
   -8.5096    4.0291   27.2770 C   0  0  0  0  0  0  0  0  0  0  0  0
   -9.3502    2.8685   26.8763 C   0  0  0  0  0  0  0  0  0  0  0  0
   -6.6288    2.5513   27.4938 C   0  0  0  0  0  0  0  0  0  0  0  0
   -7.4365    1.4714   27.2032 C   0  0  0  0  0  0  0  0  0  0  0  0
   -8.7772    1.6579   26.9338 C   0  0  0  0  0  0  0  0  0  0  0  0
   -9.1078    5.3660   27.2249 C   0  0  0  0  0  0  0  0  0  0  0  0
   -8.7000    6.1682   26.4702 F   0  0  0  0  0  0  0  0  0  0  0  0
   -9.0805    5.9237   28.5737 F   0  0  0  0  0  0  0  0  0  0  0  0
  -10.5464    5.1938   27.0705 F   0  0  0  0  0  0  0  0  0  0  0  0
   -6.7897    0.1927   27.1592 C   0  0  0  0  0  0  0  0  0  0  0  0
   -5.5835   -0.0827   27.8181 C   0  0  0  0  0  0  0  0  0  0  0  0
   -4.9728   -1.3439   27.8208 C   0  0  0  0  0  0  0  0  0  0  0  0
   -5.6062   -2.3038   27.0311 C   0  0  0  0  0  0  0  0  0  0  0  0
   -7.2041   -0.9810   26.5490 C   0  0  0  0  0  0  0  0  0  0  0  0
   -6.6983   -2.1325   26.4533 C   0  0  0  0  0  0  0  0  0  0  0  0
   -3.6826   -1.5021   28.5770 C   0  0  0  0  0  0  0  0  0  0  0  0
   -3.3502   -0.6464   29.5737 C   0  0  0  0  0  0  0  0  0  0  0  0
   -2.2383   -0.8513   30.4295 C   0  0  0  0  0  0  0  0  0  0  0  0
   -1.3439   -1.8145   30.0969 C   0  0  0  0  0  0  0  0  0  0  0  0
   -1.6021   -2.6220   29.0252 C   0  0  0  0  0  0  0  0  0  0  0  0
   -2.7748   -2.5078   28.2769 C   0  0  0  0  0  0  0  0  0  0  0  0
   -4.1681    0.4330   29.9752 O   0  0  0  0  0  0  0  0  0  0  0  0
   -3.7945    1.0597   31.2199 C   0  0  0  0  0  0  0  0  0  0  0  0
   -2.7203    0.1195   31.6997 C   0  0  1  0  0  0  0  0  0  0  0  0
   -2.9989   -0.6829   32.7984 O   0  0  0  0  0  0  0  0  0  0  0  0
   -2.2040   -0.5689   33.9098 C   0  0  1  0  0  0  0  0  0  0  0  0
   -2.9520   -0.8634   35.1604 C   0  0  2  0  0  0  0  0  0  0  0  0
   -2.3110   -1.7750   35.8751 C   0  0  0  0  0  0  0  0  0  0  0  0
   -0.9808   -1.8193   35.7888 C   0  0  0  0  0  0  0  0  0  0  0  0
   -0.3371   -1.7619   34.4907 C   0  0  0  0  0  0  0  0  0  0  0  0
   -0.9561   -0.5869   33.7420 O   0  0  0  0  0  0  0  0  0  0  0  0
   -0.1112   -2.3895   36.8312 N   0  0  0  0  0  0  0  0  0  0  0  0
   -0.3248   -3.4435   37.4890 C   0  0  0  0  0  0  0  0  0  0  0  0
    0.5674   -3.7902   38.5292 C   0  0  0  0  0  0  0  0  0  0  0  0
    1.0660   -1.6522   37.2075 C   0  0  0  0  0  0  0  0  0  0  0  0
    1.9121   -1.9538   38.1687 C   0  0  0  0  0  0  0  0  0  0  0  0
    1.6442   -3.0893   38.8948 C   0  0  0  0  0  0  0  0  0  0  0  0
   -4.2226   -0.5268   35.2554 O   0  0  0  0  0  0  0  0  0  0  0  0
  2  7  1  0
  7  8  1  0
  7  9  1  0
  7 10  1  0
  5 11  1  0
 13 17  1  0
 18 23  1  0
 23 24  1  0
 19 25  1  0
 24 25  1  0
 25 26  1  1
 27 26  1  6
 27 28  1  0
 28 29  1  0
 29 30  1  0
 30 31  2  0
 27 32  1  0
 31 32  1  0
 30 33  1  0
 33 34  1  0
 33 36  1  0
 35 38  1  0
 37 38  1  0
 28 39  1  6
 34 35  1  0
 37 36  1  0
 17 18  2  0
 18 19  1  0
 19 20  2  0
 20 21  1  0
 21 22  2  0
 22 17  1  0
  1  2  2  0
  2  3  1  0
  3  6  2  0
  6  5  1  0
  5  4  2  0
  4  1  1  0
 11 12  2  0
 12 13  1  0
 13 14  2  0
 14 16  1  0
 16 15  2  0
 15 11  1  0
M  END
$$$$
