No_7588-complexes_sdf/6BKW-FPZ/2024-09-17-14-21-01/
     RDKit          3D

 35 40  0  0  0  0  0  0  0  0999 V2000
   -7.9040    3.9820   27.1177 C   0  0  0  0  0  0  0  0  0  0  0  0
   -8.2057    2.8231   26.8733 C   0  0  0  0  0  0  0  0  0  0  0  0
   -7.0130    4.3706   28.1140 C   0  0  0  0  0  0  0  0  0  0  0  0
   -7.3740    1.7588   27.2586 C   0  0  0  0  0  0  0  0  0  0  0  0
   -7.6741    0.4151   27.0228 C   0  0  0  0  0  0  0  0  0  0  0  0
   -5.9145    3.4662   28.2776 C   0  0  0  0  0  0  0  0  0  0  0  0
   -6.1777    2.1014   27.9931 C   0  0  0  0  0  0  0  0  0  0  0  0
   -7.0305   -0.5435   27.3074 N   0  0  0  0  0  0  0  0  0  0  0  0
   -9.0660    0.1708   26.7118 C   0  0  0  0  0  0  0  0  0  0  0  0
   -5.7185   -0.5317   27.6788 C   0  0  0  0  0  0  0  0  0  0  0  0
   -5.2168    0.8313   28.0730 C   0  0  0  0  0  0  0  0  0  0  0  0
   -8.9396    5.1323   26.7609 C   0  0  0  0  0  0  0  0  0  0  0  0
   -9.5159    5.1100   25.4732 C   0  0  0  0  0  0  0  0  0  0  0  0
   -8.9909    6.3662   27.4751 C   0  0  0  0  0  0  0  0  0  0  0  0
   -9.7057   -0.7612   27.2204 C   0  0  0  0  0  0  0  0  0  0  0  0
  -11.1440   -0.9715   27.0313 C   0  0  0  0  0  0  0  0  0  0  0  0
  -11.7555   -0.1051   26.1627 C   0  0  0  0  0  0  0  0  0  0  0  0
  -11.0843    0.9060   25.5915 C   0  0  0  0  0  0  0  0  0  0  0  0
   -9.7766    1.1103   25.8468 C   0  0  0  0  0  0  0  0  0  0  0  0
   -3.9017    1.1050   28.6865 C   0  0  0  0  0  0  0  0  0  0  0  0
   -3.2570   -0.2196   28.9426 C   0  0  0  0  0  0  0  0  0  0  0  0
   -2.3832   -0.3677   29.7003 C   0  0  0  0  0  0  0  0  0  0  0  0
   -1.6669   -1.6081   29.9550 C   0  0  0  0  0  0  0  0  0  0  0  0
   -2.0260   -2.5966   29.0511 C   0  0  0  0  0  0  0  0  0  0  0  0
   -2.9694   -2.4384   28.1341 C   0  0  0  0  0  0  0  0  0  0  0  0
   -3.5819   -1.1935   28.0204 C   0  0  0  0  0  0  0  0  0  0  0  0
   -4.7464   -1.1954   27.3940 N   0  0  0  0  0  0  0  0  0  0  0  0
   -5.0545   -2.2746   26.4378 C   0  0  0  0  0  0  0  0  0  0  0  0
   -6.1067   -2.0654   25.5641 C   0  0  0  0  0  0  0  0  0  0  0  0
   -5.7751   -1.4908   24.3576 C   0  0  0  0  0  0  0  0  0  0  0  0
   -6.7250   -1.2465   23.3332 C   0  0  0  0  0  0  0  0  0  0  0  0
   -8.0787   -1.5419   23.5766 C   0  0  0  0  0  0  0  0  0  0  0  0
   -8.3712   -2.2318   24.8600 C   0  0  0  0  0  0  0  0  0  0  0  0
   -7.3726   -2.4560   25.7691 C   0  0  0  0  0  0  0  0  0  0  0  0
   -4.6839   -3.4759   26.5115 O   0  0  0  0  0  0  0  0  0  0  0  0
  5  9  1  0
  1 12  1  0
 12 13  1  0
 12 14  1  0
 11 20  1  0
 10 27  1  0
 26 27  1  0
 27 28  1  0
 28 29  1  0
 28 35  2  0
 20 21  1  0
  1  2  2  0
  2  4  1  0
  7  6  1  0
  6  3  2  0
  3  1  1  0
  4  5  2  0
  5  8  1  0
  8 10  2  0
 10 11  1  0
 11  7  2  0
  7  4  1  0
  9 15  2  0
 15 16  1  0
 16 17  2  0
 17 18  1  0
 18 19  2  0
 19  9  1  0
 29 30  2  0
 30 31  1  0
 31 32  2  0
 32 33  1  0
 33 34  2  0
 34 29  1  0
 21 22  2  0
 22 23  1  0
 23 24  2  0
 24 25  1  0
 25 26  2  0
 26 21  1  0
M  END
$$$$
