No_7597-complexes_sdf/6BKW-FPZ/2024-09-17-14-21-01/
     RDKit          3D

 28 30  0  0  0  0  0  0  0  0999 V2000
   -7.7129    4.2099   27.0854 C   0  0  0  0  0  0  0  0  0  0  0  0
   -7.7814    5.1722   27.8972 C   0  0  0  0  0  0  0  0  0  0  0  0
   -7.2983    2.9533   27.5684 C   0  0  0  0  0  0  0  0  0  0  0  0
   -7.6908    1.8111   26.9553 C   0  0  1  0  0  0  0  0  0  0  0  0
   -8.6533    1.9165   25.9430 C   0  0  0  0  0  0  0  0  0  0  0  0
   -9.2376    3.0581   25.6387 C   0  0  1  0  0  0  0  0  0  0  0  0
   -8.8901    4.1760   26.2867 C   0  0  0  0  0  0  0  0  0  0  0  0
   -8.2313    6.2997   27.8103 N   0  0  0  0  0  0  0  0  0  0  0  0
   -9.2168    6.5979   26.8458 C   0  0  0  0  0  0  0  0  0  0  0  0
   -9.5483    5.4532   26.0021 C   0  0  0  0  0  0  0  0  0  0  0  0
   -7.0321    0.5341   27.2088 C   0  0  0  0  0  0  0  0  0  0  0  0
   -5.7883    0.4763   27.8652 C   0  0  0  0  0  0  0  0  0  0  0  0
   -5.1858   -0.7346   28.1705 C   0  0  0  0  0  0  0  0  0  0  0  0
   -5.8813   -1.8787   27.9355 C   0  0  0  0  0  0  0  0  0  0  0  0
   -7.5352   -0.7448   27.0992 C   0  0  0  0  0  0  0  0  0  0  0  0
   -7.0875   -1.8690   27.4436 C   0  0  0  0  0  0  0  0  0  0  0  0
   -3.8216   -0.6691   28.8603 C   0  0  0  0  0  0  0  0  0  0  0  0
   -3.2398    0.4570   28.8795 O   0  0  0  0  0  0  0  0  0  0  0  0
   -3.5109   -1.6024   29.7424 N   0  0  0  0  0  0  0  0  0  0  0  0
   -2.2545   -1.5573   30.4761 C   0  0  0  0  0  0  0  0  0  0  0  0
   -1.4330   -2.3036   29.9746 C   0  0  0  0  0  0  0  0  0  0  0  0
   -0.7840   -1.9918   28.8592 C   0  0  0  0  0  0  0  0  0  0  0  0
   -1.1786   -0.9225   28.0908 C   0  0  0  0  0  0  0  0  0  0  0  0
  -10.1035    3.0698   24.6533 F   0  0  0  0  0  0  0  0  0  0  0  0
   -0.8621    0.0720   27.9583 C   0  0  0  0  0  0  0  0  0  0  0  0
   -1.2208    1.1283   27.0090 C   0  0  0  0  0  0  0  0  0  0  0  0
   -2.4579    0.8487   26.3430 C   0  0  0  0  0  0  0  0  0  0  0  0
   -2.8939   -0.4283   26.2462 C   0  0  0  0  0  0  0  0  0  0  0  0
  1  3  1  0
  3  4  1  0
  4  5  1  0
  5  6  1  0
  6  7  1  0
  4 11  1  6
 13 17  1  0
 17 18  2  0
 17 19  1  0
 19 20  1  0
 20 21  2  3
 21 22  1  0
 22 23  2  3
  6 24  1  6
 23 25  1  0
 25 26  1  0
 26 27  2  3
 27 28  1  0
  1  2  2  0
  2  8  1  0
  8  9  2  0
  9 10  1  0
 10  7  2  0
  7  1  1  0
 11 12  2  0
 12 13  1  0
 13 14  2  0
 14 16  1  0
 16 15  2  0
 15 11  1  0
M  END
$$$$
