No_7879-complexes_sdf/6BKW-FPZ/2024-09-17-14-21-01/
     RDKit          3D

 18 19  0  0  0  0  0  0  0  0999 V2000
   -7.9040    3.9820   27.1177 C   0  0  0  0  0  0  0  0  0  0  0  0
   -8.2057    2.8231   26.8733 C   0  0  0  0  0  0  0  0  0  0  0  0
   -7.0130    4.3706   28.1140 C   0  0  0  0  0  0  0  0  0  0  0  0
   -9.3829    2.4374   26.1668 C   0  0  0  0  0  0  0  0  0  0  0  0
  -10.0975    3.4171   25.5988 C   0  0  0  0  0  0  0  0  0  0  0  0
   -9.7335    4.7745   25.7705 C   0  0  0  0  0  0  0  0  0  0  0  0
   -8.7317    5.1107   26.5933 C   0  0  0  0  0  0  0  0  0  0  0  0
   -8.5518    6.9029   26.9158 Br  0  0  0  0  0  0  0  0  0  0  0  0
   -7.5377    1.7913   27.4460 F   0  0  0  0  0  0  0  0  0  0  0  0
  -11.0717    3.2713   24.5259 C   0  0  0  0  0  0  0  0  0  0  0  0
  -12.3109    3.0143   25.0202 C   0  0  0  0  0  0  0  0  0  0  0  0
  -10.7755    3.2540   23.1826 C   0  0  0  0  0  0  0  0  0  0  0  0
  -11.6804    3.1225   22.1627 C   0  0  0  0  0  0  0  0  0  0  0  0
  -13.3685    2.8658   23.9677 C   0  0  0  0  0  0  0  0  0  0  0  0
  -13.0269    2.9422   22.6191 C   0  0  0  0  0  0  0  0  0  0  0  0
   -9.6521    1.0376   25.7981 C   0  0  0  0  0  0  0  0  0  0  0  0
  -10.2822    0.2508   26.6330 C   0  0  0  0  0  0  0  0  0  0  0  0
  -10.5043   -1.1093   26.4603 C   0  0  0  0  0  0  0  0  0  0  0  0
  7  8  1  0
  2  9  1  0
  5 10  1  0
  4 16  1  0
 16 17  2  3
 17 18  1  0
  3  1  1  0
 10 11  2  0
 11 14  1  0
 14 15  2  0
 15 13  1  0
 13 12  2  0
 12 10  1  0
  1  2  2  0
  2  4  1  0
  4  5  2  0
  5  6  1  0
  6  7  2  0
  7  1  1  0
M  END
$$$$
