No_7041-complexes_sdf/6BKW-FPZ/2024-09-17-14-21-01/
     RDKit          3D

 18 18  0  0  0  0  0  0  0  0999 V2000
   -7.9040    3.9820   27.1177 C   0  0  0  0  0  0  0  0  0  0  0  0
   -8.2057    2.8231   26.8733 C   0  0  0  0  0  0  0  0  0  0  0  0
   -7.4766    1.7477   27.4593 C   0  0  0  0  0  0  0  0  0  0  0  0
   -8.7468    5.1251   26.6967 C   0  0  0  0  0  0  0  0  0  0  0  0
   -9.7234    4.8589   25.8202 C   0  0  0  0  0  0  0  0  0  0  0  0
   -9.9711    3.5858   25.4266 C   0  0  0  0  0  0  0  0  0  0  0  0
   -9.2266    2.4957   25.9600 C   0  0  0  0  0  0  0  0  0  0  0  0
   -6.7828    1.1562   26.8573 F   0  0  0  0  0  0  0  0  0  0  0  0
   -8.3986    6.5180   27.0601 C   0  0  0  0  0  0  0  0  0  0  0  0
   -8.6119    6.7689   28.2351 F   0  0  0  0  0  0  0  0  0  0  0  0
   -8.1490    7.4118   26.2471 F   0  0  0  0  0  0  0  0  0  0  0  0
   -6.6610    2.3256   28.5265 F   0  0  0  0  0  0  0  0  0  0  0  0
   -8.3665    0.9491   28.0919 F   0  0  0  0  0  0  0  0  0  0  0  0
  -11.0124    3.3180   24.4198 C   0  0  0  0  0  0  0  0  0  0  0  0
  -12.2293    3.0411   24.8684 C   0  0  0  0  0  0  0  0  0  0  0  0
  -12.5038    2.8961   26.2554 C   0  0  0  0  0  0  0  0  0  0  0  0
  -13.8560    2.5983   26.7018 C   0  0  0  0  0  0  0  0  0  0  0  0
  -14.8200    2.4549   25.7444 C   0  0  0  0  0  0  0  0  0  0  0  0
  2  3  1  0
  3  8  1  0
  4  9  1  0
  9 10  1  0
  9 11  1  0
  3 12  1  0
  3 13  1  0
  6 14  1  0
 14 15  2  3
 15 16  1  0
 16 17  2  3
 17 18  1  0
  1  2  2  0
  2  7  1  0
  7  6  2  0
  6  5  1  0
  5  4  2  0
  4  1  1  0
M  END
$$$$
