No_745-complexes_sdf/6BKW-FPZ/2024-09-17-14-21-01/
     RDKit          3D

 17 18  0  0  0  0  0  0  0  0999 V2000
   -7.7129    4.2099   27.0854 C   0  0  0  0  0  0  0  0  0  0  0  0
   -7.7814    5.1722   27.8972 C   0  0  0  0  0  0  0  0  0  0  0  0
   -7.2983    2.9533   27.5684 C   0  0  0  0  0  0  0  0  0  0  0  0
   -7.6908    1.8111   26.9553 C   0  0  0  0  0  0  0  0  0  0  0  0
   -8.6533    1.9165   25.9430 C   0  0  0  0  0  0  0  0  0  0  0  0
   -9.2376    3.0581   25.6387 C   0  0  0  0  0  0  0  0  0  0  0  0
   -8.8901    4.1760   26.2867 C   0  0  0  0  0  0  0  0  0  0  0  0
   -8.2530    6.3165   27.8141 N   0  0  0  0  0  0  0  0  0  0  0  0
   -9.2375    6.5945   26.8434 C   0  0  0  0  0  0  0  0  0  0  0  0
   -9.5601    5.4557   26.0132 C   0  0  0  0  0  0  0  0  0  0  0  0
   -7.0239    0.5274   27.2099 C   0  0  1  0  0  0  0  0  0  0  0  0
   -5.9198    0.4864   27.9148 N   0  0  0  0  0  0  0  0  0  0  0  0
   -5.1239   -0.2474   28.0531 C   0  0  0  0  0  0  0  0  0  0  0  0
   -5.4267   -1.5802   27.7002 C   0  0  0  0  0  0  0  0  0  0  0  0
   -7.7120   -0.6491   27.2361 C   0  0  0  0  0  0  0  0  0  0  0  0
   -6.8286   -1.8094   27.2916 C   0  0  0  0  0  0  0  0  0  0  0  0
   -7.3612   -3.1044   27.0233 C   0  0  0  0  0  0  0  0  0  0  0  0
  4 11  1  0
 11 12  1  0
 12 13  2  3
 13 14  1  0
 11 15  1  1
 15 16  1  0
 16 17  2  0
  1  2  2  0
  2  8  1  0
  8  9  2  0
  9 10  1  0
 10  7  2  0
  1  3  1  0
  3  4  2  0
  4  5  1  0
  5  6  2  0
  6  7  1  0
  7  1  1  0
M  END
$$$$
