No_7610-complexes_sdf/6BKW-FPZ/2024-09-17-14-21-01/
     RDKit          3D

 14 14  0  0  0  0  0  0  0  0999 V2000
   -7.7129    4.2099   27.0854 C   0  0  0  0  0  0  0  0  0  0  0  0
   -8.9133    4.4736   27.0998 C   0  0  0  0  0  0  0  0  0  0  0  0
   -9.8363    3.8127   27.2418 C   0  0  0  0  0  0  0  0  0  0  0  0
   -7.2995    2.8520   27.3808 C   0  0  0  0  0  0  0  0  0  0  0  0
   -8.3404    1.9507   27.4989 C   0  0  0  0  0  0  0  0  0  0  0  0
  -11.2701    4.1623   27.2136 C   0  0  0  0  0  0  0  0  0  0  0  0
   -9.6402    2.4062   27.4900 C   0  0  0  0  0  0  0  0  0  0  0  0
  -12.1938    4.5117   26.5309 Cl  0  0  0  0  0  0  0  0  0  0  0  0
   -5.9373    2.3933   27.4737 C   0  0  0  0  0  0  0  0  0  0  0  0
   -5.6164    1.0979   27.4399 N   0  0  0  0  0  0  0  0  0  0  0  0
   -4.3391    0.7935   27.8458 C   0  0  0  0  0  0  0  0  0  0  0  0
   -4.0032   -0.5117   28.0423 C   0  0  0  0  0  0  0  0  0  0  0  0
   -4.4575   -1.4038   27.9308 C   0  0  0  0  0  0  0  0  0  0  0  0
   -5.8691   -1.2164   27.2942 C   0  0  0  0  0  0  0  0  0  0  0  0
  3  6  1  0
  6  8  1  0
  4  9  1  0
  9 10  2  3
 10 11  1  0
 11 12  1  0
 12 13  2  3
 13 14  1  0
  1  2  2  0
  2  3  1  0
  3  7  2  0
  7  5  1  0
  5  4  2  0
  4  1  1  0
M  END
$$$$
