No_7896-complexes_sdf/6BKW-FPZ/2024-09-17-14-21-01/
     RDKit          3D

 27 30  0  0  0  0  0  0  0  0999 V2000
   -7.9040    3.9820   27.1177 C   0  0  0  0  0  0  0  0  0  0  0  0
   -9.0711    4.3164   27.0630 C   0  0  0  0  0  0  0  0  0  0  0  0
   -9.9692    3.7224   26.1073 C   0  0  0  0  0  0  0  0  0  0  0  0
   -7.4776    2.6994   26.6283 C   0  0  0  0  0  0  0  0  0  0  0  0
   -8.4406    1.9440   25.9776 C   0  0  0  0  0  0  0  0  0  0  0  0
   -9.6379    2.5001   25.6881 C   0  0  0  0  0  0  0  0  0  0  0  0
   -6.7701    4.7886   28.1891 Cl  0  0  0  0  0  0  0  0  0  0  0  0
  -10.5973    1.7372   24.8197 C   0  0  0  0  0  0  0  0  0  0  0  0
  -10.8736    2.1481   23.6065 C   0  0  0  0  0  0  0  0  0  0  0  0
  -11.7508    1.4487   22.7161 C   0  0  0  0  0  0  0  0  0  0  0  0
  -12.2599    0.2263   23.1714 C   0  0  0  0  0  0  0  0  0  0  0  0
  -11.0600    0.4797   25.1760 C   0  0  0  0  0  0  0  0  0  0  0  0
  -11.8836   -0.2305   24.3966 C   0  0  0  0  0  0  0  0  0  0  0  0
  -10.3698    3.4921   23.0289 C   0  0  0  0  0  0  0  0  0  0  0  0
  -10.5390    3.7627   21.7756 N   0  0  0  0  0  0  0  0  0  0  0  0
   -9.9009    4.3659   23.8130 F   0  0  0  0  0  0  0  0  0  0  0  0
  -10.1886    5.0754   21.3771 C   0  0  0  0  0  0  0  0  0  0  0  0
  -12.4599   -1.5254   24.8784 C   0  0  0  0  0  0  0  0  0  0  0  0
  -12.2565   -2.0150   25.9991 N   0  0  0  0  0  0  0  0  0  0  0  0
  -13.1946   -2.1866   24.0946 O   0  0  0  0  0  0  0  0  0  0  0  0
  -12.7401   -3.2406   26.5668 C   0  0  0  0  0  0  0  0  0  0  0  0
  -12.4123   -3.4777   27.7198 C   0  0  0  0  0  0  0  0  0  0  0  0
  -11.5406   -2.6384   28.5797 C   0  0  0  0  0  0  0  0  0  0  0  0
  -11.0750   -1.4210   27.9530 C   0  0  0  0  0  0  0  0  0  0  0  0
  -11.3688   -1.1218   26.8995 C   0  0  0  0  0  0  0  0  0  0  0  0
  -10.9024    0.0250   26.3319 N   0  0  0  0  0  0  0  0  0  0  0  0
   -9.4866    5.7840   27.5211 C   0  0  0  0  0  0  0  0  0  0  0  0
  1  7  1  0
  6  8  1  0
  9 14  1  0
 14 15  2  3
 14 16  1  0
 15 17  1  0
 13 18  1  0
 18 19  1  0
 18 20  2  0
 19 21  1  0
 22 23  1  0
 19 25  1  0
 24 25  1  0
 12 26  1  0
 25 26  1  0
  2 27  1  0
 21 22  1  0
 23 24  1  0
  1  2  2  0
  2  3  1  0
  3  6  2  0
  6  5  1  0
  5  4  2  0
  4  1  1  0
  8  9  2  0
  9 10  1  0
 10 11  2  0
 11 13  1  0
 13 12  2  0
 12  8  1  0
M  END
$$$$
