No_7087-complexes_sdf/6BKW-FPZ/2024-09-17-14-21-01/
     RDKit          3D

 29 33  0  0  0  0  0  0  0  0999 V2000
   -7.9040    3.9820   27.1177 C   0  0  0  0  0  0  0  0  0  0  0  0
   -7.8663    4.8694   27.9238 C   0  0  0  0  0  0  0  0  0  0  0  0
   -9.0501    3.8017   26.2617 C   0  0  0  0  0  0  0  0  0  0  0  0
  -10.0189    4.7608   26.3707 C   0  0  0  0  0  0  0  0  0  0  0  0
   -8.6973    5.9722   27.8968 C   0  0  0  0  0  0  0  0  0  0  0  0
   -9.8216    5.8946   27.1241 C   0  0  0  0  0  0  0  0  0  0  0  0
   -9.1445    2.6271   25.4265 C   0  0  1  0  0  0  0  0  0  0  0  0
   -8.6278    1.4932   25.7983 N   0  0  0  0  0  0  0  0  0  0  0  0
   -9.0588    0.5466   26.0314 C   0  0  0  0  0  0  0  0  0  0  0  0
  -10.4047    0.3286   26.0633 C   0  0  1  0  0  0  0  0  0  0  0  0
   -8.3630   -0.5973   26.3942 O   0  0  0  0  0  0  0  0  0  0  0  0
  -10.8372   -0.7545   26.4575 C   0  0  0  0  0  0  0  0  0  0  0  0
  -11.2503   -1.2058   27.3313 C   0  0  0  0  0  0  0  0  0  0  0  0
  -11.4186   -0.2630   28.5772 C   0  0  0  0  0  0  0  0  0  0  0  0
  -11.4878    1.1081   28.2884 C   0  0  0  0  0  0  0  0  0  0  0  0
  -10.7786    1.4458   27.0540 C   0  0  0  0  0  0  0  0  0  0  0  0
  -11.1357    0.8712   24.8569 C   0  0  0  0  0  0  0  0  0  0  0  0
  -10.0409    2.6303   24.3097 C   0  0  0  0  0  0  0  0  0  0  0  0
  -10.5913    1.5113   24.0552 C   0  0  0  0  0  0  0  0  0  0  0  0
  -10.5570   -1.9729   25.6557 C   0  0  0  0  0  0  0  0  0  0  0  0
  -11.1985   -3.0216   25.6766 C   0  0  0  0  0  0  0  0  0  0  0  0
  -11.6995   -2.4658   27.7795 C   0  0  0  0  0  0  0  0  0  0  0  0
  -11.6780   -3.4369   26.9189 C   0  0  0  0  0  0  0  0  0  0  0  0
  -12.4535    0.2843   24.6266 C   0  0  0  0  0  0  0  0  0  0  0  0
  -13.4348    1.1610   24.3511 C   0  0  0  0  0  0  0  0  0  0  0  0
  -14.7793    0.6895   24.2502 C   0  0  0  0  0  0  0  0  0  0  0  0
  -14.9834   -0.7170   24.3480 C   0  0  0  0  0  0  0  0  0  0  0  0
  -13.9661   -1.5864   24.5836 C   0  0  0  0  0  0  0  0  0  0  0  0
  -12.6731   -1.0545   24.7706 C   0  0  0  0  0  0  0  0  0  0  0  0
  7  3  1  1
  7  8  1  0
  8  9  1  0
  9 10  1  0
  9 11  2  0
 10 12  1  0
 13 14  1  0
 10 16  1  1
 15 16  1  0
 10 17  1  0
  7 18  1  0
 17 19  2  0
 18 19  2  0
 17 24  1  0
 14 15  1  0
 12 20  2  0
 20 21  1  0
 21 23  2  0
 23 22  1  0
 22 13  2  0
 13 12  1  0
 24 25  2  0
 25 26  1  0
 26 27  2  0
 27 28  1  0
 28 29  2  0
 29 24  1  0
  1  2  2  0
  2  5  1  0
  5  6  2  0
  6  4  1  0
  4  3  2  0
  3  1  1  0
M  END
$$$$
