No_7342-complexes_sdf/6BKW-FPZ/2024-09-17-14-21-01/
     RDKit          3D

 15 16  0  0  0  0  0  0  0  0999 V2000
   -7.7129    4.2099   27.0854 C   0  0  0  0  0  0  0  0  0  0  0  0
   -8.2112    3.0637   26.9225 C   0  0  0  0  0  0  0  0  0  0  0  0
   -8.5108    5.3904   26.9436 C   0  0  0  0  0  0  0  0  0  0  0  0
   -7.9752    6.6981   27.2112 C   0  0  0  0  0  0  0  0  0  0  0  0
   -9.5213    2.8208   26.4688 C   0  0  0  0  0  0  0  0  0  0  0  0
  -10.2979    3.9327   26.2378 C   0  0  0  0  0  0  0  0  0  0  0  0
   -9.7894    5.2123   26.4395 C   0  0  0  0  0  0  0  0  0  0  0  0
   -7.2007    2.0413   27.2410 N   0  0  0  0  0  0  0  0  0  0  0  0
   -7.4222    0.6988   27.0631 C   0  0  0  0  0  0  0  0  0  0  0  0
   -6.3481   -0.1263   27.5156 C   0  0  0  0  0  0  0  0  0  0  0  0
   -5.3525    0.2258   27.9338 C   0  0  0  0  0  0  0  0  0  0  0  0
   -5.1031    1.7291   28.1222 C   0  0  0  0  0  0  0  0  0  0  0  0
   -5.9886    2.5341   27.7902 C   0  0  0  0  0  0  0  0  0  0  0  0
   -6.8397    6.8993   27.4668 O   0  0  0  0  0  0  0  0  0  0  0  0
   -8.7148    7.8100   26.7801 O   0  0  0  0  0  0  0  0  0  0  0  0
  3  4  1  0
  2  8  1  0
  8  9  1  0
 10 11  1  0
  8 13  1  0
 12 13  1  0
  4 14  2  0
  4 15  1  0
  9 10  1  0
 11 12  1  0
  1  2  2  0
  2  5  1  0
  5  6  2  0
  6  7  1  0
  7  3  2  0
  3  1  1  0
M  END
$$$$
