No_7802-complexes_sdf/6BKW-FPZ/2024-09-17-14-21-01/
     RDKit          3D

 14 15  0  0  0  0  0  0  0  0999 V2000
   -7.2496    3.8871   27.4508 C   0  0  0  0  0  0  0  0  0  0  0  0
   -7.6161    2.7143   27.1523 C   0  0  0  0  0  0  0  0  0  0  0  0
   -8.8827    2.2318   27.1220 C   0  0  0  0  0  0  0  0  0  0  0  0
   -8.2837    4.9116   27.6108 C   0  0  0  0  0  0  0  0  0  0  0  0
   -9.6088    4.5175   27.5560 C   0  0  0  0  0  0  0  0  0  0  0  0
   -9.9243    3.2149   27.3938 C   0  0  0  0  0  0  0  0  0  0  0  0
   -7.8089    6.5215   27.9328 Cl  0  0  0  0  0  0  0  0  0  0  0  0
   -9.2644    0.8526   26.9408 C   0  0  0  0  0  0  0  0  0  0  0  0
   -9.6723    0.4783   25.8313 C   0  0  0  0  0  0  0  0  0  0  0  0
   -9.8351    1.4447   24.7343 C   0  0  0  0  0  0  0  0  0  0  0  0
  -10.2150    1.0125   23.3941 C   0  0  0  0  0  0  0  0  0  0  0  0
  -10.4459   -0.3647   23.2222 C   0  0  0  0  0  0  0  0  0  0  0  0
  -10.3011   -1.2441   24.2359 C   0  0  0  0  0  0  0  0  0  0  0  0
   -9.9110   -0.8864   25.4728 C   0  0  0  0  0  0  0  0  0  0  0  0
  4  7  1  0
  3  8  1  0
  8  9  1  0
  1  2  2  0
  2  3  1  0
  3  6  2  0
  6  5  1  0
  5  4  2  0
  4  1  1  0
  9 10  2  0
 10 11  1  0
 11 12  2  0
 12 13  1  0
 13 14  2  0
 14  9  1  0
M  END
$$$$
