No_7235-complexes_sdf/6BKW-FPZ/2024-09-17-14-21-01/
     RDKit          3D

 14 15  0  0  0  0  0  0  0  0999 V2000
   -7.9040    3.9820   27.1177 C   0  0  0  0  0  0  0  0  0  0  0  0
   -7.8663    4.8694   27.9238 C   0  0  0  0  0  0  0  0  0  0  0  0
   -7.4698    2.6989   27.4277 C   0  0  0  0  0  0  0  0  0  0  0  0
   -7.9683    1.5964   26.8266 C   0  0  0  0  0  0  0  0  0  0  0  0
   -8.9447    1.7923   25.8533 C   0  0  0  0  0  0  0  0  0  0  0  0
   -9.4219    0.6008   25.2035 C   0  0  0  0  0  0  0  0  0  0  0  0
   -9.0172    4.0242   26.1966 C   0  0  0  0  0  0  0  0  0  0  0  0
   -9.4716    2.9861   25.5632 C   0  0  0  0  0  0  0  0  0  0  0  0
   -8.2686    6.2353   27.6561 N   0  0  0  0  0  0  0  0  0  0  0  0
   -9.3100    6.5169   26.8593 C   0  0  0  0  0  0  0  0  0  0  0  0
   -9.6402    5.3741   25.9862 C   0  0  0  0  0  0  0  0  0  0  0  0
   -8.7197   -0.3266   24.9152 C   0  0  0  0  0  0  0  0  0  0  0  0
   -9.1944   -1.4898   24.2370 C   0  0  0  0  0  0  0  0  0  0  0  0
  -10.5224   -1.4934   23.8019 C   0  0  0  0  0  0  0  0  0  0  0  0
  6 12  1  0
 12 13  2  3
 13 14  1  0
  6  5  1  0
  1  2  2  0
  2  9  1  0
  9 10  2  0
 10 11  1  0
 11  7  2  0
  1  3  1  0
  3  4  2  0
  4  5  1  0
  5  8  2  0
  8  7  1  0
  7  1  1  0
M  END
$$$$
