No_7851-complexes_sdf/6BKW-FPZ/2024-09-17-14-21-01/
     RDKit          3D

 33 36  0  0  0  0  0  0  0  0999 V2000
   -7.9040    3.9820   27.1177 C   0  0  0  0  0  0  0  0  0  0  0  0
   -9.0711    4.3164   27.0630 C   0  0  0  0  0  0  0  0  0  0  0  0
   -9.9692    3.7224   26.1073 C   0  0  0  0  0  0  0  0  0  0  0  0
   -6.9787    4.6761   28.1003 C   0  0  0  0  0  0  0  0  0  0  0  0
  -11.1978    4.2793   25.7845 C   0  0  0  0  0  0  0  0  0  0  0  0
  -11.9722    3.7671   24.7671 C   0  0  0  0  0  0  0  0  0  0  0  0
  -11.4321    2.7931   23.9433 C   0  0  0  0  0  0  0  0  0  0  0  0
  -10.2070    2.2970   24.1835 C   0  0  0  0  0  0  0  0  0  0  0  0
   -9.3944    2.8078   25.1975 C   0  0  0  0  0  0  0  0  0  0  0  0
   -7.5087    5.6759   28.8863 C   0  0  0  0  0  0  0  0  0  0  0  0
   -9.4809    5.3980   27.8907 C   0  0  0  0  0  0  0  0  0  0  0  0
   -8.7253    6.0897   28.7200 C   0  0  0  0  0  0  0  0  0  0  0  0
   -9.6291    1.2125   23.3271 C   0  0  0  0  0  0  0  0  0  0  0  0
   -9.8620    1.1728   22.0039 C   0  0  0  0  0  0  0  0  0  0  0  0
   -9.3544    0.1139   21.2356 C   0  0  0  0  0  0  0  0  0  0  0  0
   -8.5271   -0.8745   21.8207 C   0  0  0  0  0  0  0  0  0  0  0  0
   -8.1979   -0.7782   23.1832 C   0  0  0  0  0  0  0  0  0  0  0  0
   -8.7317    0.2296   23.9723 C   0  0  0  0  0  0  0  0  0  0  0  0
   -7.9400   -2.0711   20.8012 Cl  0  0  0  0  0  0  0  0  0  0  0  0
   -7.1840   -1.9489   23.8963 Cl  0  0  0  0  0  0  0  0  0  0  0  0
   -5.7099    4.1847   28.2168 O   0  0  0  0  0  0  0  0  0  0  0  0
  -13.5518    4.2656   24.4427 Cl  0  0  0  0  0  0  0  0  0  0  0  0
  -10.7815    2.3333   21.1618 Cl  0  0  0  0  0  0  0  0  0  0  0  0
   -8.2799    0.2556   25.2525 O   0  0  0  0  0  0  0  0  0  0  0  0
   -8.8460   -0.5021   26.2411 C   0  0  0  0  0  0  0  0  0  0  0  0
   -8.4053   -0.0067   27.4821 C   0  0  0  0  0  0  0  0  0  0  0  0
   -7.4942   -0.8428   27.9965 C   0  0  0  0  0  0  0  0  0  0  0  0
   -6.7215   -1.5128   27.4933 C   0  0  0  0  0  0  0  0  0  0  0  0
   -5.6975   -2.2364   28.2174 C   0  0  0  0  0  0  0  0  0  0  0  0
   -4.5365   -2.5985   27.7275 C   0  0  0  0  0  0  0  0  0  0  0  0
   -4.4085   -2.5525   26.2731 C   0  0  0  0  0  0  0  0  0  0  0  0
   -5.1742   -1.6261   25.5898 C   0  0  0  0  0  0  0  0  0  0  0  0
   -6.2601   -1.1302   26.1603 C   0  0  0  0  0  0  0  0  0  0  0  0
  2  3  1  0
  8 13  1  0
 16 19  1  0
 17 20  1  0
  4 21  1  0
  6 22  1  0
 14 23  1  0
 18 24  1  0
 24 25  1  0
 25 26  1  0
 26 27  1  0
 27 28  1  0
 13 14  2  0
 14 15  1  0
 15 16  2  0
 16 17  1  0
 17 18  2  0
 18 13  1  0
 28 29  2  0
 29 30  1  0
 30 31  2  0
 31 32  1  0
 32 33  2  0
 33 28  1  0
  3  5  2  0
  5  6  1  0
  6  7  2  0
  7  8  1  0
  8  9  2  0
  9  3  1  0
  1  2  2  0
  2 11  1  0
 11 12  2  0
 12 10  1  0
 10  4  2  0
  4  1  1  0
M  END
$$$$
