No_7613-complexes_sdf/6BKW-FPZ/2024-09-17-14-21-01/
     RDKit          3D

 11 11  0  0  0  0  0  0  0  0999 V2000
   -7.7129    4.2099   27.0854 C   0  0  0  0  0  0  0  0  0  0  0  0
   -8.2112    3.0637   26.9225 C   0  0  0  0  0  0  0  0  0  0  0  0
   -8.4224    5.2106   27.8516 C   0  0  0  0  0  0  0  0  0  0  0  0
   -7.4917    1.9381   26.3986 C   0  0  0  0  0  0  0  0  0  0  0  0
   -9.7695    5.0306   28.1322 C   0  0  0  0  0  0  0  0  0  0  0  0
   -9.5839    2.7162   27.3257 C   0  0  0  0  0  0  0  0  0  0  0  0
  -10.3355    3.7874   27.9011 C   0  0  0  0  0  0  0  0  0  0  0  0
   -7.5390    0.6983   27.1454 C   0  0  0  0  0  0  0  0  0  0  0  0
   -8.6784   -0.0902   27.0141 C   0  0  0  0  0  0  0  0  0  0  0  0
   -9.9889    0.4015   27.4610 C   0  0  0  0  0  0  0  0  0  0  0  0
  -10.1127    1.5010   27.5767 C   0  0  0  0  0  0  0  0  0  0  0  0
  2  4  1  0
  4  8  1  0
  8  9  2  3
  9 10  1  0
 10 11  2  0
  1  2  2  0
  2  6  1  0
  6  7  2  0
  7  5  1  0
  5  3  2  0
  3  1  1  0
M  END
$$$$
