No_7964-complexes_sdf/6BKW-FPZ/2024-09-17-14-21-01/
     RDKit          3D

 14 15  0  0  0  0  0  0  0  0999 V2000
   -7.7129    4.2099   27.0854 C   0  0  0  0  0  0  0  0  0  0  0  0
   -8.9133    4.4736   27.0998 C   0  0  0  0  0  0  0  0  0  0  0  0
   -9.7937    3.7367   26.2091 C   0  0  0  0  0  0  0  0  0  0  0  0
   -6.8266    5.0441   28.0594 C   0  0  0  0  0  0  0  0  0  0  0  0
   -9.2322    2.6276   25.6126 C   0  0  0  0  0  0  0  0  0  0  0  0
   -7.9794    2.1924   25.9863 C   0  0  0  0  0  0  0  0  0  0  0  0
   -7.2411    2.9387   26.9009 C   0  0  0  0  0  0  0  0  0  0  0  0
  -10.0894    1.7793   24.7540 C   0  0  0  0  0  0  0  0  0  0  0  0
  -10.0344    0.5790   24.7192 C   0  0  0  0  0  0  0  0  0  0  0  0
  -10.7963   -0.2560   23.7738 C   0  0  0  0  0  0  0  0  0  0  0  0
  -11.6026    0.4324   22.8291 C   0  0  0  0  0  0  0  0  0  0  0  0
  -10.8955    2.4674   23.7381 C   0  0  0  0  0  0  0  0  0  0  0  0
  -11.6023    1.8048   22.8528 C   0  0  0  0  0  0  0  0  0  0  0  0
   -9.6322    5.6970   27.5529 C   0  0  0  0  0  0  0  0  0  0  0  0
  1  4  1  0
  5  8  1  0
  2 14  1  0
  8  9  2  0
  9 10  1  0
 10 11  2  0
 11 13  1  0
 13 12  2  0
 12  8  1  0
  1  2  2  0
  2  3  1  0
  3  5  2  0
  5  6  1  0
  6  7  2  0
  7  1  1  0
M  END
$$$$
