No_7299-complexes_sdf/6BKW-FPZ/2024-09-17-14-21-01/
     RDKit          3D

 16 17  0  0  0  0  0  0  0  0999 V2000
   -7.9040    3.9820   27.1177 C   0  0  0  0  0  0  0  0  0  0  0  0
   -7.8663    4.8694   27.9238 C   0  0  0  0  0  0  0  0  0  0  0  0
   -7.4547    2.7080   27.4594 C   0  0  0  0  0  0  0  0  0  0  0  0
   -7.9337    1.5946   26.8372 C   0  0  0  0  0  0  0  0  0  0  0  0
   -8.9032    1.7881   25.8510 C   0  0  0  0  0  0  0  0  0  0  0  0
   -9.3787    2.9871   25.5530 C   0  0  0  0  0  0  0  0  0  0  0  0
   -8.9781    4.0300   26.2200 C   0  0  0  0  0  0  0  0  0  0  0  0
   -8.1814    6.3212   27.6124 C   0  0  0  0  0  0  0  0  0  0  0  0
   -9.0815    6.5466   26.5513 C   0  0  0  0  0  0  0  0  0  0  0  0
   -9.5022    5.3860   25.8465 C   0  0  0  0  0  0  0  0  0  0  0  0
   -7.3392    0.2600   27.1281 C   0  0  0  0  0  0  0  0  0  0  0  0
   -6.1785    0.1014   27.6954 N   0  0  0  0  0  0  0  0  0  0  0  0
   -5.7310   -1.1324   27.9953 C   0  0  0  0  0  0  0  0  0  0  0  0
   -4.4130   -1.1911   28.6445 C   0  0  0  0  0  0  0  0  0  0  0  0
   -3.6844    0.0419   28.8631 C   0  0  0  0  0  0  0  0  0  0  0  0
   -4.2989    1.2628   28.4985 C   0  0  0  0  0  0  0  0  0  0  0  0
  4 11  1  0
 11 12  2  3
 12 13  1  0
 13 14  2  3
 14 15  1  0
 15 16  2  0
  1  2  2  0
  2  8  1  0
  8  9  2  0
  9 10  1  0
 10  7  2  0
  1  3  1  0
  3  4  2  0
  4  5  1  0
  5  6  2  0
  6  7  1  0
  7  1  1  0
M  END
$$$$
