No_7564-complexes_sdf/6BKW-FPZ/2024-09-17-14-21-01/
     RDKit          3D

 15 16  0  0  0  0  0  0  0  0999 V2000
   -7.9040    3.9820   27.1177 C   0  0  0  0  0  0  0  0  0  0  0  0
   -8.2057    2.8231   26.8733 C   0  0  0  0  0  0  0  0  0  0  0  0
   -9.3234    2.2125   27.0599 C   0  0  0  0  0  0  0  0  0  0  0  0
   -9.0146    4.9428   27.2420 C   0  0  0  0  0  0  0  0  0  0  0  0
  -10.2851    4.4096   27.2820 C   0  0  0  0  0  0  0  0  0  0  0  0
  -10.4907    3.0453   27.2378 C   0  0  0  0  0  0  0  0  0  0  0  0
   -8.7434    6.3715   27.3897 C   0  0  0  0  0  0  0  0  0  0  0  0
   -9.5549    0.7284   26.9047 C   0  0  0  0  0  0  0  0  0  0  0  0
   -8.5106   -0.0050   27.1024 C   0  0  0  0  0  0  0  0  0  0  0  0
   -8.6498   -1.4486   27.1684 C   0  0  0  0  0  0  0  0  0  0  0  0
   -9.6087   -1.8000   27.3126 C   0  0  0  0  0  0  0  0  0  0  0  0
  -10.6481   -0.0817   27.2105 C   0  0  0  0  0  0  0  0  0  0  0  0
  -10.8481   -1.2563   27.4161 C   0  0  0  0  0  0  0  0  0  0  0  0
   -7.3651    6.7997   27.3113 C   0  0  0  0  0  0  0  0  0  0  0  0
  -12.0982    1.0966   27.2050 Cl  0  0  0  0  0  0  0  0  0  0  0  0
  4  7  1  0
  3  8  1  0
  7 14  1  0
 12 15  1  0
  1  2  2  0
  2  3  1  0
  3  6  2  0
  6  5  1  0
  5  4  2  0
  4  1  1  0
  8  9  2  0
  9 10  1  0
 10 11  2  0
 11 13  1  0
 13 12  2  0
 12  8  1  0
M  END
$$$$
