No_730-complexes_sdf/6BKW-FPZ/2024-09-17-14-21-01/
     RDKit          3D

 22 24  0  0  0  0  0  0  0  0999 V2000
   -7.7129    4.2099   27.0854 C   0  0  0  0  0  0  0  0  0  0  0  0
   -7.7814    5.1722   27.8972 C   0  0  0  0  0  0  0  0  0  0  0  0
   -8.8998    3.8713   26.3707 C   0  0  0  0  0  0  0  0  0  0  0  0
   -9.9938    4.6774   26.5446 C   0  0  0  0  0  0  0  0  0  0  0  0
   -6.5693    5.6171   28.6342 C   0  0  0  0  0  0  0  0  0  0  0  0
   -9.9240    5.8213   27.1985 C   0  0  0  0  0  0  0  0  0  0  0  0
   -8.8382    6.1599   27.9605 C   0  0  0  0  0  0  0  0  0  0  0  0
   -8.9574    2.6668   25.5258 C   0  0  0  0  0  0  0  0  0  0  0  0
   -8.3490    1.6443   25.9357 O   0  0  0  0  0  0  0  0  0  0  0  0
   -9.3719    2.8268   24.2857 O   0  0  0  0  0  0  0  0  0  0  0  0
   -9.8304    1.7023   23.6024 C   0  0  0  0  0  0  0  0  0  0  0  0
  -10.3422    2.0594   22.3375 C   0  0  0  0  0  0  0  0  0  0  0  0
  -10.5268    1.0474   21.4007 C   0  0  0  0  0  0  0  0  0  0  0  0
  -10.3054   -0.3351   21.8093 C   0  0  0  0  0  0  0  0  0  0  0  0
   -9.7846   -0.5859   23.0699 C   0  0  0  0  0  0  0  0  0  0  0  0
   -9.4780    0.4380   23.9617 C   0  0  0  0  0  0  0  0  0  0  0  0
  -10.6530   -1.3502   20.7927 C   0  0  0  0  0  0  0  0  0  0  0  0
   -9.7473   -2.1983   20.4685 C   0  0  0  0  0  0  0  0  0  0  0  0
   -9.4313   -2.9306   19.8317 C   0  0  0  0  0  0  0  0  0  0  0  0
  -10.3247   -3.3289   18.6887 C   0  0  0  0  0  0  0  0  0  0  0  0
  -11.5094   -2.5151   18.7963 C   0  0  0  0  0  0  0  0  0  0  0  0
  -11.6118   -1.3967   19.7468 C   0  0  0  0  0  0  0  0  0  0  0  0
  2  5  1  0
  3  8  1  0
  8  9  2  0
  8 10  1  0
 10 11  1  0
 14 17  1  0
 17 18  2  0
 18 19  1  0
 19 20  2  0
 20 21  1  0
 21 22  2  0
 22 17  1  0
 11 12  2  0
 12 13  1  0
 13 14  2  0
 14 15  1  0
 15 16  2  0
 16 11  1  0
  1  2  2  0
  2  7  1  0
  7  6  2  0
  6  4  1  0
  4  3  2  0
  3  1  1  0
M  END
$$$$
