No_7359-complexes_sdf/6BKW-FPZ/2024-09-17-14-21-01/
     RDKit          3D

 40 45  0  0  0  0  0  0  0  0999 V2000
   -7.7129    4.2099   27.0854 C   0  0  0  0  0  0  0  0  0  0  0  0
   -8.2112    3.0637   26.9225 C   0  0  0  0  0  0  0  0  0  0  0  0
   -7.5138    1.9223   27.4249 C   0  0  0  0  0  0  0  0  0  0  0  0
   -8.5309    5.4147   26.8151 C   0  0  0  0  0  0  0  0  0  0  0  0
   -9.6817    5.2393   26.1100 C   0  0  0  0  0  0  0  0  0  0  0  0
  -10.1032    3.9957   25.8534 C   0  0  0  0  0  0  0  0  0  0  0  0
   -9.4035    2.8430   26.2573 C   0  0  0  0  0  0  0  0  0  0  0  0
   -7.9625    0.5664   27.2655 C   0  0  0  0  0  0  0  0  0  0  0  0
   -9.2649    0.5125   26.5943 C   0  0  0  0  0  0  0  0  0  0  0  0
   -9.9476    1.5566   26.0984 C   0  0  0  0  0  0  0  0  0  0  0  0
   -7.8198    7.1459   27.1468 Br  0  0  0  0  0  0  0  0  0  0  0  0
   -7.2802   -0.5298   27.8135 C   0  0  0  0  0  0  0  0  0  0  0  0
   -5.9911   -0.3901   28.2386 C   0  0  0  0  0  0  0  0  0  0  0  0
   -5.2234   -1.4837   28.7156 C   0  0  0  0  0  0  0  0  0  0  0  0
   -5.8821   -2.6891   28.8071 C   0  0  0  0  0  0  0  0  0  0  0  0
   -7.7530   -1.8202   27.9416 C   0  0  0  0  0  0  0  0  0  0  0  0
   -7.1419   -2.8413   28.4727 C   0  0  0  0  0  0  0  0  0  0  0  0
  -11.3579    3.9140   25.0723 C   0  0  0  0  0  0  0  0  0  0  0  0
  -11.3574    4.0175   23.6911 C   0  0  0  0  0  0  0  0  0  0  0  0
  -10.1297    4.1760   22.9362 C   0  0  0  0  0  0  0  0  0  0  0  0
  -10.1935    4.2382   21.5470 C   0  0  0  0  0  0  0  0  0  0  0  0
  -12.4847    3.8679   22.9358 C   0  0  0  0  0  0  0  0  0  0  0  0
  -12.5561    3.9609   21.5732 C   0  0  0  0  0  0  0  0  0  0  0  0
  -11.3315    4.1681   20.8610 C   0  0  0  0  0  0  0  0  0  0  0  0
  -12.5560    3.7127   25.8101 C   0  0  0  0  0  0  0  0  0  0  0  0
  -13.4513    2.9263   25.8995 C   0  0  0  0  0  0  0  0  0  0  0  0
  -14.5624    2.9629   26.7531 C   0  0  0  0  0  0  0  0  0  0  0  0
  -14.6448    4.0629   27.6278 C   0  0  0  0  0  0  0  0  0  0  0  0
  -13.6984    5.0542   27.6570 C   0  0  0  0  0  0  0  0  0  0  0  0
  -12.6242    4.9431   26.8524 C   0  0  0  0  0  0  0  0  0  0  0  0
  -16.0443    4.1459   28.7386 Cl  0  0  0  0  0  0  0  0  0  0  0  0
   -3.8191   -1.2269   29.1667 C   0  0  0  0  0  0  0  0  0  0  0  0
   -3.6879   -0.5780   30.4249 C   0  0  0  0  0  0  0  0  0  0  0  0
   -2.6805   -1.5588   28.4612 C   0  0  0  0  0  0  0  0  0  0  0  0
   -2.9392   -1.1995   31.4957 C   0  0  0  0  0  0  0  0  0  0  0  0
   -2.9517   -0.4783   32.7430 C   0  0  0  0  0  0  0  0  0  0  0  0
   -2.1614   -1.0514   33.7954 C   0  0  0  0  0  0  0  0  0  0  0  0
   -1.2626   -2.0499   33.5562 C   0  0  0  0  0  0  0  0  0  0  0  0
   -1.2139   -2.6056   32.2940 C   0  0  0  0  0  0  0  0  0  0  0  0
   -1.9882   -2.1291   31.2848 C   0  0  0  0  0  0  0  0  0  0  0  0
  4 11  1  0
  8 12  1  0
  6 18  1  0
 18 25  1  0
 28 31  1  0
 14 32  1  0
 32 33  1  0
 32 34  1  0
 33 35  1  0
 18 19  1  0
 25 26  2  0
 26 27  1  0
 27 28  2  0
 28 29  1  0
 29 30  2  0
 30 25  1  0
  1  2  2  0
  7  6  2  0
  6  5  1  0
  5  4  2  0
  4  1  1  0
 35 36  2  0
 36 37  1  0
 37 38  2  0
 38 39  1  0
 39 40  2  0
 40 35  1  0
 12 13  2  0
 13 14  1  0
 14 15  2  0
 15 17  1  0
 17 16  2  0
 16 12  1  0
  2  3  1  0
  3  8  2  0
  8  9  1  0
  9 10  2  0
 10  7  1  0
  7  2  1  0
 19 20  2  0
 20 21  1  0
 21 24  2  0
 24 23  1  0
 23 22  2  0
 22 19  1  0
M  END
$$$$
