No_7457-complexes_sdf/6BKW-FPZ/2024-09-17-14-21-01/
     RDKit          3D

 30 32  0  0  0  0  0  0  0  0999 V2000
   -7.9040    3.9820   27.1177 C   0  0  0  0  0  0  0  0  0  0  0  0
   -8.2057    2.8231   26.8733 C   0  0  0  0  0  0  0  0  0  0  0  0
   -8.7695    5.0740   26.7916 C   0  0  0  0  0  0  0  0  0  0  0  0
   -9.9618    4.7598   26.1630 C   0  0  0  0  0  0  0  0  0  0  0  0
   -9.4200    2.4524   26.2849 C   0  0  0  0  0  0  0  0  0  0  0  0
  -10.2590    3.4815   25.9250 C   0  0  0  0  0  0  0  0  0  0  0  0
   -8.3840    6.4693   27.0829 C   0  0  0  0  0  0  0  0  0  0  0  0
   -8.8815    7.3355   26.4985 F   0  0  0  0  0  0  0  0  0  0  0  0
   -8.5474    6.6598   28.4698 F   0  0  0  0  0  0  0  0  0  0  0  0
   -6.9650    6.5759   27.0431 F   0  0  0  0  0  0  0  0  0  0  0  0
   -7.2688    1.6772   27.2925 C   0  0  0  0  0  0  0  0  0  0  0  0
   -7.5963    0.3151   27.1982 C   0  0  0  0  0  0  0  0  0  0  0  0
   -6.6809   -0.6199   27.6021 C   0  0  0  0  0  0  0  0  0  0  0  0
   -5.3974   -0.1964   28.0709 C   0  0  0  0  0  0  0  0  0  0  0  0
   -5.0886    1.1611   28.1271 C   0  0  0  0  0  0  0  0  0  0  0  0
   -5.9350    2.0623   27.7625 C   0  0  0  0  0  0  0  0  0  0  0  0
   -4.2929   -1.4047   28.6589 Cl  0  0  0  0  0  0  0  0  0  0  0  0
  -11.5158    3.2109   25.1854 C   0  0  2  0  0  0  0  0  0  0  0  0
  -12.6104    2.7662   25.8466 C   0  0  0  0  0  0  0  0  0  0  0  0
  -12.6892    2.3740   26.9183 C   0  0  0  0  0  0  0  0  0  0  0  0
  -13.9360    1.8926   27.6288 C   0  0  0  0  0  0  0  0  0  0  0  0
  -15.0682    1.9611   26.9182 C   0  0  0  0  0  0  0  0  0  0  0  0
  -15.0582    2.4452   25.6574 C   0  0  0  0  0  0  0  0  0  0  0  0
  -13.9030    2.9306   25.0761 C   0  0  0  0  0  0  0  0  0  0  0  0
  -11.4254    3.3690   23.7435 C   0  0  0  0  0  0  0  0  0  0  0  0
  -11.3802    4.0436   23.0054 C   0  0  0  0  0  0  0  0  0  0  0  0
  -11.0864    4.0423   21.5666 C   0  0  0  0  0  0  0  0  0  0  0  0
  -10.8153    4.9518   20.6769 C   0  0  0  0  0  0  0  0  0  0  0  0
  -11.1462    2.6261   21.3878 C   0  0  0  0  0  0  0  0  0  0  0  0
  -11.1997    1.5807   22.1600 C   0  0  0  0  0  0  0  0  0  0  0  0
  3  7  1  0
  7  8  1  0
  7  9  1  0
  7 10  1  0
  2 11  1  0
 14 17  1  0
 18  6  1  6
 18 19  1  0
 18 25  1  0
 25 26  2  3
 26 27  1  0
 27 28  2  0
 27 29  1  0
 29 30  2  0
 11 12  2  0
 12 13  1  0
 13 14  2  0
 14 15  1  0
 15 16  2  0
 16 11  1  0
  1  2  2  0
  2  5  1  0
  5  6  2  0
  6  4  1  0
  4  3  2  0
  3  1  1  0
 19 20  2  0
 20 21  1  0
 21 22  2  0
 22 23  1  0
 23 24  2  0
 24 19  1  0
M  END
$$$$
