No_7071-complexes_sdf/6BKW-FPZ/2024-09-17-14-21-01/
     RDKit          3D

 29 32  0  0  0  0  0  0  0  0999 V2000
   -7.7129    4.2099   27.0854 C   0  0  0  0  0  0  0  0  0  0  0  0
   -7.7814    5.1722   27.8972 C   0  0  0  0  0  0  0  0  0  0  0  0
   -8.8776    3.8408   26.3416 C   0  0  0  0  0  0  0  0  0  0  0  0
   -9.9844    4.6492   26.4743 C   0  0  0  0  0  0  0  0  0  0  0  0
   -8.7830    6.1594   27.8870 C   0  0  0  0  0  0  0  0  0  0  0  0
   -9.9269    5.8191   27.1183 C   0  0  0  0  0  0  0  0  0  0  0  0
   -8.6995    2.5891   25.5893 C   0  0  0  0  0  0  0  0  0  0  0  0
   -9.5434    1.6227   26.0755 C   0  0  0  0  0  0  0  0  0  0  0  0
   -9.1784    0.4013   25.7707 C   0  0  0  0  0  0  0  0  0  0  0  0
   -9.9477   -0.7664   26.3158 C   0  0  0  0  0  0  0  0  0  0  0  0
  -10.7666   -0.5054   27.0105 C   0  0  0  0  0  0  0  0  0  0  0  0
  -11.2212    0.7560   27.5538 C   0  0  0  0  0  0  0  0  0  0  0  0
  -10.5155    1.8334   27.1048 C   0  0  0  0  0  0  0  0  0  0  0  0
  -12.2811    0.9052   28.6061 C   0  0  0  0  0  0  0  0  0  0  0  0
  -12.9962   -0.0356   29.0617 C   0  0  0  0  0  0  0  0  0  0  0  0
  -12.4505    2.2898   29.1375 C   0  0  0  0  0  0  0  0  0  0  0  0
  -13.6489    2.8816   28.9647 C   0  0  0  0  0  0  0  0  0  0  0  0
  -14.3492    0.3823   29.4878 C   0  0  0  0  0  0  0  0  0  0  0  0
  -13.9312    4.2663   29.2819 C   0  0  2  0  0  0  0  0  0  0  0  0
  -14.7445    1.8664   29.2922 C   0  0  0  0  0  0  0  0  0  0  0  0
  -14.5173    4.7945   30.3229 C   0  0  0  0  0  0  0  0  0  0  0  0
  -14.3996    4.9544   27.9716 C   0  0  0  0  0  0  0  0  0  0  0  0
  -14.2320    4.2855   31.6624 C   0  0  0  0  0  0  0  0  0  0  0  0
  -14.6133    4.9585   32.7982 C   0  0  0  0  0  0  0  0  0  0  0  0
  -14.1518    4.6445   34.0611 C   0  0  0  0  0  0  0  0  0  0  0  0
  -13.3236    3.4949   34.1715 C   0  0  0  0  0  0  0  0  0  0  0  0
  -13.0401    2.7104   33.0374 C   0  0  0  0  0  0  0  0  0  0  0  0
  -13.4310    3.1673   31.8382 C   0  0  0  0  0  0  0  0  0  0  0  0
  -13.6006    4.6818   26.8534 C   0  0  0  0  0  0  0  0  0  0  0  0
  3  7  1  0
  7  8  1  0
 12 14  1  0
 17 19  1  0
 19 21  1  1
 19 22  1  0
 21 23  1  0
 22 29  2  0
 23 24  2  0
 24 25  1  0
 25 26  2  0
 26 27  1  0
 27 28  2  0
 28 23  1  0
 14 15  2  0
 15 18  1  0
 18 20  2  0
 20 17  1  0
 17 16  2  0
 16 14  1  0
  8  9  2  0
  9 10  1  0
 10 11  2  0
 11 12  1  0
 12 13  2  0
 13  8  1  0
  1  2  2  0
  2  5  1  0
  5  6  2  0
  6  4  1  0
  4  3  2  0
  3  1  1  0
M  END
$$$$
