No_746-complexes_sdf/6BKW-FPZ/2024-09-17-14-21-01/
     RDKit          3D

 18 18  0  0  0  0  0  0  0  0999 V2000
   -7.9040    3.9820   27.1177 C   0  0  0  0  0  0  0  0  0  0  0  0
   -8.2057    2.8231   26.8733 C   0  0  0  0  0  0  0  0  0  0  0  0
   -8.7695    5.0740   26.7916 C   0  0  0  0  0  0  0  0  0  0  0  0
   -8.4337    6.4678   27.0913 C   0  0  0  0  0  0  0  0  0  0  0  0
   -9.1945    2.4408   26.4350 C   0  0  0  0  0  0  0  0  0  0  0  0
  -10.2047    3.3522   26.0527 C   0  0  0  0  0  0  0  0  0  0  0  0
   -9.9687    4.6754   26.2340 C   0  0  0  0  0  0  0  0  0  0  0  0
   -7.3578    6.7278   26.8398 F   0  0  0  0  0  0  0  0  0  0  0  0
   -8.8769    6.7261   28.4457 F   0  0  0  0  0  0  0  0  0  0  0  0
   -9.2155    7.2771   26.2793 F   0  0  0  0  0  0  0  0  0  0  0  0
   -6.9273    1.6242   27.4715 Cl  0  0  0  0  0  0  0  0  0  0  0  0
  -11.4499    2.9931   25.3407 C   0  0  1  0  0  0  0  0  0  0  0  0
  -12.3998    2.4550   26.0143 N   0  0  0  0  0  0  0  0  0  0  0  0
  -13.5734    2.3634   25.8824 C   0  0  0  0  0  0  0  0  0  0  0  0
  -14.1371    2.8528   24.7869 C   0  0  0  0  0  0  0  0  0  0  0  0
  -15.4562    2.8114   24.4209 C   0  0  0  0  0  0  0  0  0  0  0  0
  -11.5898    3.3351   23.9867 C   0  0  0  0  0  0  0  0  0  0  0  0
  -10.6673    3.7962   23.0975 C   0  0  0  0  0  0  0  0  0  0  0  0
  3  4  1  0
  4  8  1  0
  4  9  1  0
  4 10  1  0
  2 11  1  0
  6 12  1  0
 12 13  1  0
 13 14  1  0
 14 15  2  3
 15 16  1  0
 12 17  1  1
 17 18  1  0
  1  2  2  0
  2  5  1  0
  5  6  2  0
  6  7  1  0
  7  3  2  0
  3  1  1  0
M  END
$$$$
