No_7067-complexes_sdf/6BKW-FPZ/2024-09-17-14-21-01/
     RDKit          3D

 13 13  0  0  0  0  0  0  0  0999 V2000
   -7.2496    3.8871   27.4508 C   0  0  0  0  0  0  0  0  0  0  0  0
   -8.5096    4.0291   27.2770 C   0  0  0  0  0  0  0  0  0  0  0  0
   -9.2677    5.1714   27.5773 C   0  0  0  0  0  0  0  0  0  0  0  0
   -6.5711    2.6400   27.2842 C   0  0  0  0  0  0  0  0  0  0  0  0
   -7.2939    1.5094   27.0532 C   0  0  0  0  0  0  0  0  0  0  0  0
   -8.6122    1.6580   26.7575 C   0  0  0  0  0  0  0  0  0  0  0  0
   -9.2984    2.8495   26.9904 C   0  0  0  0  0  0  0  0  0  0  0  0
   -9.2193    6.1529   26.7038 C   0  0  0  0  0  0  0  0  0  0  0  0
   -6.5784    0.2706   26.8850 C   0  0  0  0  0  0  0  0  0  0  0  0
   -5.5791    0.0212   27.5619 O   0  0  0  0  0  0  0  0  0  0  0  0
   -7.0372   -0.6872   26.2296 O   0  0  0  0  0  0  0  0  0  0  0  0
   -8.5689    7.4319   27.1166 C   0  0  0  0  0  0  0  0  0  0  0  0
   -9.2640    5.8727   25.3309 C   0  0  0  0  0  0  0  0  0  0  0  0
  1  2  1  0
  2  3  2  3
  1  4  1  0
  4  5  1  0
  5  6  1  0
  2  7  1  0
  6  7  1  0
  3  8  1  0
  5  9  1  0
  9 10  2  0
  9 11  1  0
  8 12  1  0
  8 13  1  0
M  END
$$$$
