No_7108-complexes_sdf/6BKW-FPZ/2024-09-17-14-21-01/
     RDKit          3D

 23 25  0  0  0  0  0  0  0  0999 V2000
   -7.7129    4.2099   27.0854 C   0  0  0  0  0  0  0  0  0  0  0  0
   -8.9133    4.4736   27.0998 C   0  0  0  0  0  0  0  0  0  0  0  0
   -9.7135    3.9633   26.0300 C   0  0  0  0  0  0  0  0  0  0  0  0
   -6.8655    4.8824   28.1822 C   0  0  0  0  0  0  0  0  0  0  0  0
   -9.2221    2.8459   25.3619 C   0  0  0  0  0  0  0  0  0  0  0  0
   -8.0164    2.2957   25.7889 C   0  0  0  0  0  0  0  0  0  0  0  0
   -7.3052    2.9474   26.8072 C   0  0  0  0  0  0  0  0  0  0  0  0
  -10.0330    2.1843   24.3790 C   0  0  0  0  0  0  0  0  0  0  0  0
  -10.1883    2.8673   23.1331 C   0  0  0  0  0  0  0  0  0  0  0  0
  -10.8584    2.2754   22.0191 C   0  0  0  0  0  0  0  0  0  0  0  0
  -11.2216    0.9179   22.1161 C   0  0  0  0  0  0  0  0  0  0  0  0
  -10.3079    0.8605   24.3043 C   0  0  0  0  0  0  0  0  0  0  0  0
  -10.9032    0.2349   23.2564 C   0  0  0  0  0  0  0  0  0  0  0  0
   -9.5465    5.6880   27.6506 C   0  0  0  0  0  0  0  0  0  0  0  0
  -11.1501    3.0594   20.8154 C   0  0  0  0  0  0  0  0  0  0  0  0
  -10.2822    4.0325   20.6245 C   0  0  0  0  0  0  0  0  0  0  0  0
  -10.1226    5.0246   20.6608 C   0  0  0  0  0  0  0  0  0  0  0  0
  -12.1250    2.6067   19.9642 C   0  0  0  0  0  0  0  0  0  0  0  0
  -13.2819    2.3403   20.3756 C   0  0  0  0  0  0  0  0  0  0  0  0
  -14.3444    1.9669   19.4191 C   0  0  0  0  0  0  0  0  0  0  0  0
  -13.9982    1.9693   18.0769 C   0  0  0  0  0  0  0  0  0  0  0  0
  -12.7295    2.2753   17.6163 C   0  0  0  0  0  0  0  0  0  0  0  0
  -11.7682    2.6766   18.5587 C   0  0  0  0  0  0  0  0  0  0  0  0
  1  4  1  0
  5  8  1  0
  2 14  1  0
 10 15  1  0
 15 16  2  3
 16 17  1  0
 15 18  1  0
 18 19  2  0
 19 20  1  0
 20 21  2  0
 21 22  1  0
 22 23  2  0
 23 18  1  0
  8  9  2  0
  9 10  1  0
 10 11  2  0
 11 13  1  0
 13 12  2  0
 12  8  1  0
  1  2  2  0
  2  3  1  0
  3  5  2  0
  5  6  1  0
  6  7  2  0
  7  1  1  0
M  END
$$$$
