No_7362-complexes_sdf/6BKW-FPZ/2024-09-17-14-21-01/
     RDKit          3D

 22 25  0  0  0  0  0  0  0  0999 V2000
   -7.2496    3.8871   27.4508 C   0  0  0  0  0  0  0  0  0  0  0  0
   -7.6161    2.7143   27.1523 C   0  0  0  0  0  0  0  0  0  0  0  0
   -7.1619    1.8631   27.5232 C   0  0  0  0  0  0  0  0  0  0  0  0
   -8.0384    5.0867   27.3232 C   0  0  0  0  0  0  0  0  0  0  0  0
   -9.1223    5.1097   26.4856 C   0  0  0  0  0  0  0  0  0  0  0  0
   -8.9186    2.6660   26.4794 C   0  0  0  0  0  0  0  0  0  0  0  0
   -9.6149    3.8297   26.1383 C   0  0  0  0  0  0  0  0  0  0  0  0
   -7.4910    0.3960   27.3240 C   0  0  0  0  0  0  0  0  0  0  0  0
   -6.7961   -0.6673   27.7237 C   0  0  0  0  0  0  0  0  0  0  0  0
   -5.5243   -0.4006   28.2823 C   0  0  0  0  0  0  0  0  0  0  0  0
   -4.9880    0.8686   28.3716 C   0  0  0  0  0  0  0  0  0  0  0  0
   -5.6730    1.9043   28.0229 C   0  0  0  0  0  0  0  0  0  0  0  0
   -7.7212    6.4036   27.7331 N   0  0  0  0  0  0  0  0  0  0  0  0
   -4.7284   -1.5879   28.7879 C   0  0  0  0  0  0  0  0  0  0  0  0
   -5.0968   -2.2483   29.7727 C   0  0  0  0  0  0  0  0  0  0  0  0
   -4.3613   -3.2368   30.3129 C   0  0  0  0  0  0  0  0  0  0  0  0
   -3.0768   -3.4776   29.7523 C   0  0  0  0  0  0  0  0  0  0  0  0
   -3.4026   -1.6827   28.2612 C   0  0  0  0  0  0  0  0  0  0  0  0
   -2.5831   -2.7007   28.7125 C   0  0  0  0  0  0  0  0  0  0  0  0
   -8.6229    7.2428   27.1911 N   0  0  0  0  0  0  0  0  0  0  0  0
   -9.4908    6.4780   26.4934 C   0  0  0  0  0  0  0  0  0  0  0  0
   -2.3080   -4.4529   30.2650 F   0  0  0  0  0  0  0  0  0  0  0  0
  2  3  1  0
  4 13  1  0
 10 14  1  0
 13 20  1  0
  5 21  1  0
 20 21  1  0
 17 22  1  0
  3  8  2  0
  8  9  1  0
  9 10  2  0
 10 11  1  0
 11 12  2  0
 12  3  1  0
 14 15  2  0
 15 16  1  0
 16 17  2  0
 17 19  1  0
 19 18  2  0
 18 14  1  0
  1  2  2  0
  2  6  1  0
  6  7  2  0
  7  5  1  0
  5  4  2  0
  4  1  1  0
M  END
$$$$
