No_7518-complexes_sdf/6BKW-FPZ/2024-09-17-14-21-01/
     RDKit          3D

 25 27  0  0  0  0  0  0  0  0999 V2000
   -7.7129    4.2099   27.0854 C   0  0  0  0  0  0  0  0  0  0  0  0
   -8.2112    3.0637   26.9225 C   0  0  0  0  0  0  0  0  0  0  0  0
   -8.5108    5.3904   26.9436 C   0  0  0  0  0  0  0  0  0  0  0  0
   -7.9752    6.6981   27.2112 C   0  0  0  0  0  0  0  0  0  0  0  0
   -9.5213    2.8208   26.4688 C   0  0  0  0  0  0  0  0  0  0  0  0
  -10.2979    3.9327   26.2378 C   0  0  0  0  0  0  0  0  0  0  0  0
   -9.7894    5.2123   26.4395 C   0  0  0  0  0  0  0  0  0  0  0  0
   -7.5724    1.7071   27.1549 C   0  0  0  0  0  0  0  0  0  0  0  0
   -8.1371    0.5867   27.0978 N   0  0  0  0  0  0  0  0  0  0  0  0
   -6.3168    1.7374   27.8220 N   0  0  0  0  0  0  0  0  0  0  0  0
   -5.5321    0.6819   27.9356 C   0  0  0  0  0  0  0  0  0  0  0  0
   -4.2059    0.8789   28.5091 C   0  0  0  0  0  0  0  0  0  0  0  0
   -6.0064   -0.6099   27.7776 C   0  0  0  0  0  0  0  0  0  0  0  0
   -7.4111   -0.5781   27.3379 C   0  0  0  0  0  0  0  0  0  0  0  0
   -3.8172    2.0165   28.6929 F   0  0  0  0  0  0  0  0  0  0  0  0
   -4.1106    0.2981   29.7922 F   0  0  0  0  0  0  0  0  0  0  0  0
   -3.3143    0.2307   27.7105 F   0  0  0  0  0  0  0  0  0  0  0  0
   -6.9642    6.7465   27.9824 F   0  0  0  0  0  0  0  0  0  0  0  0
   -8.3823    7.8365   26.6740 N   0  0  0  0  0  0  0  0  0  0  0  0
  -11.6295    3.8410   25.6253 C   0  0  0  0  0  0  0  0  0  0  0  0
  -12.7370    3.5742   26.4407 C   0  0  0  0  0  0  0  0  0  0  0  0
  -13.9986    3.6852   25.9662 C   0  0  0  0  0  0  0  0  0  0  0  0
  -11.8455    3.9711   24.3417 C   0  0  0  0  0  0  0  0  0  0  0  0
  -13.0687    4.0321   23.7187 C   0  0  0  0  0  0  0  0  0  0  0  0
  -14.1859    3.9345   24.5777 C   0  0  0  0  0  0  0  0  0  0  0  0
  3  4  1  0
  2  8  1  0
 11 12  1  0
 12 15  1  0
 12 16  1  0
 12 17  1  0
  4 18  1  0
  4 19  2  0
  6 20  1  0
 20 21  2  0
 21 22  1  0
 22 25  2  0
 25 24  1  0
 24 23  2  0
 23 20  1  0
  8  9  2  0
  9 14  1  0
 14 13  2  0
 13 11  1  0
 11 10  2  0
 10  8  1  0
  1  2  2  0
  2  5  1  0
  5  6  2  0
  6  7  1  0
  7  3  2  0
  3  1  1  0
M  END
$$$$
