No_7836-complexes_sdf/6BKW-FPZ/2024-09-17-14-21-01/
     RDKit          3D

 28 30  0  0  0  0  0  0  0  0999 V2000
   -7.7129    4.2099   27.0854 C   0  0  0  0  0  0  0  0  0  0  0  0
   -7.7814    5.1722   27.8972 C   0  0  0  0  0  0  0  0  0  0  0  0
   -8.8998    3.8713   26.3707 C   0  0  0  0  0  0  0  0  0  0  0  0
   -9.9938    4.6774   26.5446 C   0  0  0  0  0  0  0  0  0  0  0  0
   -8.7789    6.1536   27.9256 C   0  0  0  0  0  0  0  0  0  0  0  0
   -9.9428    5.8398   27.2296 C   0  0  0  0  0  0  0  0  0  0  0  0
   -8.9119    2.6447   25.5685 C   0  0  0  0  0  0  0  0  0  0  0  0
   -9.7965    2.5353   24.5160 C   0  0  0  0  0  0  0  0  0  0  0  0
   -9.8470    1.4006   23.7115 C   0  0  0  0  0  0  0  0  0  0  0  0
   -8.8958    0.3527   23.9867 C   0  0  0  0  0  0  0  0  0  0  0  0
   -8.0531    0.4472   25.0634 C   0  0  0  0  0  0  0  0  0  0  0  0
   -8.0207    1.5886   25.8749 C   0  0  0  0  0  0  0  0  0  0  0  0
  -10.7272    1.3099   22.5781 C   0  0  0  0  0  0  0  0  0  0  0  0
  -10.8452    2.3291   21.7961 C   0  0  0  0  0  0  0  0  0  0  0  0
  -11.7348    2.3354   20.6259 C   0  0  0  0  0  0  0  0  0  0  0  0
  -12.3140    1.1263   20.2461 C   0  0  0  0  0  0  0  0  0  0  0  0
  -12.0837    0.0240   21.0502 C   0  0  0  0  0  0  0  0  0  0  0  0
  -11.3026    0.0944   22.1608 C   0  0  0  0  0  0  0  0  0  0  0  0
   -6.6160    5.5813   28.5942 O   0  0  0  0  0  0  0  0  0  0  0  0
   -7.1086   -0.6281   25.3556 C   0  0  0  0  0  0  0  0  0  0  0  0
   -6.5252   -1.2141   24.4917 O   0  0  0  0  0  0  0  0  0  0  0  0
   -6.8499   -0.8800   26.6292 O   0  0  0  0  0  0  0  0  0  0  0  0
   -6.0872   -1.5697   27.1445 C   0  0  0  0  0  0  0  0  0  0  0  0
   -6.0450   -1.4683   28.5166 C   0  0  0  0  0  0  0  0  0  0  0  0
   -6.2039   -3.0111   26.7765 C   0  0  0  0  0  0  0  0  0  0  0  0
   -5.0518   -0.5912   29.1601 C   0  0  0  0  0  0  0  0  0  0  0  0
   -4.2861    0.3264   28.2561 C   0  0  0  0  0  0  0  0  0  0  0  0
   -4.2606    0.1663   26.9563 C   0  0  0  0  0  0  0  0  0  0  0  0
  3  7  1  0
  9 13  1  0
  2 19  1  0
 11 20  1  0
 20 21  2  0
 20 22  1  0
 22 23  1  0
 23 24  2  3
 23 25  1  0
 24 26  1  0
 26 27  2  3
 27 28  1  0
 13 14  2  0
 14 15  1  0
 15 16  2  0
 16 17  1  0
 17 18  2  0
 18 13  1  0
  1  2  2  0
  2  5  1  0
  5  6  2  0
  6  4  1  0
  4  3  2  0
  3  1  1  0
  7  8  2  0
  8  9  1  0
  9 10  2  0
 10 11  1  0
 11 12  2  0
 12  7  1  0
M  END
$$$$
