No_7517-complexes_sdf/6BKW-FPZ/2024-09-17-14-21-01/
     RDKit          3D

 17 19  0  0  0  0  0  0  0  0999 V2000
   -7.2496    3.8871   27.4508 C   0  0  0  0  0  0  0  0  0  0  0  0
   -7.6161    2.7143   27.1523 C   0  0  0  0  0  0  0  0  0  0  0  0
   -8.8827    2.2318   27.1220 C   0  0  0  0  0  0  0  0  0  0  0  0
   -8.2837    4.9116   27.6108 C   0  0  0  0  0  0  0  0  0  0  0  0
   -9.6088    4.5175   27.5560 C   0  0  0  0  0  0  0  0  0  0  0  0
   -9.9243    3.2149   27.3938 C   0  0  0  0  0  0  0  0  0  0  0  0
   -7.8089    6.5215   27.9328 Cl  0  0  0  0  0  0  0  0  0  0  0  0
   -9.2644    0.8526   26.9408 C   0  0  0  0  0  0  0  0  0  0  0  0
   -8.5416   -0.0468   27.0020 C   0  0  0  0  0  0  0  0  0  0  0  0
   -8.9124   -1.4653   26.8489 C   0  0  0  0  0  0  0  0  0  0  0  0
  -10.2618   -1.6622   26.6006 C   0  0  0  0  0  0  0  0  0  0  0  0
  -10.6215    0.4182   26.8008 C   0  0  0  0  0  0  0  0  0  0  0  0
  -11.0871   -0.7375   26.6868 C   0  0  0  0  0  0  0  0  0  0  0  0
  -12.5678   -1.0362   26.5049 C   0  0  0  0  0  0  0  0  0  0  0  0
  -13.5452   -0.3227   26.9874 C   0  0  0  0  0  0  0  0  0  0  0  0
  -13.1714    0.6138   27.9167 C   0  0  0  0  0  0  0  0  0  0  0  0
  -11.7678    1.2452   27.7764 C   0  0  0  0  0  0  0  0  0  0  0  0
  4  7  1  0
  3  8  1  0
 13 14  2  0
 14 15  1  0
 15 16  2  0
 16 17  1  0
 17 12  2  0
  1  2  2  0
  2  3  1  0
  3  6  2  0
  6  5  1  0
  5  4  2  0
  4  1  1  0
  8  9  2  0
  9 10  1  0
 10 11  2  0
 11 13  1  0
 13 12  1  0
 12  8  1  0
M  END
$$$$
