No_7059-complexes_sdf/6BKW-FPZ/2024-09-17-14-21-01/
     RDKit          3D

 16 17  0  0  0  0  0  0  0  0999 V2000
   -7.7129    4.2099   27.0854 C   0  0  0  0  0  0  0  0  0  0  0  0
   -7.7814    5.1722   27.8972 C   0  0  0  0  0  0  0  0  0  0  0  0
   -8.8255    3.2789   27.1191 C   0  0  0  0  0  0  0  0  0  0  0  0
   -8.7530    2.0643   26.3119 C   0  0  0  0  0  0  0  0  0  0  0  0
   -7.6193    1.3092   26.4290 C   0  0  0  0  0  0  0  0  0  0  0  0
   -7.5545    0.0972   25.6919 C   0  0  0  0  0  0  0  0  0  0  0  0
   -9.9829    3.6717   27.8130 C   0  0  0  0  0  0  0  0  0  0  0  0
  -10.0391    4.8825   28.5802 C   0  0  0  0  0  0  0  0  0  0  0  0
   -8.9186    5.7067   28.5614 C   0  0  0  0  0  0  0  0  0  0  0  0
   -9.6858    1.7977   25.3882 C   0  0  0  0  0  0  0  0  0  0  0  0
   -9.5779    0.7297   24.5027 C   0  0  0  0  0  0  0  0  0  0  0  0
   -8.4646   -0.1112   24.7270 C   0  0  0  0  0  0  0  0  0  0  0  0
  -11.0118    2.8669   27.8290 F   0  0  0  0  0  0  0  0  0  0  0  0
  -10.5722    0.4759   23.4946 C   0  0  0  0  0  0  0  0  0  0  0  0
  -11.1492    1.4491   22.8697 C   0  0  0  0  0  0  0  0  0  0  0  0
  -12.1527    1.2281   21.8550 C   0  0  0  0  0  0  0  0  0  0  0  0
  3  4  1  0
  7 13  1  0
 11 14  1  0
 14 15  2  3
 15 16  1  0
  4  5  2  0
  5  6  1  0
  6 12  2  0
 12 11  1  0
 11 10  2  0
 10  4  1  0
  1  2  2  0
  2  9  1  0
  9  8  2  0
  8  7  1  0
  7  3  2  0
  3  1  1  0
M  END
$$$$
