No_7145-complexes_sdf/6BKW-FPZ/2024-09-17-14-21-01/
     RDKit          3D

 14 15  0  0  0  0  0  0  0  0999 V2000
   -7.9040    3.9820   27.1177 C   0  0  0  0  0  0  0  0  0  0  0  0
   -8.2057    2.8231   26.8733 C   0  0  0  0  0  0  0  0  0  0  0  0
   -8.7695    5.0740   26.7916 C   0  0  0  0  0  0  0  0  0  0  0  0
   -9.9618    4.7598   26.1630 C   0  0  0  0  0  0  0  0  0  0  0  0
   -9.4200    2.4524   26.2849 C   0  0  0  0  0  0  0  0  0  0  0  0
  -10.2590    3.4815   25.9250 C   0  0  0  0  0  0  0  0  0  0  0  0
   -8.3840    6.4693   27.0829 C   0  0  0  0  0  0  0  0  0  0  0  0
   -7.9676    7.4862   26.9931 N   0  0  0  0  0  0  0  0  0  0  0  0
   -7.2799    1.6688   27.3023 C   0  0  0  0  0  0  0  0  0  0  0  0
   -6.0243    1.9908   27.8660 C   0  0  0  0  0  0  0  0  0  0  0  0
   -5.1311    0.9149   28.2157 C   0  0  0  0  0  0  0  0  0  0  0  0
   -5.5100   -0.3780   28.0947 C   0  0  0  0  0  0  0  0  0  0  0  0
   -7.5649    0.3183   27.2099 C   0  0  0  0  0  0  0  0  0  0  0  0
   -6.7856   -0.6493   27.6383 C   0  0  0  0  0  0  0  0  0  0  0  0
  3  7  1  0
  7  8  3  0
  2  9  1  0
  1  2  2  0
  2  5  1  0
  5  6  2  0
  6  4  1  0
  4  3  2  0
  3  1  1  0
  9 10  2  0
 10 11  1  0
 11 12  2  0
 12 14  1  0
 14 13  2  0
 13  9  1  0
M  END
$$$$
