No_7794-complexes_sdf/6BKW-FPZ/2024-09-17-14-21-01/
     RDKit          3D

 20 22  0  0  0  0  0  0  0  0999 V2000
   -7.7129    4.2099   27.0854 C   0  0  0  0  0  0  0  0  0  0  0  0
   -7.7814    5.1722   27.8972 C   0  0  0  0  0  0  0  0  0  0  0  0
   -7.2983    2.9533   27.5684 C   0  0  0  0  0  0  0  0  0  0  0  0
   -7.6908    1.8111   26.9553 C   0  0  1  0  0  0  0  0  0  0  0  0
   -8.6533    1.9165   25.9430 C   0  0  0  0  0  0  0  0  0  0  0  0
   -9.2376    3.0581   25.6387 C   0  0  0  0  0  0  0  0  0  0  0  0
   -8.8901    4.1760   26.2867 C   0  0  0  0  0  0  0  0  0  0  0  0
   -8.2313    6.2997   27.8103 N   0  0  0  0  0  0  0  0  0  0  0  0
   -9.2168    6.5979   26.8458 C   0  0  0  0  0  0  0  0  0  0  0  0
   -9.5483    5.4532   26.0021 C   0  0  0  0  0  0  0  0  0  0  0  0
   -7.0321    0.5341   27.2088 C   0  0  0  0  0  0  0  0  0  0  0  0
   -7.7076   -0.6451   27.2670 C   0  0  0  0  0  0  0  0  0  0  0  0
   -7.1443   -1.7284   27.7610 C   0  0  0  0  0  0  0  0  0  0  0  0
   -5.6859    0.5183   27.5775 C   0  0  0  0  0  0  0  0  0  0  0  0
   -5.0540   -0.5652   28.0927 C   0  0  0  0  0  0  0  0  0  0  0  0
   -5.8036   -1.7440   28.2034 C   0  0  0  0  0  0  0  0  0  0  0  0
   -3.6539   -0.5006   28.5999 C   0  0  0  0  0  0  0  0  0  0  0  0
   -3.4899   -0.1403   29.9155 C   0  0  0  0  0  0  0  0  0  0  0  0
   -2.6134   -0.7537   27.7043 C   0  0  0  0  0  0  0  0  0  0  0  0
   -3.5494   -0.5663   30.9985 N   0  0  0  0  0  0  0  0  0  0  0  0
  1  3  1  0
  3  4  1  0
  4  5  1  0
  5  6  1  0
  6  7  1  0
  4 11  1  6
 15 17  1  0
 17 18  1  0
 17 19  1  0
 18 20  3  0
  1  2  2  0
  2  8  1  0
  8  9  2  0
  9 10  1  0
 10  7  2  0
  7  1  1  0
 11 12  2  0
 12 13  1  0
 13 16  2  0
 16 15  1  0
 15 14  2  0
 14 11  1  0
M  END
$$$$
