No_7914-complexes_sdf/6BKW-FPZ/2024-09-17-14-21-01/
     RDKit          3D

 33 36  0  0  0  0  0  0  0  0999 V2000
   -7.7129    4.2099   27.0854 C   0  0  0  0  0  0  0  0  0  0  0  0
   -7.7814    5.1722   27.8972 C   0  0  0  0  0  0  0  0  0  0  0  0
   -8.8998    3.8713   26.3707 C   0  0  0  0  0  0  0  0  0  0  0  0
   -9.9938    4.6774   26.5446 C   0  0  0  0  0  0  0  0  0  0  0  0
   -8.7789    6.1536   27.9256 C   0  0  0  0  0  0  0  0  0  0  0  0
   -9.9428    5.8398   27.2296 C   0  0  0  0  0  0  0  0  0  0  0  0
   -8.7183    2.6009   25.5951 C   0  0  0  0  0  0  0  0  0  0  0  0
   -9.5264    2.5015   24.5160 C   0  0  0  0  0  0  0  0  0  0  0  0
   -9.5308    1.3094   23.7289 C   0  0  0  0  0  0  0  0  0  0  0  0
   -8.6121    0.2857   24.0937 C   0  0  0  0  0  0  0  0  0  0  0  0
   -7.8752    0.4100   25.2531 C   0  0  0  0  0  0  0  0  0  0  0  0
   -7.9307    1.5740   26.0425 C   0  0  0  0  0  0  0  0  0  0  0  0
  -10.2659    1.2202   22.4961 C   0  0  0  0  0  0  0  0  0  0  0  0
  -10.4854    2.3054   21.8062 C   0  0  0  0  0  0  0  0  0  0  0  0
  -11.2707    2.2817   20.5727 C   0  0  0  0  0  0  0  0  0  0  0  0
  -11.5969    1.0411   20.0040 C   0  0  0  0  0  0  0  0  0  0  0  0
  -11.2274   -0.1125   20.7027 C   0  0  0  0  0  0  0  0  0  0  0  0
  -10.5790   -0.0242   21.8995 C   0  0  0  0  0  0  0  0  0  0  0  0
  -11.5954   -1.3958   20.0948 C   0  0  1  0  0  0  0  0  0  0  0  0
  -11.5845   -1.9509   18.6597 Cl  0  0  0  0  0  0  0  0  0  0  0  0
  -11.9996   -2.4133   21.1451 C   0  0  0  0  0  0  0  0  0  0  0  0
  -12.4518   -3.4599   20.7561 C   0  0  0  0  0  0  0  0  0  0  0  0
  -13.2437   -4.1582   21.0432 C   0  0  0  0  0  0  0  0  0  0  0  0
  -13.6037   -5.5127   20.5363 C   0  0  0  0  0  0  0  0  0  0  0  0
  -12.8988   -5.8718   19.4619 C   0  0  0  0  0  0  0  0  0  0  0  0
  -11.9190   -5.1151   18.9749 C   0  0  0  0  0  0  0  0  0  0  0  0
  -11.5657   -3.9514   19.5441 C   0  0  0  0  0  0  0  0  0  0  0  0
  -14.8249   -6.5148   21.1986 Cl  0  0  0  0  0  0  0  0  0  0  0  0
   -6.6411    5.6000   28.5798 F   0  0  0  0  0  0  0  0  0  0  0  0
  -11.5047    3.5363   19.8416 C   0  0  0  0  0  0  0  0  0  0  0  0
  -11.1355   -5.5742   17.7802 C   0  0  0  0  0  0  0  0  0  0  0  0
  -11.5077   -6.1406   16.9323 C   0  0  0  0  0  0  0  0  0  0  0  0
  -10.7090   -6.5774   15.7775 C   0  0  0  0  0  0  0  0  0  0  0  0
  3  7  1  0
  9 13  1  0
 17 19  1  0
 19 20  1  1
 19 21  1  0
 24 28  1  0
  2 29  1  0
 15 30  1  0
 26 31  1  0
 31 32  2  3
 32 33  1  0
 21 22  1  0
 13 14  2  0
 14 15  1  0
 15 16  2  0
 16 17  1  0
 17 18  2  0
 18 13  1  0
 22 23  2  0
 23 24  1  0
 24 25  2  0
 25 26  1  0
 26 27  2  0
 27 22  1  0
  1  2  2  0
  2  5  1  0
  5  6  2  0
  6  4  1  0
  4  3  2  0
  3  1  1  0
  7  8  2  0
  8  9  1  0
  9 10  2  0
 10 11  1  0
 11 12  2  0
 12  7  1  0
M  END
$$$$
