No_733-complexes_sdf/6BKW-FPZ/2024-09-17-14-21-01/
     RDKit          3D

 40 46  0  0  0  0  0  0  0  0999 V2000
   -7.9040    3.9820   27.1177 C   0  0  0  0  0  0  0  0  0  0  0  0
   -8.2057    2.8231   26.8733 C   0  0  0  0  0  0  0  0  0  0  0  0
   -7.4766    1.7477   27.4593 C   0  0  0  0  0  0  0  0  0  0  0  0
   -8.7468    5.1251   26.6967 C   0  0  0  0  0  0  0  0  0  0  0  0
   -9.7234    4.8589   25.8202 C   0  0  0  0  0  0  0  0  0  0  0  0
   -9.9711    3.5858   25.4266 C   0  0  0  0  0  0  0  0  0  0  0  0
   -9.2266    2.4957   25.9600 C   0  0  0  0  0  0  0  0  0  0  0  0
   -6.2339    1.9237   27.9258 N   0  0  0  0  0  0  0  0  0  0  0  0
   -5.4699    0.8281   28.3430 C   0  0  0  0  0  0  0  0  0  0  0  0
   -5.9981   -0.3900   28.2346 C   0  0  0  0  0  0  0  0  0  0  0  0
   -7.8121    0.3743   27.3520 C   0  0  0  0  0  0  0  0  0  0  0  0
   -7.1743   -0.6300   27.8087 C   0  0  0  0  0  0  0  0  0  0  0  0
   -4.1841    1.1982   28.8334 N   0  0  0  0  0  0  0  0  0  0  0  0
   -8.4147    6.5154   27.1147 C   0  0  0  0  0  0  0  0  0  0  0  0
   -7.8146    6.8081   28.1741 N   0  0  0  0  0  0  0  0  0  0  0  0
   -8.5741    7.5381   26.2475 N   0  0  0  0  0  0  0  0  0  0  0  0
  -11.0151    3.3283   24.4433 C   0  0  0  0  0  0  0  0  0  0  0  0
  -10.7262    2.6117   23.3811 C   0  0  0  0  0  0  0  0  0  0  0  0
  -11.4290    2.6507   22.2149 C   0  0  0  0  0  0  0  0  0  0  0  0
  -12.5816    3.4841   22.1655 C   0  0  0  0  0  0  0  0  0  0  0  0
  -11.7745    4.4795   24.0327 C   0  0  0  0  0  0  0  0  0  0  0  0
  -12.6679    4.4773   23.1121 C   0  0  0  0  0  0  0  0  0  0  0  0
   -7.9541   -1.8333   27.7780 C   0  0  0  0  0  0  0  0  0  0  0  0
   -9.1145   -1.9090   27.4504 C   0  0  0  0  0  0  0  0  0  0  0  0
   -9.8477   -0.7757   26.9646 C   0  0  0  0  0  0  0  0  0  0  0  0
   -9.2207    0.3091   26.9762 C   0  0  0  0  0  0  0  0  0  0  0  0
   -9.8483    1.4721   26.2468 C   0  0  2  0  0  0  0  0  0  0  0  0
  -11.2451   -0.9778   26.5231 C   0  0  1  0  0  0  0  0  0  0  0  0
  -11.9763   -1.8786   26.9053 C   0  0  0  0  0  0  0  0  0  0  0  0
  -11.5888    0.0053   25.7405 C   0  0  1  0  0  0  0  0  0  0  0  0
  -12.8682    0.0472   25.1796 N   0  0  0  0  0  0  0  0  0  0  0  0
  -10.9309    1.1773   25.6972 N   0  0  0  0  0  0  0  0  0  0  0  0
  -13.2409   -2.0309   26.2036 C   0  0  0  0  0  0  0  0  0  0  0  0
  -13.3364    1.0755   24.3196 C   0  0  0  0  0  0  0  0  0  0  0  0
  -13.6961   -1.0310   25.3912 C   0  0  0  0  0  0  0  0  0  0  0  0
  -14.1279    0.6837   23.2546 C   0  0  0  0  0  0  0  0  0  0  0  0
  -13.8477    0.6828   22.2852 C   0  0  0  0  0  0  0  0  0  0  0  0
  -14.6286    0.1446   21.1406 C   0  0  0  0  0  0  0  0  0  0  0  0
  -15.8474   -0.3500   21.4995 C   0  0  0  0  0  0  0  0  0  0  0  0
  -16.2413   -0.3463   22.8064 C   0  0  0  0  0  0  0  0  0  0  0  0
  2  3  1  0
  9 13  1  0
  4 14  1  0
 14 15  2  0
 14 16  1  0
  6 17  1  0
  7 27  1  0
 26 27  1  0
 25 28  1  0
 28 30  1  0
 30 31  1  0
 27 32  1  6
 30 32  1  1
 29 33  1  0
 31 34  1  0
 31 35  1  0
 33 35  1  0
 34 36  2  3
 36 37  1  0
 37 38  1  0
 38 39  2  3
 39 40  1  0
 28 29  1  1
 17 18  2  0
 18 19  1  0
 19 20  2  0
 20 22  1  0
 22 21  2  0
 21 17  1  0
 12 23  2  0
 23 24  1  0
 24 25  2  0
 25 26  1  0
 26 11  2  0
  1  2  2  0
  2  7  1  0
  7  6  2  0
  6  5  1  0
  5  4  2  0
  4  1  1  0
  3  8  2  0
  8  9  1  0
  9 10  2  0
 10 12  1  0
 12 11  1  0
 11  3  1  0
M  END
$$$$
