No_7649-complexes_sdf/6BKW-FPZ/2024-09-17-14-21-01/
     RDKit          3D

 40 44  0  0  0  0  0  0  0  0999 V2000
   -7.7129    4.2099   27.0854 C   0  0  0  0  0  0  0  0  0  0  0  0
   -7.7814    5.1722   27.8972 C   0  0  0  0  0  0  0  0  0  0  0  0
   -8.8998    3.8713   26.3707 C   0  0  0  0  0  0  0  0  0  0  0  0
   -8.9563    2.6796   25.5490 C   0  0  0  0  0  0  0  0  0  0  0  0
   -8.8131    6.1334   27.9344 C   0  0  0  0  0  0  0  0  0  0  0  0
   -9.9804    5.8121   27.1929 C   0  0  0  0  0  0  0  0  0  0  0  0
   -9.9861    4.6836   26.4532 C   0  0  0  0  0  0  0  0  0  0  0  0
   -9.7347    1.7154   26.0600 C   0  0  0  0  0  0  0  0  0  0  0  0
   -9.5396    0.7709   26.3463 C   0  0  0  0  0  0  0  0  0  0  0  0
   -8.0797    0.2301   26.3469 C   0  0  0  0  0  0  0  0  0  0  0  0
   -7.2540    0.2920   27.4193 C   0  0  0  0  0  0  0  0  0  0  0  0
   -6.1870   -0.0339   27.5762 C   0  0  0  0  0  0  0  0  0  0  0  0
   -5.2321    0.2507   28.7163 C   0  0  0  0  0  0  0  0  0  0  0  0
   -4.7006    1.1077   28.9706 C   0  0  0  0  0  0  0  0  0  0  0  0
   -5.2495   -0.9357   29.7045 C   0  0  0  0  0  0  0  0  0  0  0  0
   -4.4802   -0.8002   30.8966 C   0  0  0  0  0  0  0  0  0  0  0  0
   -3.6738    0.2830   31.0775 C   0  0  0  0  0  0  0  0  0  0  0  0
   -3.6906    1.2440   30.1608 C   0  0  0  0  0  0  0  0  0  0  0  0
   -5.4997   -0.8028   26.4929 C   0  0  0  0  0  0  0  0  0  0  0  0
   -7.6202   -0.3645   25.1173 C   0  0  0  0  0  0  0  0  0  0  0  0
   -6.2552   -0.9357   25.2617 C   0  0  0  0  0  0  0  0  0  0  0  0
  -10.3398   -0.2610   27.0674 C   0  0  1  0  0  0  0  0  0  0  0  0
  -10.2121   -1.0186   27.8589 N   0  0  0  0  0  0  0  0  0  0  0  0
  -11.0695   -1.7924   28.6152 C   0  0  0  0  0  0  0  0  0  0  0  0
  -12.0312    0.1387   27.1905 Cl  0  0  0  0  0  0  0  0  0  0  0  0
  -10.3598   -2.7995   29.3731 C   0  0  0  0  0  0  0  0  0  0  0  0
  -10.8980   -3.4622   30.4223 C   0  0  0  0  0  0  0  0  0  0  0  0
  -10.0740   -4.1563   31.2834 C   0  0  0  0  0  0  0  0  0  0  0  0
   -8.7125   -4.3396   30.9988 C   0  0  0  0  0  0  0  0  0  0  0  0
   -8.1491   -3.6798   29.9408 C   0  0  0  0  0  0  0  0  0  0  0  0
   -8.9164   -2.8463   29.2217 C   0  0  0  0  0  0  0  0  0  0  0  0
  -12.2130   -1.7693   28.8137 O   0  0  0  0  0  0  0  0  0  0  0  0
   -4.6145   -1.9549   31.8545 C   0  0  0  0  0  0  0  0  0  0  0  0
   -5.3976   -1.8038   32.8452 N   0  0  0  0  0  0  0  0  0  0  0  0
   -4.9558   -1.7412   34.1609 C   0  0  0  0  0  0  0  0  0  0  0  0
   -5.9681   -1.7359   35.2435 C   0  0  0  0  0  0  0  0  0  0  0  0
   -6.7798   -2.3357   32.8013 C   0  0  0  0  0  0  0  0  0  0  0  0
   -7.2931   -3.0116   33.7279 C   0  0  0  0  0  0  0  0  0  0  0  0
   -6.9776   -2.6871   35.1058 C   0  0  0  0  0  0  0  0  0  0  0  0
   -3.8177   -2.8630   31.7331 O   0  0  0  0  0  0  0  0  0  0  0  0
  3  4  1  0
  4  8  1  0
  8  9  2  3
  9 10  1  0
 12 13  1  0
  9 22  1  0
 22 23  1  0
 23 24  1  0
 22 25  1  1
 24 26  1  0
 24 32  2  0
 16 33  1  0
 33 34  1  0
 34 35  1  0
 34 37  1  0
 37 38  1  0
 36 39  1  0
 33 40  2  0
 35 36  1  0
 39 38  1  0
 10 11  2  0
 11 12  1  0
 12 19  2  0
 19 21  1  0
 21 20  2  0
 20 10  1  0
  1  2  2  0
  2  5  1  0
  5  6  2  0
  6  7  1  0
  7  3  2  0
  3  1  1  0
 26 27  2  0
 27 28  1  0
 28 29  2  0
 29 30  1  0
 30 31  2  0
 31 26  1  0
 13 14  2  0
 14 18  1  0
 18 17  2  0
 17 16  1  0
 16 15  2  0
 15 13  1  0
M  END
$$$$
