No_7095-complexes_sdf/6BKW-FPZ/2024-09-17-14-21-01/
     RDKit          3D

 36 40  0  0  0  0  0  0  0  0999 V2000
   -7.7129    4.2099   27.0854 C   0  0  0  0  0  0  0  0  0  0  0  0
   -7.7814    5.1722   27.8972 C   0  0  0  0  0  0  0  0  0  0  0  0
   -8.8998    3.8713   26.3707 C   0  0  0  0  0  0  0  0  0  0  0  0
   -9.7416    3.2213   26.9591 C   0  0  0  0  0  0  0  0  0  0  0  0
  -10.1082    3.3017   28.0352 C   0  0  0  0  0  0  0  0  0  0  0  0
   -8.8391    5.2426   28.9792 C   0  0  0  0  0  0  0  0  0  0  0  0
   -9.9642    4.4471   28.9321 C   0  0  0  0  0  0  0  0  0  0  0  0
  -10.4778    2.1202   26.1134 C   0  0  2  0  0  0  0  0  0  0  0  0
  -10.3823    0.9131   26.4966 C   0  0  0  0  0  0  0  0  0  0  0  0
  -10.0023    0.3587   27.2516 C   0  0  0  0  0  0  0  0  0  0  0  0
  -10.0921   -1.1235   27.6732 C   0  0  0  0  0  0  0  0  0  0  0  0
  -10.8578   -1.8269   26.8721 C   0  0  0  0  0  0  0  0  0  0  0  0
  -11.5097   -1.2861   25.8333 C   0  0  0  0  0  0  0  0  0  0  0  0
  -11.3415    0.0324   25.6086 C   0  0  0  0  0  0  0  0  0  0  0  0
  -10.7900    2.6141   24.7943 C   0  0  0  0  0  0  0  0  0  0  0  0
  -11.6120    2.5996   24.1229 C   0  0  0  0  0  0  0  0  0  0  0  0
  -12.9390    2.2802   24.6848 C   0  0  0  0  0  0  0  0  0  0  0  0
  -12.9345    0.9826   25.2776 C   0  0  0  0  0  0  0  0  0  0  0  0
  -11.7642    3.2829   22.7558 C   0  0  1  0  0  0  0  0  0  0  0  0
  -11.8855    4.5071   22.7339 C   0  0  0  0  0  0  0  0  0  0  0  0
  -10.5986    2.8805   21.8566 C   0  0  0  0  0  0  0  0  0  0  0  0
  -13.0056    2.6658   21.9552 C   0  0  0  0  0  0  0  0  0  0  0  0
  -12.3715   -2.0649   24.9767 C   0  0  0  0  0  0  0  0  0  0  0  0
  -12.5812   -3.0777   24.9527 N   0  0  0  0  0  0  0  0  0  0  0  0
  -12.7466   -1.3546   23.8316 O   0  0  0  0  0  0  0  0  0  0  0  0
  -13.3492   -3.9449   24.0543 C   0  0  0  0  0  0  0  0  0  0  0  0
   -6.8190    6.0232   28.1964 O   0  0  0  0  0  0  0  0  0  0  0  0
  -10.1044    3.6389   20.9342 C   0  0  0  0  0  0  0  0  0  0  0  0
  -10.0310    1.5348   22.0277 C   0  0  0  0  0  0  0  0  0  0  0  0
  -10.3626    5.0285   20.8527 C   0  0  0  0  0  0  0  0  0  0  0  0
  -11.3270    5.5194   21.7999 C   0  0  0  0  0  0  0  0  0  0  0  0
  -12.8899    1.4599   21.4216 C   0  0  0  0  0  0  0  0  0  0  0  0
  -10.6900    0.4114   21.4094 C   0  0  0  0  0  0  0  0  0  0  0  0
  -12.0305    0.4339   21.1917 C   0  0  0  0  0  0  0  0  0  0  0  0
  -14.1854    3.4282   21.9267 C   0  0  0  0  0  0  0  0  0  0  0  0
  -15.2632    3.0646   21.1933 C   0  0  0  0  0  0  0  0  0  0  0  0
  1  2  1  0
  1  3  1  0
  3  4  2  0
  4  5  1  0
  2  6  2  0
  5  7  2  0
  6  7  1  0
  8  4  1  6
  8  9  1  0
  8 15  1  0
 15 16  2  0
 16 17  1  0
 14 18  1  0
 17 18  1  0
 19 16  1  1
 19 20  1  0
 19 21  1  0
 19 22  1  0
 13 23  1  0
 23 24  1  0
 23 25  2  0
 24 26  1  0
  2 27  1  0
 21 29  1  0
 28 30  1  0
 30 31  1  0
 22 32  2  0
 29 33  2  0
 32 34  1  0
 33 34  1  0
 22 35  1  0
 35 36  2  0
 20 31  1  0
 28 21  1  0
  9 10  2  0
 10 11  1  0
 11 12  2  0
 12 13  1  0
 13 14  2  0
 14  9  1  0
M  END
$$$$
