No_7546-complexes_sdf/6BKW-FPZ/2024-09-17-14-21-01/
     RDKit          3D

 22 25  0  0  0  0  0  0  0  0999 V2000
   -7.9040    3.9820   27.1177 C   0  0  0  0  0  0  0  0  0  0  0  0
   -7.8663    4.8694   27.9238 C   0  0  0  0  0  0  0  0  0  0  0  0
   -9.0491    3.8523   26.2542 C   0  0  0  0  0  0  0  0  0  0  0  0
   -8.7661    5.9491   27.9690 C   0  0  0  0  0  0  0  0  0  0  0  0
   -9.9279    4.8544   26.1938 C   0  0  0  0  0  0  0  0  0  0  0  0
   -9.8044    5.9413   27.0782 C   0  0  0  0  0  0  0  0  0  0  0  0
   -7.0257    2.8867   27.1969 N   0  0  0  0  0  0  0  0  0  0  0  0
   -5.9683    2.9578   27.9777 C   0  0  0  0  0  0  0  0  0  0  0  0
   -7.4258    1.5702   26.7631 C   0  0  0  0  0  0  0  0  0  0  0  0
   -5.0336    1.8458   28.0728 C   0  0  0  0  0  0  0  0  0  0  0  0
   -6.6059    0.4810   27.0385 C   0  0  0  0  0  0  0  0  0  0  0  0
   -6.9306   -0.8086   26.6315 C   0  0  0  0  0  0  0  0  0  0  0  0
   -5.3975    0.7005   27.7155 C   0  0  0  0  0  0  0  0  0  0  0  0
   -8.1685   -1.0515   26.2436 C   0  0  0  0  0  0  0  0  0  0  0  0
   -9.0153    0.0995   25.9516 C   0  0  0  0  0  0  0  0  0  0  0  0
   -8.6366    1.3337   26.2994 N   0  0  0  0  0  0  0  0  0  0  0  0
   -4.4816   -0.4559   27.9914 C   0  0  0  0  0  0  0  0  0  0  0  0
   -4.6016   -1.1319   29.1784 C   0  0  0  0  0  0  0  0  0  0  0  0
   -3.6905   -2.1231   29.5846 C   0  0  0  0  0  0  0  0  0  0  0  0
   -2.6998   -2.4695   28.6675 C   0  0  0  0  0  0  0  0  0  0  0  0
   -3.3769   -0.8515   27.2366 C   0  0  0  0  0  0  0  0  0  0  0  0
   -2.5116   -1.7979   27.4911 C   0  0  0  0  0  0  0  0  0  0  0  0
  1  7  1  0
  7  8  1  0
  7  9  1  0
 10 13  1  0
 11 13  1  0
 13 17  1  0
  8 10  1  0
  9 16  2  0
 16 15  1  0
 15 14  2  0
 14 12  1  0
 12 11  2  0
 11  9  1  0
 17 18  2  0
 18 19  1  0
 19 20  2  0
 20 22  1  0
 22 21  2  0
 21 17  1  0
  1  2  2  0
  2  4  1  0
  4  6  2  0
  6  5  1  0
  5  3  2  0
  3  1  1  0
M  END
$$$$
