No_7604-complexes_sdf/6BKW-FPZ/2024-09-17-14-21-01/
     RDKit          3D

 22 23  0  0  0  0  0  0  0  0999 V2000
   -7.9040    3.9820   27.1177 C   0  0  0  0  0  0  0  0  0  0  0  0
   -7.8663    4.8694   27.9238 C   0  0  0  0  0  0  0  0  0  0  0  0
   -9.0501    3.8017   26.2617 C   0  0  0  0  0  0  0  0  0  0  0  0
  -10.0189    4.7608   26.3707 C   0  0  0  0  0  0  0  0  0  0  0  0
   -8.6973    5.9722   27.8968 C   0  0  0  0  0  0  0  0  0  0  0  0
   -9.8216    5.8946   27.1241 C   0  0  0  0  0  0  0  0  0  0  0  0
   -9.1437    2.6293   25.4175 C   0  0  0  0  0  0  0  0  0  0  0  0
   -9.9232    2.7400   24.3320 N   0  0  0  0  0  0  0  0  0  0  0  0
  -10.8272    2.1568   23.9885 C   0  0  0  0  0  0  0  0  0  0  0  0
  -11.5406    2.3966   22.7538 C   0  0  0  0  0  0  0  0  0  0  0  0
  -11.3808    0.9856   24.6956 C   0  0  0  0  0  0  0  0  0  0  0  0
  -12.4880    0.2861   24.2393 C   0  0  0  0  0  0  0  0  0  0  0  0
  -12.6364    1.6831   22.2951 C   0  0  0  0  0  0  0  0  0  0  0  0
  -13.0828    0.6363   23.0496 C   0  0  0  0  0  0  0  0  0  0  0  0
   -8.8516    1.4999   25.9073 O   0  0  0  0  0  0  0  0  0  0  0  0
  -14.4528   -0.2152   22.4601 Cl  0  0  0  0  0  0  0  0  0  0  0  0
   -6.9910    2.9748   27.1576 F   0  0  0  0  0  0  0  0  0  0  0  0
  -11.0296    3.5630   21.9317 C   0  0  1  0  0  0  0  0  0  0  0  0
  -10.8084    5.0440   22.6075 Cl  0  0  0  0  0  0  0  0  0  0  0  0
  -10.5618    3.3735   20.5971 C   0  0  0  0  0  0  0  0  0  0  0  0
   -9.8450    2.5875   20.4163 F   0  0  0  0  0  0  0  0  0  0  0  0
   -9.9247    4.5964   20.2465 F   0  0  0  0  0  0  0  0  0  0  0  0
  3  7  1  0
  7  8  1  0
  8  9  1  0
  7 15  2  0
 14 16  1  0
  1 17  1  0
 10 18  1  0
 18 19  1  1
 18 20  1  0
 20 21  1  0
 20 22  1  0
  9 10  2  0
 10 13  1  0
 13 14  2  0
 14 12  1  0
 12 11  2  0
 11  9  1  0
  1  2  2  0
  2  5  1  0
  5  6  2  0
  6  4  1  0
  4  3  2  0
  3  1  1  0
M  END
$$$$
