No_752-complexes_sdf/6BKW-FPZ/2024-09-17-14-21-01/
     RDKit          3D

 40 44  0  0  0  0  0  0  0  0999 V2000
   -7.9040    3.9820   27.1177 C   0  0  0  0  0  0  0  0  0  0  0  0
   -9.0711    4.3164   27.0630 C   0  0  0  0  0  0  0  0  0  0  0  0
   -9.5182    5.5541   27.5777 C   0  0  0  0  0  0  0  0  0  0  0  0
   -7.4468    2.6843   26.6499 C   0  0  0  0  0  0  0  0  0  0  0  0
   -8.3856    1.7878   26.2216 C   0  0  0  0  0  0  0  0  0  0  0  0
   -9.6812    2.2328   26.0889 C   0  0  0  0  0  0  0  0  0  0  0  0
  -10.0147    3.4312   26.5259 C   0  0  0  0  0  0  0  0  0  0  0  0
   -7.9132    0.4733   25.8127 C   0  0  0  0  0  0  0  0  0  0  0  0
   -7.2363   -0.3021   26.6221 N   0  0  0  0  0  0  0  0  0  0  0  0
   -7.2634   -0.1431   27.8768 C   0  0  0  0  0  0  0  0  0  0  0  0
   -6.3552   -1.2627   26.0584 C   0  0  0  0  0  0  0  0  0  0  0  0
   -8.5627    6.6592   27.4942 C   0  0  0  0  0  0  0  0  0  0  0  0
   -8.2274    0.1374   24.6512 O   0  0  0  0  0  0  0  0  0  0  0  0
   -8.7699    7.6168   26.4714 C   0  0  0  0  0  0  0  0  0  0  0  0
   -7.4949    8.4578   26.4287 C   0  0  0  0  0  0  0  0  0  0  0  0
   -7.2267    6.4561   27.9014 C   0  0  0  0  0  0  0  0  0  0  0  0
   -6.6617    7.7916   27.4447 C   0  0  0  0  0  0  0  0  0  0  0  0
   -6.7165   -1.2979   28.6857 C   0  0  0  0  0  0  0  0  0  0  0  0
   -5.8594   -2.3242   26.8363 C   0  0  0  0  0  0  0  0  0  0  0  0
   -5.8980   -2.2014   28.1862 C   0  0  0  0  0  0  0  0  0  0  0  0
  -11.4261    3.8572   26.2551 C   0  0  0  0  0  0  0  0  0  0  0  0
  -12.2590    2.9972   26.7570 C   0  0  0  0  0  0  0  0  0  0  0  0
  -13.5901    3.3397   26.8123 C   0  0  0  0  0  0  0  0  0  0  0  0
  -14.5895    2.5570   27.4595 C   0  0  0  0  0  0  0  0  0  0  0  0
  -14.2549    1.7965   28.1318 C   0  0  0  0  0  0  0  0  0  0  0  0
  -12.8923    1.2505   28.3279 C   0  0  0  0  0  0  0  0  0  0  0  0
  -11.9192    2.0018   27.6763 C   0  0  0  0  0  0  0  0  0  0  0  0
   -5.3871   -3.2426   29.0973 C   0  0  0  0  0  0  0  0  0  0  0  0
   -6.1181   -3.9245   29.5246 F   0  0  0  0  0  0  0  0  0  0  0  0
   -4.6710   -2.5117   30.1237 F   0  0  0  0  0  0  0  0  0  0  0  0
   -4.2958   -3.8094   28.4488 F   0  0  0  0  0  0  0  0  0  0  0  0
  -15.3018    0.8065   28.9265 C   0  0  0  0  0  0  0  0  0  0  0  0
  -16.2497    1.2774   29.4865 C   0  0  0  0  0  0  0  0  0  0  0  0
  -15.0357   -0.6033   28.9434 C   0  0  0  0  0  0  0  0  0  0  0  0
  -14.1214   -1.0288   28.4088 F   0  0  0  0  0  0  0  0  0  0  0  0
  -16.0126   -1.3956   29.6023 C   0  0  0  0  0  0  0  0  0  0  0  0
  -15.8018   -2.7687   29.6865 C   0  0  0  0  0  0  0  0  0  0  0  0
  -14.5480   -3.1999   29.7030 C   0  0  0  0  0  0  0  0  0  0  0  0
  -17.3206    0.9294   29.7794 C   0  0  0  0  0  0  0  0  0  0  0  0
  -17.1997   -0.6954   30.0865 C   0  0  0  0  0  0  0  0  0  0  0  0
  2  3  1  0
  5  8  1  0
  8  9  1  0
  9 10  1  0
  9 11  1  0
  3 12  1  0
  8 13  2  0
 12 14  1  0
 14 15  2  0
 12 16  1  0
 15 17  1  0
 16 17  2  0
 18 20  1  0
 19 20  1  0
  7 21  1  0
 21 22  1  0
 20 28  1  0
 28 29  1  0
 28 30  1  0
 28 31  1  0
 25 32  1  0
 34 35  1  0
 36 37  1  0
 37 38  1  0
 10 18  1  0
 19 11  1  0
 32 33  2  0
 33 39  1  0
 39 40  2  0
 40 36  1  0
 36 34  2  0
 34 32  1  0
  1  2  2  0
  2  7  1  0
  7  6  2  0
  6  5  1  0
  5  4  2  0
  4  1  1  0
 22 23  2  0
 23 24  1  0
 24 25  2  0
 25 26  1  0
 26 27  2  0
 27 22  1  0
M  END
$$$$
