No_7410-complexes_sdf/6BKW-FPZ/2024-09-17-14-21-01/
     RDKit          3D

 10 10  0  0  0  0  0  0  0  0999 V2000
   -7.9040    3.9820   27.1177 C   0  0  0  0  0  0  0  0  0  0  0  0
   -7.8663    4.8694   27.9238 C   0  0  0  0  0  0  0  0  0  0  0  0
   -9.0806    3.1428   27.1220 C   0  0  0  0  0  0  0  0  0  0  0  0
   -8.9544    1.8782   26.5468 C   0  0  0  0  0  0  0  0  0  0  0  0
   -8.8087    5.7523   27.9889 C   0  0  0  0  0  0  0  0  0  0  0  0
  -10.1693    5.2486   27.8066 C   0  0  0  0  0  0  0  0  0  0  0  0
  -10.1930    3.9816   27.2324 C   0  0  0  0  0  0  0  0  0  0  0  0
   -8.1537    0.9685   27.1509 C   0  0  0  0  0  0  0  0  0  0  0  0
   -7.9049   -0.1054   26.8440 C   0  0  0  0  0  0  0  0  0  0  0  0
   -8.5911   -0.6488   25.6908 C   0  0  0  0  0  0  0  0  0  0  0  0
  1  2  1  0
  1  3  1  0
  3  4  2  3
  2  5  1  0
  5  6  1  0
  3  7  1  0
  6  7  1  0
  4  8  1  0
  8  9  2  3
  9 10  1  0
M  END
$$$$
