No_7523-complexes_sdf/6BKW-FPZ/2024-09-17-14-21-01/
     RDKit          3D

 34 38  0  0  0  0  0  0  0  0999 V2000
   -7.9040    3.9820   27.1177 C   0  0  0  0  0  0  0  0  0  0  0  0
   -7.8663    4.8694   27.9238 C   0  0  0  0  0  0  0  0  0  0  0  0
   -9.0501    3.8017   26.2617 C   0  0  0  0  0  0  0  0  0  0  0  0
  -10.0189    4.7608   26.3707 C   0  0  0  0  0  0  0  0  0  0  0  0
   -8.6973    5.9722   27.8968 C   0  0  0  0  0  0  0  0  0  0  0  0
   -9.8216    5.8946   27.1241 C   0  0  0  0  0  0  0  0  0  0  0  0
   -9.3622    2.6765   25.4475 C   0  0  0  0  0  0  0  0  0  0  0  0
  -10.1698    2.0777   25.6449 O   0  0  0  0  0  0  0  0  0  0  0  0
   -8.8840    2.8213   24.1451 O   0  0  0  0  0  0  0  0  0  0  0  0
   -9.4100    1.9255   23.2535 C   0  0  0  0  0  0  0  0  0  0  0  0
   -6.9922    2.9088   27.1611 O   0  0  0  0  0  0  0  0  0  0  0  0
   -7.3219    1.6278   27.6092 C   0  0  0  0  0  0  0  0  0  0  0  0
   -6.1210    0.8005   27.6524 C   0  0  0  0  0  0  0  0  0  0  0  0
   -4.8038    1.2869   27.5525 C   0  0  0  0  0  0  0  0  0  0  0  0
   -3.7094    0.5309   27.7801 C   0  0  0  0  0  0  0  0  0  0  0  0
   -2.4710    0.9447   27.8343 C   0  0  0  0  0  0  0  0  0  0  0  0
   -4.0063   -0.8976   27.9108 C   0  0  0  0  0  0  0  0  0  0  0  0
   -5.2744   -1.4203   27.9028 C   0  0  0  0  0  0  0  0  0  0  0  0
   -6.3555   -0.5601   27.7945 C   0  0  0  0  0  0  0  0  0  0  0  0
   -1.6000    0.3942   28.4978 F   0  0  0  0  0  0  0  0  0  0  0  0
   -1.9709    0.9939   26.4636 F   0  0  0  0  0  0  0  0  0  0  0  0
   -9.9471    2.0004   22.3170 C   0  0  0  0  0  0  0  0  0  0  0  0
  -10.3841    3.3888   21.8995 C   0  0  0  0  0  0  0  0  0  0  0  0
  -10.3242    4.3803   22.8473 C   0  0  0  0  0  0  0  0  0  0  0  0
   -8.7748    0.6099   23.7196 C   0  0  0  0  0  0  0  0  0  0  0  0
   -8.6303   -0.4085   22.7529 C   0  0  0  0  0  0  0  0  0  0  0  0
   -9.4528   -0.2541   21.5502 C   0  0  0  0  0  0  0  0  0  0  0  0
  -10.0035    1.0365   21.2489 C   0  0  0  0  0  0  0  0  0  0  0  0
  -10.9765    3.6034   20.5842 C   0  0  0  0  0  0  0  0  0  0  0  0
  -10.9427    5.7122   22.4609 C   0  0  0  0  0  0  0  0  0  0  0  0
  -11.1478    2.8012   19.6837 C   0  0  0  0  0  0  0  0  0  0  0  0
  -10.6338    1.3528   19.9715 C   0  0  0  0  0  0  0  0  0  0  0  0
  -11.5288    5.7607   21.2528 C   0  0  0  0  0  0  0  0  0  0  0  0
  -11.5546    4.8871   20.3822 C   0  0  0  0  0  0  0  0  0  0  0  0
  3  7  1  0
  7  8  2  0
  7  9  1  0
  9 10  1  0
  1 11  1  0
 11 12  1  0
 15 16  1  0
 16 20  1  0
 16 21  1  0
 12 13  1  0
 10 22  2  0
 28 27  2  0
 27 26  1  0
 26 25  2  0
 25 10  1  0
 13 14  2  0
 14 15  1  0
 15 17  2  0
 17 18  1  0
 18 19  2  0
 19 13  1  0
 23 24  2  0
 24 30  1  0
 30 33  2  0
 33 34  1  0
 34 29  2  0
 22 23  1  0
 23 29  1  0
 29 31  1  0
 31 32  2  0
 32 28  1  0
 28 22  1  0
  1  2  2  0
  2  5  1  0
  5  6  2  0
  6  4  1  0
  4  3  2  0
  3  1  1  0
M  END
$$$$
