No_7507-complexes_sdf/6BKW-FPZ/2024-09-17-14-21-01/
     RDKit          3D

 14 15  0  0  0  0  0  0  0  0999 V2000
   -7.2496    3.8871   27.4508 C   0  0  0  0  0  0  0  0  0  0  0  0
   -7.6161    2.7143   27.1523 C   0  0  0  0  0  0  0  0  0  0  0  0
   -8.8151    2.3467   26.5662 C   0  0  0  0  0  0  0  0  0  0  0  0
   -8.2094    4.9795   27.3166 C   0  0  0  0  0  0  0  0  0  0  0  0
   -9.4500    4.7284   26.7860 C   0  0  0  0  0  0  0  0  0  0  0  0
   -9.7393    3.4301   26.3956 C   0  0  0  0  0  0  0  0  0  0  0  0
   -7.8082    6.2493   27.6554 N   0  0  0  0  0  0  0  0  0  0  0  0
   -9.1612    0.9907   26.2656 C   0  0  0  0  0  0  0  0  0  0  0  0
   -9.0122    0.6003   25.0673 C   0  0  0  0  0  0  0  0  0  0  0  0
   -8.6030    1.5614   24.0109 C   0  0  0  0  0  0  0  0  0  0  0  0
   -8.6331    1.1991   22.6284 C   0  0  0  0  0  0  0  0  0  0  0  0
   -8.8365   -0.1208   22.2907 C   0  0  0  0  0  0  0  0  0  0  0  0
   -9.1188   -1.1086   23.2212 C   0  0  0  0  0  0  0  0  0  0  0  0
   -9.2271   -0.7262   24.5433 C   0  0  0  0  0  0  0  0  0  0  0  0
  4  7  1  0
  3  8  1  0
  8  9  1  0
  1  2  2  0
  2  3  1  0
  3  6  2  0
  6  5  1  0
  5  4  2  0
  4  1  1  0
  9 10  2  0
 10 11  1  0
 11 12  2  0
 12 13  1  0
 13 14  2  0
 14  9  1  0
M  END
$$$$
