No_7782-complexes_sdf/6BKW-FPZ/2024-09-17-14-21-01/
     RDKit          3D

 19 21  0  0  0  0  0  0  0  0999 V2000
   -7.7129    4.2099   27.0854 C   0  0  0  0  0  0  0  0  0  0  0  0
   -8.9133    4.4736   27.0998 C   0  0  0  0  0  0  0  0  0  0  0  0
   -9.7135    3.9633   26.0300 C   0  0  0  0  0  0  0  0  0  0  0  0
   -7.1708    2.9509   26.6517 C   0  0  0  0  0  0  0  0  0  0  0  0
   -8.1422    2.1350   26.0104 C   0  0  0  0  0  0  0  0  0  0  0  0
   -9.3363    2.7131   25.6563 C   0  0  0  0  0  0  0  0  0  0  0  0
  -10.1662    1.7841   24.8726 C   0  0  1  0  0  0  0  0  0  0  0  0
  -10.7977    2.1144   23.8549 C   0  0  0  0  0  0  0  0  0  0  0  0
  -10.8323    3.4943   23.4572 C   0  0  0  0  0  0  0  0  0  0  0  0
  -11.5931    3.9315   22.3047 C   0  0  0  0  0  0  0  0  0  0  0  0
  -12.1083    3.0111   21.5316 C   0  0  0  0  0  0  0  0  0  0  0  0
  -11.4131    1.3254   22.8816 C   0  0  0  0  0  0  0  0  0  0  0  0
  -12.0602    1.6950   21.7597 C   0  0  0  0  0  0  0  0  0  0  0  0
   -9.2416    0.4977   24.6846 C   0  0  0  0  0  0  0  0  0  0  0  0
   -7.9790    0.9169   25.5193 N   0  0  0  0  0  0  0  0  0  0  0  0
  -11.2740    1.4646   25.9362 C   0  0  0  0  0  0  0  0  0  0  0  0
   -6.7607    4.9841   28.1028 C   0  0  0  0  0  0  0  0  0  0  0  0
  -11.8033    2.2933   26.7294 C   0  0  0  0  0  0  0  0  0  0  0  0
  -12.9123    1.9646   27.5983 C   0  0  0  0  0  0  0  0  0  0  0  0
  6  7  1  0
  7  8  1  6
  7 14  1  0
  5 15  1  0
 14 15  1  0
  7 16  1  0
  1 17  1  0
 16 18  2  3
 18 19  1  0
  1  2  2  0
  2  3  1  0
  3  6  2  0
  6  5  1  0
  5  4  2  0
  4  1  1  0
  8  9  2  0
  9 10  1  0
 10 11  2  0
 11 13  1  0
 13 12  2  0
 12  8  1  0
M  END
$$$$
