No_7814-complexes_sdf/6BKW-FPZ/2024-09-17-14-21-01/
     RDKit          3D

 27 30  0  0  0  0  0  0  0  0999 V2000
   -7.7129    4.2099   27.0854 C   0  0  0  0  0  0  0  0  0  0  0  0
   -8.2112    3.0637   26.9225 C   0  0  0  0  0  0  0  0  0  0  0  0
   -8.4224    5.2106   27.8516 C   0  0  0  0  0  0  0  0  0  0  0  0
   -9.5628    2.7160   27.4089 C   0  0  0  0  0  0  0  0  0  0  0  0
  -10.2639    3.7034   28.1156 C   0  0  0  0  0  0  0  0  0  0  0  0
   -9.7059    4.9514   28.3169 C   0  0  0  0  0  0  0  0  0  0  0  0
  -11.6210    3.4159   28.6340 C   0  0  0  0  0  0  0  0  0  0  0  0
  -12.0063    2.0964   28.7914 C   0  0  0  0  0  0  0  0  0  0  0  0
  -13.2711    1.8145   29.3144 C   0  0  0  0  0  0  0  0  0  0  0  0
  -14.0706    2.8742   29.7475 C   0  0  0  0  0  0  0  0  0  0  0  0
  -13.7308    4.1819   29.5424 C   0  0  0  0  0  0  0  0  0  0  0  0
  -12.4864    4.4650   28.9918 C   0  0  0  0  0  0  0  0  0  0  0  0
   -7.5071    1.9338   26.3015 C   0  0  0  0  0  0  0  0  0  0  0  0
   -6.7139    1.1482   27.2393 C   0  0  0  0  0  0  0  0  0  0  0  0
   -6.4467   -0.1777   26.9609 C   0  0  0  0  0  0  0  0  0  0  0  0
   -7.1885   -0.8208   26.0959 C   0  0  0  0  0  0  0  0  0  0  0  0
   -7.9279   -0.1363   25.1249 C   0  0  0  0  0  0  0  0  0  0  0  0
   -8.2708    1.1459   25.4227 C   0  0  0  0  0  0  0  0  0  0  0  0
   -7.7333    6.8040   27.9675 Cl  0  0  0  0  0  0  0  0  0  0  0  0
   -5.4892   -0.8989   27.9010 C   0  0  0  0  0  0  0  0  0  0  0  0
   -5.8202   -1.6034   28.7220 N   0  0  0  0  0  0  0  0  0  0  0  0
   -5.5117   -1.9697   29.7537 C   0  0  0  0  0  0  0  0  0  0  0  0
   -6.1848   -2.7616   30.7885 C   0  0  0  0  0  0  0  0  0  0  0  0
   -5.7154   -2.9175   32.1316 C   0  0  0  0  0  0  0  0  0  0  0  0
   -4.5359   -2.3063   32.5368 C   0  0  0  0  0  0  0  0  0  0  0  0
   -3.8463   -1.4886   31.6310 C   0  0  0  0  0  0  0  0  0  0  0  0
   -4.3237   -1.2388   30.3908 C   0  0  0  0  0  0  0  0  0  0  0  0
  5  7  1  0
  2 13  1  0
  3 19  1  0
 15 20  1  0
 20 21  2  3
 21 22  1  0
  1  2  2  0
  2  4  1  0
  4  5  2  0
  5  6  1  0
  6  3  2  0
  3  1  1  0
 13 14  2  0
 14 15  1  0
 15 16  2  0
 16 17  1  0
 17 18  2  0
 18 13  1  0
 22 23  2  0
 23 24  1  0
 24 25  2  0
 25 26  1  0
 26 27  2  0
 27 22  1  0
  7  8  2  0
  8  9  1  0
  9 10  2  0
 10 11  1  0
 11 12  2  0
 12  7  1  0
M  END
$$$$
