No_7725-complexes_sdf/6BKW-FPZ/2024-09-17-14-21-01/
     RDKit          3D

 23 26  0  0  0  0  0  0  0  0999 V2000
   -7.9040    3.9820   27.1177 C   0  0  0  0  0  0  0  0  0  0  0  0
   -7.8663    4.8694   27.9238 C   0  0  0  0  0  0  0  0  0  0  0  0
   -9.0501    3.8017   26.2617 C   0  0  0  0  0  0  0  0  0  0  0  0
  -10.0189    4.7608   26.3707 C   0  0  0  0  0  0  0  0  0  0  0  0
   -8.6973    5.9722   27.8968 C   0  0  0  0  0  0  0  0  0  0  0  0
   -9.8216    5.8946   27.1241 C   0  0  0  0  0  0  0  0  0  0  0  0
   -8.9190    2.6219   25.5290 N   0  0  0  0  0  0  0  0  0  0  0  0
   -9.6681    2.4661   24.4814 C   0  0  0  0  0  0  0  0  0  0  0  0
  -10.4296    3.4191   23.9401 C   0  0  0  0  0  0  0  0  0  0  0  0
  -11.2671    3.2898   22.8209 C   0  0  0  0  0  0  0  0  0  0  0  0
   -9.4984    1.2238   23.7498 C   0  0  0  0  0  0  0  0  0  0  0  0
  -10.2466    1.0859   22.5183 C   0  0  0  0  0  0  0  0  0  0  0  0
  -11.0953    2.0968   22.0907 C   0  0  0  0  0  0  0  0  0  0  0  0
   -8.2454    1.5132   26.1214 C   0  0  0  0  0  0  0  0  0  0  0  0
   -8.2149    1.3364   27.3682 C   0  0  0  0  0  0  0  0  0  0  0  0
   -7.4738    2.5761   28.0277 C   0  0  0  0  0  0  0  0  0  0  0  0
  -11.8292    1.8826   20.8113 C   0  0  0  0  0  0  0  0  0  0  0  0
  -13.1292    1.4264   20.9631 C   0  0  0  0  0  0  0  0  0  0  0  0
  -13.8950    1.3506   19.9643 C   0  0  0  0  0  0  0  0  0  0  0  0
  -13.3776    1.6507   18.5797 C   0  0  0  0  0  0  0  0  0  0  0  0
  -12.0868    2.0984   18.4349 C   0  0  0  0  0  0  0  0  0  0  0  0
  -11.2274    2.2876   19.5725 C   0  0  0  0  0  0  0  0  0  0  0  0
  -12.0894    4.3604   22.3285 C   0  0  0  0  0  0  0  0  0  0  0  0
  3  7  1  0
  7  8  1  0
  7 14  1  0
 14 15  1  0
  1 16  1  0
 15 16  1  0
 13 17  1  0
 10 23  1  0
 17 18  2  0
 18 19  1  0
 19 20  2  0
 20 21  1  0
 21 22  2  0
 22 17  1  0
  8  9  2  0
  9 10  1  0
 10 13  2  0
 13 12  1  0
 12 11  2  0
 11  8  1  0
  1  2  2  0
  2  5  1  0
  5  6  2  0
  6  4  1  0
  4  3  2  0
  3  1  1  0
M  END
$$$$
