No_7361-complexes_sdf/6BKW-FPZ/2024-09-17-14-21-01/
     RDKit          3D

 40 44  0  0  0  0  0  0  0  0999 V2000
   -7.2496    3.8871   27.4508 C   0  0  0  0  0  0  0  0  0  0  0  0
   -7.9379    4.9063   27.8518 C   0  0  0  0  0  0  0  0  0  0  0  0
   -7.5112    6.1898   27.6280 C   0  0  0  0  0  0  0  0  0  0  0  0
   -7.4783    2.5435   27.5904 C   0  0  1  0  0  0  0  0  0  0  0  0
   -8.8194    2.2030   27.8879 C   0  0  0  0  0  0  0  0  0  0  0  0
   -9.7541    3.2253   28.0908 C   0  0  0  0  0  0  0  0  0  0  0  0
   -9.3329    4.6048   28.1115 C   0  0  0  0  0  0  0  0  0  0  0  0
   -6.5776    1.4950   27.1797 C   0  0  0  0  0  0  0  0  0  0  0  0
   -5.4426    1.3085   28.0756 C   0  0  0  0  0  0  0  0  0  0  0  0
   -4.5389    0.2386   27.8720 C   0  0  0  0  0  0  0  0  0  0  0  0
   -3.4022    0.1605   28.6973 C   0  0  0  0  0  0  0  0  0  0  0  0
   -2.5442   -0.9162   28.6008 C   0  0  0  0  0  0  0  0  0  0  0  0
   -2.6336   -1.7418   27.5065 C   0  0  0  0  0  0  0  0  0  0  0  0
   -4.5959   -0.6999   26.9001 C   0  0  0  0  0  0  0  0  0  0  0  0
   -5.7582   -0.5490   25.9935 C   0  0  0  0  0  0  0  0  0  0  0  0
   -6.7183    0.4642   26.3298 C   0  0  0  0  0  0  0  0  0  0  0  0
   -3.6979   -1.6803   26.6218 C   0  0  0  0  0  0  0  0  0  0  0  0
  -11.1306    2.9044   28.4980 C   0  0  0  0  0  0  0  0  0  0  0  0
  -11.6381    1.6369   28.4021 C   0  0  0  0  0  0  0  0  0  0  0  0
  -11.2005    0.8503   27.5524 C   0  0  0  0  0  0  0  0  0  0  0  0
   -9.5920    0.8838   27.3935 C   0  0  0  0  0  0  0  0  0  0  0  0
   -6.0264   -1.4503   24.9298 C   0  0  0  0  0  0  0  0  0  0  0  0
   -5.8171   -2.5381   25.0462 O   0  0  0  0  0  0  0  0  0  0  0  0
   -5.9808   -0.8272   23.7834 F   0  0  0  0  0  0  0  0  0  0  0  0
   -8.4706    7.3078   27.6464 C   0  0  0  0  0  0  0  0  0  0  0  0
  -13.1813    1.5964   28.4758 C   0  0  0  0  0  0  0  0  0  0  0  0
  -13.7526    1.4546   29.7400 C   0  0  0  0  0  0  0  0  0  0  0  0
  -15.0789    1.3660   29.9182 C   0  0  0  0  0  0  0  0  0  0  0  0
  -15.6657    1.2868   31.1494 C   0  0  0  0  0  0  0  0  0  0  0  0
  -14.8192    1.3061   32.3013 C   0  0  0  0  0  0  0  0  0  0  0  0
  -13.5016    1.6062   32.1877 C   0  0  0  0  0  0  0  0  0  0  0  0
  -12.9402    1.6756   30.9499 C   0  0  0  0  0  0  0  0  0  0  0  0
  -13.8900    1.6810   27.3387 C   0  0  0  0  0  0  0  0  0  0  0  0
  -14.5734    2.8666   27.1392 C   0  0  0  0  0  0  0  0  0  0  0  0
  -14.4190    3.6113   26.3577 C   0  0  0  0  0  0  0  0  0  0  0  0
  -13.2506    3.5207   25.3890 C   0  0  0  0  0  0  0  0  0  0  0  0
  -12.6419    4.6453   24.8439 C   0  0  0  0  0  0  0  0  0  0  0  0
  -13.5822    2.5184   24.2603 C   0  0  0  0  0  0  0  0  0  0  0  0
  -12.4961    2.1734   23.5297 C   0  0  0  0  0  0  0  0  0  0  0  0
  -12.6277    1.1449   22.7008 C   0  0  0  0  0  0  0  0  0  0  0  0
  1  2  1  0
  2  3  2  3
  1  4  1  0
  4  5  1  0
  2  7  1  0
  6  7  1  0
  4  8  1  6
 15 22  1  0
 22 23  2  0
 22 24  1  0
  3 25  1  0
 19 26  1  0
 26 27  1  0
 26 33  1  0
 33 34  1  0
 34 35  2  3
 35 36  1  0
 36 37  2  0
 36 38  1  0
 38 39  1  0
 39 40  2  0
 10 11  2  0
 11 12  1  0
 12 13  2  0
 13 17  1  0
 17 14  2  0
 27 28  2  0
 28 29  1  0
 29 30  2  0
 30 31  1  0
 31 32  2  0
 32 27  1  0
  5  6  2  0
  6 18  1  0
 18 19  2  0
 19 20  1  0
 20 21  2  0
 21  5  1  0
  8  9  2  0
  9 10  1  0
 10 14  1  0
 14 15  1  0
 15 16  2  0
 16  8  1  0
M  END
$$$$
