No_7682-complexes_sdf/6BKW-FPZ/2024-09-17-14-21-01/
     RDKit          3D

 37 42  0  0  0  0  0  0  0  0999 V2000
   -7.9040    3.9820   27.1177 C   0  0  0  0  0  0  0  0  0  0  0  0
   -7.8663    4.8694   27.9238 C   0  0  0  0  0  0  0  0  0  0  0  0
   -9.0491    3.8523   26.2542 C   0  0  0  0  0  0  0  0  0  0  0  0
   -8.7661    5.9491   27.9690 C   0  0  0  0  0  0  0  0  0  0  0  0
   -9.9279    4.8544   26.1938 C   0  0  0  0  0  0  0  0  0  0  0  0
   -9.8044    5.9413   27.0782 C   0  0  0  0  0  0  0  0  0  0  0  0
   -7.1290    2.7426   27.1066 C   0  0  0  0  0  0  0  0  0  0  0  0
   -7.5166    1.5504   26.6306 N   0  0  0  0  0  0  0  0  0  0  0  0
   -6.0260    2.6388   27.9488 N   0  0  0  0  0  0  0  0  0  0  0  0
   -6.5156    0.6927   27.0489 C   0  0  0  0  0  0  0  0  0  0  0  0
   -5.5916    1.3837   27.7760 C   0  0  2  0  0  0  0  0  0  0  0  0
   -4.3284    0.9266   28.4091 C   0  0  0  0  0  0  0  0  0  0  0  0
   -4.0489   -0.2869   28.7714 C   0  0  0  0  0  0  0  0  0  0  0  0
   -2.8869   -0.6034   29.4328 C   0  0  0  0  0  0  0  0  0  0  0  0
   -2.3388   -1.3140   30.2035 C   0  0  0  0  0  0  0  0  0  0  0  0
   -3.2677   -2.1076   30.9157 C   0  0  0  0  0  0  0  0  0  0  0  0
   -4.6236   -2.0726   30.4128 C   0  0  0  0  0  0  0  0  0  0  0  0
   -5.0927   -1.1052   29.5262 C   0  0  0  0  0  0  0  0  0  0  0  0
   -3.3330    1.7010   28.1455 O   0  0  0  0  0  0  0  0  0  0  0  0
   -6.6488   -0.9674   26.6301 Cl  0  0  0  0  0  0  0  0  0  0  0  0
   -5.6896   -2.9029   31.1533 C   0  0  0  0  0  0  0  0  0  0  0  0
   -6.4565   -2.5246   32.0922 C   0  0  0  0  0  0  0  0  0  0  0  0
   -6.2164   -1.2072   32.7966 C   0  0  0  0  0  0  0  0  0  0  0  0
   -4.9658   -0.6764   32.6879 C   0  0  0  0  0  0  0  0  0  0  0  0
   -7.6415   -3.2217   32.4761 C   0  0  0  0  0  0  0  0  0  0  0  0
   -8.6618   -2.6729   33.0919 C   0  0  0  0  0  0  0  0  0  0  0  0
   -9.8011   -3.4392   33.4508 C   0  0  0  0  0  0  0  0  0  0  0  0
   -9.8559   -4.7370   33.0725 C   0  0  0  0  0  0  0  0  0  0  0  0
   -7.8817   -4.5560   32.1675 C   0  0  0  0  0  0  0  0  0  0  0  0
   -8.9054   -5.2846   32.4357 C   0  0  0  0  0  0  0  0  0  0  0  0
   -2.9035   -2.7406   32.1866 C   0  0  0  0  0  0  0  0  0  0  0  0
   -1.8526   -3.2701   32.3482 C   0  0  0  0  0  0  0  0  0  0  0  0
   -1.4746   -3.8950   33.5982 C   0  0  0  0  0  0  0  0  0  0  0  0
   -2.4584   -3.9291   34.5694 C   0  0  0  0  0  0  0  0  0  0  0  0
   -3.7600   -2.8954   33.3365 C   0  0  0  0  0  0  0  0  0  0  0  0
   -3.5542   -3.5007   34.4276 C   0  0  0  0  0  0  0  0  0  0  0  0
   -4.8527   -1.9541   33.0439 N   0  0  0  0  0  0  0  0  0  0  0  0
  1  7  1  0
  7  8  2  0
  7  9  1  0
  8 10  1  0
  9 11  1  0
 10 11  1  0
 11 12  1  1
 12 13  1  0
 12 19  2  0
 10 20  1  0
 17 21  1  0
 21 22  2  0
 22 23  1  0
 23 24  2  0
 22 25  1  0
 16 31  1  0
 24 37  1  0
 35 37  1  0
 13 14  2  0
 14 15  1  0
 15 16  2  0
 16 17  1  0
 17 18  2  0
 18 13  1  0
  1  2  2  0
  2  4  1  0
  4  6  2  0
  6  5  1  0
  5  3  2  0
  3  1  1  0
 25 26  2  0
 26 27  1  0
 27 28  2  0
 28 30  1  0
 30 29  2  0
 29 25  1  0
 31 32  2  0
 32 33  1  0
 33 34  2  0
 34 36  1  0
 36 35  2  0
 35 31  1  0
M  END
$$$$
