No_7226-complexes_sdf/6BKW-FPZ/2024-09-17-14-21-01/
     RDKit          3D

 40 45  0  0  0  0  0  0  0  0999 V2000
   -7.7129    4.2099   27.0854 C   0  0  0  0  0  0  0  0  0  0  0  0
   -8.2112    3.0637   26.9225 C   0  0  0  0  0  0  0  0  0  0  0  0
   -7.5138    1.9223   27.4249 C   0  0  0  0  0  0  0  0  0  0  0  0
   -8.5309    5.4147   26.8151 C   0  0  0  0  0  0  0  0  0  0  0  0
   -9.6817    5.2393   26.1100 C   0  0  0  0  0  0  0  0  0  0  0  0
  -10.1032    3.9957   25.8534 C   0  0  0  0  0  0  0  0  0  0  0  0
   -9.4035    2.8430   26.2573 C   0  0  0  0  0  0  0  0  0  0  0  0
   -6.1481    1.9922   27.8210 C   0  0  0  0  0  0  0  0  0  0  0  0
   -5.4709    3.2910   27.7094 C   0  0  0  0  0  0  0  0  0  0  0  0
   -6.3346    4.4371   27.6415 C   0  0  0  0  0  0  0  0  0  0  0  0
   -5.1723    0.9253   28.1535 C   0  0  0  0  0  0  0  0  0  0  0  0
   -5.6080   -0.2299   28.1458 O   0  0  0  0  0  0  0  0  0  0  0  0
   -3.9995    1.2028   28.5201 O   0  0  0  0  0  0  0  0  0  0  0  0
  -11.3930    3.8650   25.0901 C   0  0  0  0  0  0  0  0  0  0  0  0
  -12.5321    3.7554   25.7599 C   0  0  0  0  0  0  0  0  0  0  0  0
  -12.5388    3.8566   27.2490 C   0  0  0  0  0  0  0  0  0  0  0  0
  -13.7979    3.8985   27.9292 C   0  0  0  0  0  0  0  0  0  0  0  0
  -14.9537    3.8624   27.1911 C   0  0  0  0  0  0  0  0  0  0  0  0
  -14.9603    3.8499   25.8254 C   0  0  0  0  0  0  0  0  0  0  0  0
  -13.7795    3.8778   25.1140 C   0  0  0  0  0  0  0  0  0  0  0  0
  -11.3369    3.7987   23.6951 C   0  0  0  0  0  0  0  0  0  0  0  0
  -10.4700    3.4919   23.0640 C   0  0  0  0  0  0  0  0  0  0  0  0
  -10.3300    3.4465   21.5967 C   0  0  0  0  0  0  0  0  0  0  0  0
  -11.4836    3.8440   20.9494 C   0  0  0  0  0  0  0  0  0  0  0  0
  -12.5848    4.2870   21.6399 C   0  0  0  0  0  0  0  0  0  0  0  0
  -12.5347    4.3302   22.9894 C   0  0  0  0  0  0  0  0  0  0  0  0
  -13.7771    4.1063   23.6932 C   0  0  0  0  0  0  0  0  0  0  0  0
  -14.8910    4.3304   23.1252 O   0  0  0  0  0  0  0  0  0  0  0  0
   -7.9696    6.7962   27.1322 C   0  0  0  0  0  0  0  0  0  0  0  0
   -8.8830    7.7640   26.5221 C   0  0  0  0  0  0  0  0  0  0  0  0
  -10.0091    1.6912   26.0644 O   0  0  0  0  0  0  0  0  0  0  0  0
   -9.8166    0.8674   25.0750 C   0  0  0  0  0  0  0  0  0  0  0  0
   -8.5926    0.3854   24.7895 C   0  0  0  0  0  0  0  0  0  0  0  0
   -8.3707   -0.4879   23.7031 C   0  0  0  0  0  0  0  0  0  0  0  0
   -9.4620   -0.7747   22.8694 C   0  0  0  0  0  0  0  0  0  0  0  0
  -10.9101    0.4658   24.3053 C   0  0  0  0  0  0  0  0  0  0  0  0
  -10.7211   -0.3488   23.1886 C   0  0  0  0  0  0  0  0  0  0  0  0
  -11.8676   -0.7177   22.3457 C   0  0  0  0  0  0  0  0  0  0  0  0
  -13.0410   -0.4645   22.5064 N   0  0  0  0  0  0  0  0  0  0  0  0
  -14.0223   -0.5867   21.6481 C   0  0  0  0  0  0  0  0  0  0  0  0
  8 11  1  0
 11 12  2  0
 11 13  1  0
  6 14  1  0
 14 21  1  0
 20 27  1  0
 26 27  1  0
 27 28  2  0
  4 29  1  0
 29 30  1  0
  7 31  1  0
 31 32  1  0
 37 38  1  0
 38 39  1  0
 39 40  1  0
 15 14  1  0
 15 16  2  0
 16 17  1  0
 17 18  2  0
 18 19  1  0
 19 20  2  0
 20 15  1  0
 32 33  2  0
 33 34  1  0
 34 35  2  0
 35 37  1  0
 37 36  2  0
 36 32  1  0
  2  3  2  0
  3  8  1  0
  8  9  2  0
  9 10  1  0
 10  1  2  0
  1  2  1  0
  2  7  1  0
  7  6  2  0
  6  5  1  0
  5  4  2  0
  4  1  1  0
 21 22  2  0
 22 23  1  0
 23 24  2  0
 24 25  1  0
 25 26  2  0
 26 21  1  0
M  END
$$$$
