No_7554-complexes_sdf/6BKW-FPZ/2024-09-17-14-21-01/
     RDKit          3D

 27 30  0  0  0  0  0  0  0  0999 V2000
   -7.9040    3.9820   27.1177 C   0  0  0  0  0  0  0  0  0  0  0  0
   -7.8663    4.8694   27.9238 C   0  0  0  0  0  0  0  0  0  0  0  0
   -9.0491    3.8523   26.2542 C   0  0  0  0  0  0  0  0  0  0  0  0
   -8.7661    5.9491   27.9690 C   0  0  0  0  0  0  0  0  0  0  0  0
   -9.9295    4.8502   26.2323 C   0  0  0  0  0  0  0  0  0  0  0  0
   -9.8077    5.9288   27.0933 C   0  0  0  0  0  0  0  0  0  0  0  0
   -7.0146    2.9513   27.1368 F   0  0  0  0  0  0  0  0  0  0  0  0
   -9.1015    2.7190   25.2776 C   0  0  0  0  0  0  0  0  0  0  0  0
  -10.0875    2.0644   25.3590 N   0  0  0  0  0  0  0  0  0  0  0  0
  -10.4367    1.1049   24.5742 C   0  0  0  0  0  0  0  0  0  0  0  0
   -9.6453    0.6713   23.7042 C   0  0  0  0  0  0  0  0  0  0  0  0
   -9.8482    0.5471   22.4355 C   0  0  0  0  0  0  0  0  0  0  0  0
   -8.8579    0.0579   21.4590 C   0  0  0  0  0  0  0  0  0  0  0  0
   -7.6389   -0.4238   21.9960 C   0  0  0  0  0  0  0  0  0  0  0  0
   -7.3838   -0.3859   23.3940 C   0  0  0  0  0  0  0  0  0  0  0  0
   -8.2650    0.1563   24.1861 C   0  0  0  0  0  0  0  0  0  0  0  0
  -11.6188    0.6275   24.4545 O   0  0  0  0  0  0  0  0  0  0  0  0
   -6.0903   -0.9077   23.8180 C   0  0  0  0  0  0  0  0  0  0  0  0
   -5.8798   -2.1636   23.5952 O   0  0  0  0  0  0  0  0  0  0  0  0
   -5.3467   -2.9193   24.5867 C   0  0  0  0  0  0  0  0  0  0  0  0
   -4.5803   -2.2841   25.3949 C   0  0  0  0  0  0  0  0  0  0  0  0
   -3.8233   -2.8922   26.4477 C   0  0  0  0  0  0  0  0  0  0  0  0
   -3.0207   -2.1867   27.3785 C   0  0  0  0  0  0  0  0  0  0  0  0
   -3.1571   -1.0289   27.6051 C   0  0  0  0  0  0  0  0  0  0  0  0
   -3.9748   -0.1724   26.6557 C   0  0  0  0  0  0  0  0  0  0  0  0
   -4.6785   -0.8241   25.6193 C   0  0  0  0  0  0  0  0  0  0  0  0
   -5.4687   -0.3469   24.8786 N   0  0  0  0  0  0  0  0  0  0  0  0
  1  7  1  0
  3  8  1  0
  8  9  1  0
  9 10  1  0
 10 11  1  0
 10 17  2  0
 15 18  1  0
 18 19  1  0
 19 20  1  0
 20 21  1  0
 18 27  2  0
 26 27  1  0
 11 12  2  0
 12 13  1  0
 13 14  2  0
 14 15  1  0
 15 16  2  0
 16 11  1  0
  1  2  2  0
  2  4  1  0
  4  6  2  0
  6  5  1  0
  5  3  2  0
  3  1  1  0
 21 22  2  0
 22 23  1  0
 23 24  2  0
 24 25  1  0
 25 26  2  0
 26 21  1  0
M  END
$$$$
