No_7-complexes_sdf/6BKW-FPZ/2024-09-17-14-21-01/
     RDKit          3D

 13 14  0  0  0  0  0  0  0  0999 V2000
   -7.7129    4.2099   27.0854 C   0  0  0  0  0  0  0  0  0  0  0  0
   -8.2112    3.0637   26.9225 C   0  0  0  0  0  0  0  0  0  0  0  0
   -8.5108    5.3904   26.9436 C   0  0  0  0  0  0  0  0  0  0  0  0
   -7.9752    6.6981   27.2112 C   0  0  0  0  0  0  0  0  0  0  0  0
   -7.4938    1.8178   27.3608 C   0  0  0  0  0  0  0  0  0  0  0  0
   -7.9639    0.5272   27.1538 C   0  0  0  0  0  0  0  0  0  0  0  0
   -9.3179    0.4617   26.7090 C   0  0  0  0  0  0  0  0  0  0  0  0
  -10.0529    1.5590   26.3743 C   0  0  0  0  0  0  0  0  0  0  0  0
   -9.5005    2.8490   26.4954 C   0  0  0  0  0  0  0  0  0  0  0  0
   -9.8121    5.2723   26.4445 C   0  0  0  0  0  0  0  0  0  0  0  0
  -10.3600    3.9438   26.2474 C   0  0  0  0  0  0  0  0  0  0  0  0
   -7.9401    7.5736   26.5727 O   0  0  0  0  0  0  0  0  0  0  0  0
   -7.0592    6.5982   28.3050 O   0  0  0  0  0  0  0  0  0  0  0  0
  3  4  1  0
  4 12  2  0
  4 13  1  0
  2  5  1  0
  5  6  2  0
  6  7  1  0
  7  8  2  0
  8  9  1  0
  1  2  2  0
  2  9  1  0
  9 11  2  0
 11 10  1  0
 10  3  2  0
  3  1  1  0
M  END
$$$$
