No_7575-complexes_sdf/6BKW-FPZ/2024-09-17-14-21-01/
     RDKit          3D

 28 33  0  0  0  0  0  0  0  0999 V2000
   -7.9040    3.9820   27.1177 C   0  0  1  0  0  0  0  0  0  0  0  0
   -7.8663    4.8694   27.9238 C   0  0  0  0  0  0  0  0  0  0  0  0
   -7.4547    2.7080   27.4594 C   0  0  0  0  0  0  0  0  0  0  0  0
   -8.0927    6.2909   27.5184 C   0  0  0  0  0  0  0  0  0  0  0  0
   -9.2641    6.5370   26.7496 C   0  0  0  0  0  0  0  0  0  0  0  0
   -7.9843    1.4981   27.1319 C   0  0  0  0  0  0  0  0  0  0  0  0
   -9.5284    5.4595   25.8176 C   0  0  0  0  0  0  0  0  0  0  0  0
   -8.9699    4.1084   26.1152 C   0  0  0  0  0  0  0  0  0  0  0  0
   -7.3702    0.3004   27.4108 C   0  0  0  0  0  0  0  0  0  0  0  0
   -6.0343    0.3238   27.8890 C   0  0  0  0  0  0  0  0  0  0  0  0
   -5.3786    1.5664   28.1017 C   0  0  0  0  0  0  0  0  0  0  0  0
   -5.9928    2.7074   27.8201 C   0  0  0  0  0  0  0  0  0  0  0  0
   -5.3497   -0.9500   28.1693 C   0  0  0  0  0  0  0  0  0  0  0  0
   -4.0877   -1.0441   28.3329 C   0  0  0  0  0  0  0  0  0  0  0  0
   -3.2525    0.0704   28.1878 C   0  0  0  0  0  0  0  0  0  0  0  0
   -3.8570    1.4090   28.1314 C   0  0  0  0  0  0  0  0  0  0  0  0
   -9.3834    3.0508   25.2228 C   0  0  0  0  0  0  0  0  0  0  0  0
  -10.4964    3.0470   24.5220 C   0  0  0  0  0  0  0  0  0  0  0  0
  -10.8565    2.0178   23.6669 C   0  0  0  0  0  0  0  0  0  0  0  0
  -11.9598    2.1336   22.9067 C   0  0  0  0  0  0  0  0  0  0  0  0
  -12.7430    3.3386   22.9080 C   0  0  0  0  0  0  0  0  0  0  0  0
  -12.3631    4.3867   23.6973 C   0  0  0  0  0  0  0  0  0  0  0  0
  -11.2679    4.3061   24.4535 C   0  0  0  0  0  0  0  0  0  0  0  0
  -10.7112    5.4414   25.2512 C   0  0  0  0  0  0  0  0  0  0  0  0
   -3.3847   -2.3269   28.6062 C   0  0  0  0  0  0  0  0  0  0  0  0
   -2.3371   -2.5147   28.2310 C   0  0  0  0  0  0  0  0  0  0  0  0
   -1.2242   -1.4612   28.2601 C   0  0  0  0  0  0  0  0  0  0  0  0
   -1.8029   -0.0878   28.1863 C   0  0  0  0  0  0  0  0  0  0  0  0
  1  2  1  0
  1  3  1  1
  2  4  1  0
  4  5  1  0
  5  7  1  0
  1  8  1  0
 18 19  1  0
 19 20  2  0
 20 21  1  0
 21 22  2  0
 22 23  1  0
 11 16  1  0
 16 15  2  0
 14 13  2  0
 13 10  1  0
  7  8  2  0
  8 17  1  0
 17 18  2  0
 18 23  1  0
 23 24  2  0
 24  7  1  0
  3  6  2  0
  6  9  1  0
  9 10  2  0
 10 11  1  0
 11 12  2  0
 12  3  1  0
 14 15  1  0
 15 28  1  0
 28 27  2  0
 27 26  1  0
 26 25  2  0
 25 14  1  0
M  END
$$$$
