No_7228-complexes_sdf/6BKW-FPZ/2024-09-17-14-21-01/
     RDKit          3D

 19 20  0  0  0  0  0  0  0  0999 V2000
   -7.7129    4.2099   27.0854 C   0  0  0  0  0  0  0  0  0  0  0  0
   -8.9133    4.4736   27.0998 C   0  0  0  0  0  0  0  0  0  0  0  0
   -9.4643    5.5426   27.7628 C   0  0  0  0  0  0  0  0  0  0  0  0
   -6.8373    4.9942   27.9785 C   0  0  0  0  0  0  0  0  0  0  0  0
   -7.3932    6.0303   28.6784 C   0  0  0  0  0  0  0  0  0  0  0  0
   -8.7122    6.3429   28.5485 C   0  0  0  0  0  0  0  0  0  0  0  0
   -9.7912    3.6118   26.1875 C   0  0  0  0  0  0  0  0  0  0  0  0
  -10.6866    2.7803   26.6116 C   0  0  0  0  0  0  0  0  0  0  0  0
  -11.0239    2.4880   27.6857 C   0  0  0  0  0  0  0  0  0  0  0  0
  -11.7255    1.7361   28.2586 C   0  0  0  0  0  0  0  0  0  0  0  0
  -12.3837    0.7761   27.4456 C   0  0  0  0  0  0  0  0  0  0  0  0
  -12.1563    0.8894   26.1109 C   0  0  0  0  0  0  0  0  0  0  0  0
  -11.3123    1.8367   25.6619 C   0  0  0  0  0  0  0  0  0  0  0  0
   -9.6271    3.9631   24.7579 C   0  0  0  0  0  0  0  0  0  0  0  0
  -10.7183    4.5433   24.1486 C   0  0  0  0  0  0  0  0  0  0  0  0
  -10.7204    4.7593   22.7728 C   0  0  0  0  0  0  0  0  0  0  0  0
   -9.6660    4.3171   21.9621 C   0  0  0  0  0  0  0  0  0  0  0  0
   -9.9086    4.4058   20.5653 C   0  0  0  0  0  0  0  0  0  0  0  0
  -11.1938    4.7300   20.1166 C   0  0  0  0  0  0  0  0  0  0  0  0
  2  7  1  0
  7  8  1  0
  7 14  1  0
 14 15  1  0
 15 16  2  3
 16 17  1  0
 17 18  2  3
 18 19  1  0
  1  2  2  0
  2  3  1  0
  3  6  2  0
  6  5  1  0
  5  4  2  0
  4  1  1  0
  8  9  2  0
  9 10  1  0
 10 11  2  0
 11 12  1  0
 12 13  2  0
 13  8  1  0
M  END
$$$$
