No_7820-complexes_sdf/6BKW-FPZ/2024-09-17-14-21-01/
     RDKit          3D

 20 22  0  0  0  0  0  0  0  0999 V2000
   -7.9040    3.9820   27.1177 C   0  0  0  0  0  0  0  0  0  0  0  0
   -8.2057    2.8231   26.8733 C   0  0  0  0  0  0  0  0  0  0  0  0
   -8.7695    5.0740   26.7916 C   0  0  0  0  0  0  0  0  0  0  0  0
   -8.4337    6.4678   27.0913 C   0  0  0  0  0  0  0  0  0  0  0  0
   -9.3742    2.4311   26.2346 C   0  0  0  0  0  0  0  0  0  0  0  0
  -10.2395    3.4267   25.8887 C   0  0  0  0  0  0  0  0  0  0  0  0
   -9.9567    4.7548   26.1374 C   0  0  0  0  0  0  0  0  0  0  0  0
   -7.9449    7.5014   26.9590 N   0  0  0  0  0  0  0  0  0  0  0  0
   -7.2426    1.6814   27.2966 C   0  0  1  0  0  0  0  0  0  0  0  0
   -6.1692    2.0183   27.8993 O   0  0  0  0  0  0  0  0  0  0  0  0
   -7.5928    0.4238   27.2970 N   0  0  0  0  0  0  0  0  0  0  0  0
   -6.6687   -0.6068   27.6803 C   0  0  0  0  0  0  0  0  0  0  0  0
   -7.2180   -1.6684   28.3135 C   0  0  0  0  0  0  0  0  0  0  0  0
   -8.6060   -1.8545   28.2689 C   0  0  0  0  0  0  0  0  0  0  0  0
   -9.4868   -0.8440   27.8334 C   0  0  0  0  0  0  0  0  0  0  0  0
   -8.9313    0.2285   27.4323 C   0  0  2  0  0  0  0  0  0  0  0  0
   -9.8550    1.0487   26.4338 C   0  0  1  0  0  0  0  0  0  0  0  0
  -11.0582    0.6036   26.0679 C   0  0  0  0  0  0  0  0  0  0  0  0
  -11.3245   -0.1250   25.4175 C   0  0  0  0  0  0  0  0  0  0  0  0
  -12.6619   -0.5459   24.9801 C   0  0  0  0  0  0  0  0  0  0  0  0
  3  4  1  0
  4  8  3  0
  2  9  1  0
  9 10  1  1
  9 11  1  0
 11 12  1  0
 13 14  1  0
 11 16  1  0
 16 15  1  6
  5 17  1  0
 16 17  1  0
 17 18  1  1
 18 19  2  3
 19 20  1  0
 12 13  1  0
 14 15  1  0
  1  2  2  0
  2  5  1  0
  5  6  2  0
  6  7  1  0
  7  3  2  0
  3  1  1  0
M  END
$$$$
