No_789-complexes_sdf/6BKW-FPZ/2024-09-17-14-21-01/
     RDKit          3D

 25 28  0  0  0  0  0  0  0  0999 V2000
   -7.9040    3.9820   27.1177 C   0  0  0  0  0  0  0  0  0  0  0  0
   -7.8663    4.8694   27.9238 C   0  0  0  0  0  0  0  0  0  0  0  0
   -7.4547    2.7080   27.4594 C   0  0  0  0  0  0  0  0  0  0  0  0
   -7.9337    1.5946   26.8372 C   0  0  0  0  0  0  0  0  0  0  0  0
   -8.9032    1.7881   25.8510 C   0  0  0  0  0  0  0  0  0  0  0  0
   -9.3787    2.9871   25.5530 C   0  0  0  0  0  0  0  0  0  0  0  0
   -8.9781    4.0300   26.2200 C   0  0  0  0  0  0  0  0  0  0  0  0
   -8.2454    6.2265   27.6332 N   0  0  0  0  0  0  0  0  0  0  0  0
   -9.1863    6.5523   26.7292 C   0  0  0  0  0  0  0  0  0  0  0  0
   -9.5464    5.3954   25.9189 C   0  0  0  0  0  0  0  0  0  0  0  0
   -7.4684    0.2120   27.0404 C   0  0  0  0  0  0  0  0  0  0  0  0
   -6.1977    0.0261   27.6481 C   0  0  0  0  0  0  0  0  0  0  0  0
   -5.2001    0.9211   27.5743 C   0  0  0  0  0  0  0  0  0  0  0  0
   -3.9177    0.6669   28.2275 C   0  0  0  0  0  0  0  0  0  0  0  0
   -3.7707   -0.4512   28.9958 C   0  0  0  0  0  0  0  0  0  0  0  0
   -4.8371   -1.3617   29.0868 C   0  0  0  0  0  0  0  0  0  0  0  0
   -6.0233   -1.1237   28.4613 C   0  0  0  0  0  0  0  0  0  0  0  0
   -8.2990   -0.7186   27.0988 O   0  0  0  0  0  0  0  0  0  0  0  0
   -2.1724   -0.6388   29.6503 Cl  0  0  0  0  0  0  0  0  0  0  0  0
  -10.3442    3.0966   24.4141 C   0  0  0  0  0  0  0  0  0  0  0  0
  -11.5065    3.6081   24.6612 C   0  0  0  0  0  0  0  0  0  0  0  0
   -9.9817    2.6015   23.1727 C   0  0  0  0  0  0  0  0  0  0  0  0
  -10.7178    2.8614   22.0490 C   0  0  0  0  0  0  0  0  0  0  0  0
  -12.3918    3.8775   23.5033 C   0  0  0  0  0  0  0  0  0  0  0  0
  -11.9701    3.4734   22.2326 C   0  0  0  0  0  0  0  0  0  0  0  0
  4 11  1  0
 11 12  1  0
 11 18  2  0
 15 19  1  0
  6 20  1  0
 12 13  2  0
 13 14  1  0
 14 15  2  0
 15 16  1  0
 16 17  2  0
 17 12  1  0
  1  2  2  0
  2  8  1  0
  8  9  2  0
  9 10  1  0
 10  7  2  0
 20 21  2  0
 21 24  1  0
 24 25  2  0
 25 23  1  0
 23 22  2  0
 22 20  1  0
  1  3  1  0
  3  4  2  0
  4  5  1  0
  5  6  2  0
  6  7  1  0
  7  1  1  0
M  END
$$$$
