No_7959-complexes_sdf/6BKW-FPZ/2024-09-17-14-21-01/
     RDKit          3D

 40 45  0  0  0  0  0  0  0  0999 V2000
   -7.7129    4.2099   27.0854 C   0  0  0  0  0  0  0  0  0  0  0  0
   -8.9133    4.4736   27.0998 C   0  0  0  0  0  0  0  0  0  0  0  0
   -9.4643    5.5426   27.7628 C   0  0  0  0  0  0  0  0  0  0  0  0
   -6.8373    4.9942   27.9785 C   0  0  0  0  0  0  0  0  0  0  0  0
   -7.3717    6.0428   28.6744 C   0  0  0  0  0  0  0  0  0  0  0  0
   -8.6869    6.3937   28.5345 C   0  0  0  0  0  0  0  0  0  0  0  0
   -9.9433    3.6983   26.3265 C   0  0  0  0  0  0  0  0  0  0  0  0
   -9.8992    3.9589   24.8938 C   0  0  0  0  0  0  0  0  0  0  0  0
  -10.5433    3.1981   23.9540 C   0  0  0  0  0  0  0  0  0  0  0  0
  -11.2968    2.1362   24.3693 C   0  0  0  0  0  0  0  0  0  0  0  0
  -10.5892    2.5769   26.6988 C   0  0  0  0  0  0  0  0  0  0  0  0
  -11.3641    1.7676   25.8003 C   0  0  0  0  0  0  0  0  0  0  0  0
  -10.6361    2.1966   28.1192 C   0  0  0  0  0  0  0  0  0  0  0  0
  -10.8103    0.8424   28.5157 C   0  0  0  0  0  0  0  0  0  0  0  0
  -10.5296    3.6352   22.5713 C   0  0  0  0  0  0  0  0  0  0  0  0
  -10.1374    2.7383   21.5557 C   0  0  0  0  0  0  0  0  0  0  0  0
  -10.8141    4.9901   22.2038 C   0  0  0  0  0  0  0  0  0  0  0  0
  -10.0209   -0.0455   27.8122 C   0  0  0  0  0  0  0  0  0  0  0  0
   -8.8758    0.2302   27.1171 C   0  0  0  0  0  0  0  0  0  0  0  0
   -8.0128   -0.7589   26.6048 C   0  0  0  0  0  0  0  0  0  0  0  0
   -8.5074   -1.9306   26.4595 C   0  0  0  0  0  0  0  0  0  0  0  0
  -10.3750   -1.4589   27.8288 C   0  0  0  0  0  0  0  0  0  0  0  0
   -9.6095   -2.3998   27.1787 C   0  0  0  0  0  0  0  0  0  0  0  0
   -7.6868   -2.9807   25.9050 N   0  0  0  0  0  0  0  0  0  0  0  0
   -7.1327   -2.8457   24.8054 C   0  0  1  0  0  0  0  0  0  0  0  0
   -7.1574   -1.6882   24.1372 C   0  0  0  0  0  0  0  0  0  0  0  0
   -6.9802   -0.3912   24.6149 C   0  0  0  0  0  0  0  0  0  0  0  0
   -7.7708    0.0882   25.3556 C   0  0  0  0  0  0  0  0  0  0  0  0
   -7.6289   -4.2594   26.5884 C   0  0  1  0  0  0  0  0  0  0  0  0
   -6.5728   -4.9052   26.4743 C   0  0  0  0  0  0  0  0  0  0  0  0
   -6.1021   -5.0493   25.1097 C   0  0  0  0  0  0  0  0  0  0  0  0
   -6.1202   -3.8344   24.3002 C   0  0  0  0  0  0  0  0  0  0  0  0
   -9.3418   -3.5968   27.9096 C   0  0  0  0  0  0  0  0  0  0  0  0
   -8.5249   -4.5197   27.6166 C   0  0  0  0  0  0  0  0  0  0  0  0
   -7.8222   -1.8405   22.8107 C   0  0  2  0  0  0  0  0  0  0  0  0
   -6.9110   -1.5928   21.8105 C   0  0  0  0  0  0  0  0  0  0  0  0
   -9.0828   -1.0972   22.6268 C   0  0  0  0  0  0  0  0  0  0  0  0
  -10.2336   -1.8063   22.1335 C   0  0  0  0  0  0  0  0  0  0  0  0
  -11.4504   -1.1560   22.2364 C   0  0  0  0  0  0  0  0  0  0  0  0
  -10.1386   -3.1190   21.7094 C   0  0  0  0  0  0  0  0  0  0  0  0
  2  7  1  0
 11 13  1  0
 13 14  2  3
  9 15  1  0
 15 16  1  0
 15 17  1  0
 14 18  1  0
 21 24  1  0
 24 25  1  0
 25 26  1  0
 26 27  2  0
 20 28  1  0
 27 28  1  0
 24 29  1  0
 29 30  1  1
 30 31  1  0
 25 32  1  1
 31 32  1  0
 23 33  1  0
 29 34  1  0
 26 35  1  0
 35 36  1  6
 35 37  1  0
 37 38  1  0
 38 39  2  0
 38 40  1  0
 33 34  1  0
  1  2  2  0
  2  3  1  0
  3  6  2  0
  6  5  1  0
  5  4  2  0
  4  1  1  0
 18 19  2  0
 19 20  1  0
 20 21  2  0
 21 23  1  0
 23 22  2  0
 22 18  1  0
  7  8  2  0
  8  9  1  0
  9 10  2  0
 10 12  1  0
 12 11  2  0
 11  7  1  0
M  END
$$$$
