No_7541-complexes_sdf/6BKW-FPZ/2024-09-17-14-21-01/
     RDKit          3D

 21 23  0  0  0  0  0  0  0  0999 V2000
   -7.7129    4.2099   27.0854 C   0  0  0  0  0  0  0  0  0  0  0  0
   -8.2112    3.0637   26.9225 C   0  0  0  0  0  0  0  0  0  0  0  0
   -9.5629    2.7997   27.0678 C   0  0  0  0  0  0  0  0  0  0  0  0
   -8.5911    5.3704   27.2036 C   0  0  0  0  0  0  0  0  0  0  0  0
   -9.9544    5.1489   27.1401 C   0  0  0  0  0  0  0  0  0  0  0  0
  -10.4577    3.9280   27.0818 C   0  0  0  0  0  0  0  0  0  0  0  0
   -8.0506    6.5773   27.3166 F   0  0  0  0  0  0  0  0  0  0  0  0
  -10.0800    1.4067   26.9333 C   0  0  0  0  0  0  0  0  0  0  0  0
   -9.1848    0.4046   26.9900 C   0  0  0  0  0  0  0  0  0  0  0  0
   -7.7786    0.6972   26.9122 C   0  0  0  0  0  0  0  0  0  0  0  0
   -7.3019    1.9254   26.9577 C   0  0  0  0  0  0  0  0  0  0  0  0
   -6.8389   -0.4679   26.8279 C   0  0  0  0  0  0  0  0  0  0  0  0
   -5.7954   -0.4552   27.6496 C   0  0  0  0  0  0  0  0  0  0  0  0
   -5.4267    0.2734   28.5130 C   0  0  0  0  0  0  0  0  0  0  0  0
   -4.1691    0.1970   29.3358 C   0  0  0  0  0  0  0  0  0  0  0  0
   -3.3092   -0.7962   29.0541 C   0  0  0  0  0  0  0  0  0  0  0  0
   -3.6734   -1.6743   28.0561 C   0  0  0  0  0  0  0  0  0  0  0  0
   -4.8034   -1.5778   27.3336 C   0  0  0  0  0  0  0  0  0  0  0  0
   -7.1778   -1.4169   25.8438 C   0  0  0  0  0  0  0  0  0  0  0  0
   -7.8295   -2.3883   25.8932 N   0  0  0  0  0  0  0  0  0  0  0  0
   -8.2437   -2.9301   27.0501 C   0  0  0  0  0  0  0  0  0  0  0  0
  4  7  1  0
 10 12  1  0
 12 13  1  0
 12 19  1  0
 19 20  1  0
 20 21  1  0
 13 14  2  0
 14 15  1  0
 15 16  2  0
 16 17  1  0
 17 18  2  0
 18 13  1  0
  1  2  2  0
  3  6  2  0
  6  5  1  0
  5  4  2  0
  4  1  1  0
  2  3  1  0
  3  8  1  0
  8  9  2  0
  9 10  1  0
 10 11  2  0
 11  2  1  0
M  END
$$$$
