No_7468-complexes_sdf/6BKW-FPZ/2024-09-17-14-21-01/
     RDKit          3D

 26 28  0  0  0  0  0  0  0  0999 V2000
   -7.9040    3.9820   27.1177 C   0  0  0  0  0  0  0  0  0  0  0  0
   -9.0711    4.3164   27.0630 C   0  0  0  0  0  0  0  0  0  0  0  0
  -10.0395    3.8218   27.1938 C   0  0  0  0  0  0  0  0  0  0  0  0
   -7.6424    2.5858   27.3610 C   0  0  0  0  0  0  0  0  0  0  0  0
   -6.3587    2.0254   27.5043 C   0  0  0  0  0  0  0  0  0  0  0  0
  -10.0535    2.3534   27.5126 C   0  0  0  0  0  0  0  0  0  0  0  0
   -8.7612    1.7909   27.6094 C   0  0  0  0  0  0  0  0  0  0  0  0
   -6.0820    0.6715   27.4694 C   0  0  0  0  0  0  0  0  0  0  0  0
   -4.7978    0.2176   27.6659 C   0  0  0  0  0  0  0  0  0  0  0  0
   -3.8195    1.1649   28.0740 C   0  0  0  0  0  0  0  0  0  0  0  0
   -4.2313    2.4903   28.1436 C   0  0  0  0  0  0  0  0  0  0  0  0
   -5.3523    2.9507   27.9369 C   0  0  0  0  0  0  0  0  0  0  0  0
  -11.2146    1.5099   27.8237 C   0  0  0  0  0  0  0  0  0  0  0  0
  -12.1122    1.1580   26.8866 C   0  0  0  0  0  0  0  0  0  0  0  0
  -12.0177    1.5095   25.7017 C   0  0  0  0  0  0  0  0  0  0  0  0
  -12.9424    1.0579   24.6538 C   0  0  0  0  0  0  0  0  0  0  0  0
  -12.6742    1.5002   23.3356 C   0  0  0  0  0  0  0  0  0  0  0  0
  -11.5836    2.3797   23.0335 C   0  0  0  0  0  0  0  0  0  0  0  0
  -10.7009    2.7489   24.0412 C   0  0  0  0  0  0  0  0  0  0  0  0
  -10.8575    2.3554   25.2282 C   0  0  0  0  0  0  0  0  0  0  0  0
   -9.2025    5.9813   26.7695 C   0  0  2  0  0  0  0  0  0  0  0  0
   -7.9662    6.1841   26.6631 F   0  0  0  0  0  0  0  0  0  0  0  0
   -9.6904    6.7686   28.2679 P   0  0  0  0  0  0  0  0  0  0  0  0
  -10.1166    7.8556   27.6438 O   0  0  0  0  0  0  0  0  0  0  0  0
   -8.2679    6.9092   28.5221 O   0  0  0  0  0  0  0  0  0  0  0  0
  -10.5873    5.7451   28.6062 O   0  0  0  0  0  0  0  0  0  0  0  0
  4  5  1  0
  6 13  1  0
 13 14  2  3
 14 15  1  0
  2 21  1  0
 21 22  1  1
 21 23  1  0
 23 24  2  0
 23 25  1  0
 23 26  1  0
  1  2  2  0
  2  3  1  0
  3  6  2  0
  6  7  1  0
  7  4  2  0
  4  1  1  0
  5  8  2  0
  8  9  1  0
  9 10  2  0
 10 11  1  0
 11 12  2  0
 12  5  1  0
 15 16  2  0
 16 17  1  0
 17 18  2  0
 18 19  1  0
 19 20  2  0
 20 15  1  0
M  END
$$$$
