No_7891-complexes_sdf/6BKW-FPZ/2024-09-17-14-21-01/
     RDKit          3D

 20 21  0  0  0  0  0  0  0  0999 V2000
   -7.7129    4.2099   27.0854 C   0  0  0  0  0  0  0  0  0  0  0  0
   -8.9133    4.4736   27.0998 C   0  0  0  0  0  0  0  0  0  0  0  0
   -9.7937    3.7367   26.2091 C   0  0  0  0  0  0  0  0  0  0  0  0
   -6.8266    5.0441   28.0594 C   0  0  0  0  0  0  0  0  0  0  0  0
   -9.2322    2.6276   25.6126 C   0  0  0  0  0  0  0  0  0  0  0  0
   -7.9794    2.1924   25.9863 C   0  0  0  0  0  0  0  0  0  0  0  0
   -7.2411    2.9387   26.9009 C   0  0  0  0  0  0  0  0  0  0  0  0
  -10.0593    1.7685   24.7435 C   0  0  0  0  0  0  0  0  0  0  0  0
   -9.4294    1.0407   23.8340 C   0  0  0  0  0  0  0  0  0  0  0  0
  -11.0948    2.6765   23.9486 C   0  0  0  0  0  0  0  0  0  0  0  0
  -10.9262    0.8345   25.6262 C   0  0  2  0  0  0  0  0  0  0  0  0
  -11.5728    2.4071   23.0776 C   0  0  0  0  0  0  0  0  0  0  0  0
   -9.8675    0.6400   22.5543 C   0  0  0  0  0  0  0  0  0  0  0  0
  -10.8430    1.5322   22.0174 C   0  0  0  0  0  0  0  0  0  0  0  0
  -11.6958    1.4010   26.4650 C   0  0  0  0  0  0  0  0  0  0  0  0
  -12.3030    0.5034   27.4932 C   0  0  0  0  0  0  0  0  0  0  0  0
  -12.0516   -0.8328   27.4441 C   0  0  0  0  0  0  0  0  0  0  0  0
  -10.6654   -0.4356   25.9997 C   0  0  0  0  0  0  0  0  0  0  0  0
  -11.1498   -1.3040   26.7762 C   0  0  0  0  0  0  0  0  0  0  0  0
   -9.6032   -1.0428   25.0854 O   0  0  0  0  0  0  0  0  0  0  0  0
  1  4  1  0
  5  8  1  0
  8  9  1  0
  8 10  1  0
 11  8  1  1
 10 12  1  0
 12 14  1  0
 13 14  1  0
 11 15  1  0
 15 16  2  3
 16 17  1  0
 11 18  1  0
 17 19  1  0
 18 20  2  0
  9 13  1  0
  1  2  2  0
  2  3  1  0
  3  5  2  0
  5  6  1  0
  6  7  2  0
  7  1  1  0
M  END
$$$$
