No_7389-complexes_sdf/6BKW-FPZ/2024-09-17-14-21-01/
     RDKit          3D

 25 27  0  0  0  0  0  0  0  0999 V2000
   -7.9040    3.9820   27.1177 C   0  0  0  0  0  0  0  0  0  0  0  0
   -9.0711    4.3164   27.0630 C   0  0  0  0  0  0  0  0  0  0  0  0
   -9.8698    3.9665   25.9495 C   0  0  0  0  0  0  0  0  0  0  0  0
   -7.0332    4.5030   28.2025 C   0  0  0  0  0  0  0  0  0  0  0  0
   -9.4357    2.9501   25.1393 C   0  0  0  0  0  0  0  0  0  0  0  0
   -8.2567    2.3218   25.4797 C   0  0  0  0  0  0  0  0  0  0  0  0
   -7.5105    2.7966   26.5752 C   0  0  0  0  0  0  0  0  0  0  0  0
  -10.3743    2.6618   24.0569 C   0  0  0  0  0  0  0  0  0  0  0  0
  -10.9590    3.4951   23.2650 C   0  0  0  0  0  0  0  0  0  0  0  0
  -10.7599    4.9631   23.6225 C   0  0  0  0  0  0  0  0  0  0  0  0
  -10.2601    5.1804   24.9975 C   0  0  0  0  0  0  0  0  0  0  0  0
   -7.4626    5.5772   28.8939 N   0  0  0  0  0  0  0  0  0  0  0  0
   -5.7559    4.4260   27.9743 F   0  0  0  0  0  0  0  0  0  0  0  0
  -11.6449    3.3486   22.0572 C   0  0  0  0  0  0  0  0  0  0  0  0
  -12.1077    2.3200   21.8674 C   0  0  0  0  0  0  0  0  0  0  0  0
  -12.0380    1.2408   22.8367 C   0  0  0  0  0  0  0  0  0  0  0  0
  -10.8588    1.2914   23.7700 C   0  0  0  0  0  0  0  0  0  0  0  0
  -10.5590    0.1592   24.5708 C   0  0  0  0  0  0  0  0  0  0  0  0
  -11.1883   -0.0716   25.7528 C   0  0  0  0  0  0  0  0  0  0  0  0
   -9.5575   -0.6854   24.0562 C   0  0  0  0  0  0  0  0  0  0  0  0
  -12.1493    0.5838   26.3740 C   0  0  0  0  0  0  0  0  0  0  0  0
  -12.7326    0.6391   27.3428 C   0  0  0  0  0  0  0  0  0  0  0  0
  -13.6552    1.6098   27.9632 C   0  0  0  0  0  0  0  0  0  0  0  0
  -13.9909    2.6581   27.1198 C   0  0  0  0  0  0  0  0  0  0  0  0
  -13.4014    2.7350   25.8457 C   0  0  0  0  0  0  0  0  0  0  0  0
  1  4  1  0
  4 12  2  0
  4 13  1  0
 17 18  1  0
 18 19  1  0
 18 20  1  0
 19 21  2  3
 21 22  1  0
 22 23  2  3
 23 24  1  0
 24 25  2  0
  9 14  1  0
 14 15  2  0
 15 16  1  0
 16 17  2  0
 17  8  1  0
  5  8  2  0
  8  9  1  0
  9 10  2  0
 10 11  1  0
 11  3  2  0
  1  2  2  0
  2  3  1  0
  3  5  1  0
  5  6  1  0
  6  7  2  0
  7  1  1  0
M  END
$$$$
