No_7480-complexes_sdf/6BKW-FPZ/2024-09-17-14-21-01/
     RDKit          3D

  6  5  0  0  0  0  0  0  0  0999 V2000
   -7.2496    3.8871   27.4508 C   0  0  0  0  0  0  0  0  0  0  0  0
   -8.5096    4.0291   27.2770 C   0  0  0  0  0  0  0  0  0  0  0  0
   -9.2677    5.1714   27.5773 C   0  0  0  0  0  0  0  0  0  0  0  0
   -6.6520    2.6709   27.2675 N   0  0  0  0  0  0  0  0  0  0  0  0
   -5.5220    2.2288   27.7854 C   0  0  0  0  0  0  0  0  0  0  0  0
  -10.6457    5.2527   27.3436 C   0  0  0  0  0  0  0  0  0  0  0  0
  1  2  1  0
  2  3  2  3
  1  4  1  0
  4  5  1  0
  3  6  1  0
M  END
$$$$
