No_7332-complexes_sdf/6BKW-FPZ/2024-09-17-14-21-01/
     RDKit          3D

 28 31  0  0  0  0  0  0  0  0999 V2000
   -7.7129    4.2099   27.0854 C   0  0  0  0  0  0  0  0  0  0  0  0
   -8.9133    4.4736   27.0998 C   0  0  0  0  0  0  0  0  0  0  0  0
   -9.4643    5.5426   27.7628 C   0  0  0  0  0  0  0  0  0  0  0  0
   -7.2009    2.9448   26.6134 C   0  0  0  0  0  0  0  0  0  0  0  0
   -8.1365    1.9533   26.2981 C   0  0  0  0  0  0  0  0  0  0  0  0
   -9.4501    2.2651   26.2497 C   0  0  0  0  0  0  0  0  0  0  0  0
   -9.8615    3.4703   26.6763 C   0  0  0  0  0  0  0  0  0  0  0  0
   -7.5886    0.6540   25.9006 C   0  0  2  0  0  0  0  0  0  0  0  0
   -8.1821   -0.3358   26.3203 O   0  0  0  0  0  0  0  0  0  0  0  0
   -7.8716   -1.2474   26.8189 C   0  0  0  0  0  0  0  0  0  0  0  0
   -6.7969   -1.1871   27.3830 C   0  0  0  0  0  0  0  0  0  0  0  0
   -5.8844   -0.3307   26.9200 C   0  0  1  0  0  0  0  0  0  0  0  0
   -6.1791    0.7115   26.4647 O   0  0  0  0  0  0  0  0  0  0  0  0
   -4.3749   -0.4600   27.1719 C   0  0  2  0  0  0  0  0  0  0  0  0
   -3.7725   -0.1481   28.0546 C   0  0  0  0  0  0  0  0  0  0  0  0
   -4.2667    0.8519   29.0456 C   0  0  0  0  0  0  0  0  0  0  0  0
   -2.3931   -0.5785   28.4181 C   0  0  0  0  0  0  0  0  0  0  0  0
   -1.4910   -0.5378   27.4219 C   0  0  0  0  0  0  0  0  0  0  0  0
   -2.0093   -0.9957   26.1392 C   0  0  0  0  0  0  0  0  0  0  0  0
   -3.5417   -1.0239   25.9870 C   0  0  0  0  0  0  0  0  0  0  0  0
   -8.8696   -2.3221   27.2303 C   0  0  0  0  0  0  0  0  0  0  0  0
   -8.6792   -3.1252   28.0963 C   0  0  0  0  0  0  0  0  0  0  0  0
  -10.0190   -2.4333   26.3957 C   0  0  0  0  0  0  0  0  0  0  0  0
   -9.6016   -4.1672   28.4860 C   0  0  0  0  0  0  0  0  0  0  0  0
  -10.9818   -3.4051   26.7198 C   0  0  0  0  0  0  0  0  0  0  0  0
  -10.7586   -4.2559   27.7597 C   0  0  0  0  0  0  0  0  0  0  0  0
   -4.7433    1.9379   28.7435 O   0  0  0  0  0  0  0  0  0  0  0  0
   -4.5629    0.4060   30.3302 O   0  0  0  0  0  0  0  0  0  0  0  0
  8  5  1  1
  8  9  1  0
  9 10  1  0
 10 11  2  0
 11 12  1  0
  8 13  1  0
 12 13  1  1
 12 14  1  0
 14 15  1  0
 15 16  1  0
 15 17  1  0
 17 18  1  0
 18 19  1  0
 14 20  1  6
 19 20  1  0
 10 21  1  0
 16 27  2  0
 16 28  1  0
  3  2  1  0
 21 22  2  0
 22 24  1  0
 24 26  2  0
 26 25  1  0
 25 23  2  0
 23 21  1  0
  1  2  2  0
  2  7  1  0
  7  6  2  0
  6  5  1  0
  5  4  2  0
  4  1  1  0
M  END
$$$$
