No_7652-complexes_sdf/6BKW-FPZ/2024-09-17-14-21-01/
     RDKit          3D

 40 43  0  0  0  0  0  0  0  0999 V2000
   -7.7129    4.2099   27.0854 C   0  0  0  0  0  0  0  0  0  0  0  0
   -7.7814    5.1722   27.8972 C   0  0  0  0  0  0  0  0  0  0  0  0
   -8.7889    3.2468   27.2220 C   0  0  0  0  0  0  0  0  0  0  0  0
   -8.7402    2.0341   26.3990 C   0  0  2  0  0  0  0  0  0  0  0  0
   -8.9680    5.6562   28.5183 C   0  0  0  0  0  0  0  0  0  0  0  0
   -9.9490    3.5176   27.8853 C   0  0  0  0  0  0  0  0  0  0  0  0
  -10.0212    4.7882   28.5980 C   0  0  0  0  0  0  0  0  0  0  0  0
   -8.0616    0.9928   26.7810 N   0  0  0  0  0  0  0  0  0  0  0  0
   -7.9094   -0.1619   26.1625 C   0  0  0  0  0  0  0  0  0  0  0  0
   -9.2739    2.0609   25.3730 F   0  0  0  0  0  0  0  0  0  0  0  0
   -6.9900   -1.0162   26.6466 C   0  0  0  0  0  0  0  0  0  0  0  0
   -6.8614   -2.0018   26.8414 C   0  0  0  0  0  0  0  0  0  0  0  0
   -5.6685   -2.8124   27.3629 C   0  0  0  0  0  0  0  0  0  0  0  0
   -4.7301   -2.0522   27.6311 C   0  0  0  0  0  0  0  0  0  0  0  0
   -4.6070   -0.6526   27.4943 C   0  0  0  0  0  0  0  0  0  0  0  0
   -5.7293   -0.0516   27.0619 C   0  0  0  0  0  0  0  0  0  0  0  0
   -3.4182    0.1571   27.8848 C   0  0  0  0  0  0  0  0  0  0  0  0
   -3.2289    0.3946   29.0152 O   0  0  0  0  0  0  0  0  0  0  0  0
   -2.4785    0.3401   26.9842 O   0  0  0  0  0  0  0  0  0  0  0  0
  -10.9278    2.7174   27.9455 F   0  0  0  0  0  0  0  0  0  0  0  0
   -8.6614   -0.5293   25.2833 O   0  0  0  0  0  0  0  0  0  0  0  0
   -6.7985    6.1733   27.9004 O   0  0  0  0  0  0  0  0  0  0  0  0
   -7.9486   -2.8540   26.5872 O   0  0  0  0  0  0  0  0  0  0  0  0
   -8.9169   -2.9372   27.5266 C   0  0  0  0  0  0  0  0  0  0  0  0
  -10.2082   -2.6846   27.1531 C   0  0  0  0  0  0  0  0  0  0  0  0
  -11.1824   -2.5513   28.1968 C   0  0  0  0  0  0  0  0  0  0  0  0
  -10.8431   -2.7075   29.5721 C   0  0  0  0  0  0  0  0  0  0  0  0
   -9.4757   -2.9007   29.8675 C   0  0  0  0  0  0  0  0  0  0  0  0
   -8.5264   -2.9437   28.8894 C   0  0  0  0  0  0  0  0  0  0  0  0
  -12.6245   -2.3361   27.8729 C   0  0  0  0  0  0  0  0  0  0  0  0
  -13.0899   -2.3170   26.9278 N   0  0  0  0  0  0  0  0  0  0  0  0
  -12.3415   -2.4416   25.7872 C   0  0  0  0  0  0  0  0  0  0  0  0
  -10.8702   -2.6024   25.8922 C   0  0  0  0  0  0  0  0  0  0  0  0
   -9.0780   -3.0100   31.3395 C   0  0  0  0  0  0  0  0  0  0  0  0
   -8.9892   -3.8105   32.0317 N   0  0  0  0  0  0  0  0  0  0  0  0
   -8.4834   -3.6197   33.3360 C   0  0  0  0  0  0  0  0  0  0  0  0
   -8.9531   -4.1859   34.4957 C   0  0  0  0  0  0  0  0  0  0  0  0
   -8.5035   -3.8087   35.7466 C   0  0  0  0  0  0  0  0  0  0  0  0
   -7.3463   -3.0324   35.8991 C   0  0  0  0  0  0  0  0  0  0  0  0
   -6.7323   -2.5320   34.7583 C   0  0  0  0  0  0  0  0  0  0  0  0
  3  4  1  0
  4  8  1  0
  8  9  1  0
  4 10  1  6
  9 11  1  0
 15 17  1  0
 17 18  2  0
 17 19  1  0
  6 20  1  0
  9 21  2  0
  2 22  1  0
 12 23  1  0
 23 24  1  0
 28 34  1  0
 34 35  2  3
 35 36  1  0
 36 37  1  0
 37 38  2  3
 38 39  1  0
 39 40  2  0
 11 12  1  0
 12 13  2  0
 13 14  1  0
 14 15  2  0
 15 16  1  0
 16 11  2  0
 26 30  1  0
 30 31  2  0
 31 32  1  0
 32 33  2  0
 33 25  1  0
 24 25  2  0
 25 26  1  0
 26 27  2  0
 27 28  1  0
 28 29  2  0
 29 24  1  0
  1  2  2  0
  2  5  1  0
  5  7  2  0
  7  6  1  0
  6  3  2  0
  3  1  1  0
M  END
$$$$
