No_7338-complexes_sdf/6BKW-FPZ/2024-09-17-14-21-01/
     RDKit          3D

 40 44  0  0  0  0  0  0  0  0999 V2000
   -7.9040    3.9820   27.1177 C   0  0  0  0  0  0  0  0  0  0  0  0
   -7.8663    4.8694   27.9238 C   0  0  0  0  0  0  0  0  0  0  0  0
   -7.4547    2.7080   27.4594 C   0  0  0  0  0  0  0  0  0  0  0  0
   -8.0927    6.2909   27.5184 C   0  0  0  0  0  0  0  0  0  0  0  0
   -8.9150    6.5640   26.4331 C   0  0  0  0  0  0  0  0  0  0  0  0
   -7.3743    1.4980   26.9652 C   0  0  0  0  0  0  0  0  0  0  0  0
   -6.7275    0.4485   27.4282 C   0  0  0  0  0  0  0  0  0  0  0  0
   -8.5826    4.1723   25.8829 C   0  0  0  0  0  0  0  0  0  0  0  0
   -9.1646    5.4271   25.5854 C   0  0  0  0  0  0  0  0  0  0  0  0
   -5.7504    0.1745   27.6764 C   0  0  0  0  0  0  0  0  0  0  0  0
   -5.1095   -0.9971   28.2216 C   0  0  0  0  0  0  0  0  0  0  0  0
   -5.9410   -2.0854   28.2538 C   0  0  0  0  0  0  0  0  0  0  0  0
   -7.5436   -0.8621   27.5223 C   0  0  0  0  0  0  0  0  0  0  0  0
   -7.1652   -1.9734   27.9440 C   0  0  0  0  0  0  0  0  0  0  0  0
   -8.0497    1.4542   25.7774 F   0  0  0  0  0  0  0  0  0  0  0  0
   -3.6448   -1.0447   28.6592 C   0  0  1  0  0  0  0  0  0  0  0  0
   -2.8318   -1.8584   28.0752 C   0  0  0  0  0  0  0  0  0  0  0  0
   -2.2278   -1.6774   27.2220 C   0  0  0  0  0  0  0  0  0  0  0  0
   -1.3543   -2.6400   26.4940 C   0  0  0  0  0  0  0  0  0  0  0  0
   -1.0859   -3.8056   27.1258 C   0  0  0  0  0  0  0  0  0  0  0  0
   -2.5694   -3.1369   28.8499 C   0  0  0  0  0  0  0  0  0  0  0  0
   -1.6820   -4.0293   28.3559 C   0  0  0  0  0  0  0  0  0  0  0  0
   -3.3017   -0.0057   29.7047 C   0  0  0  0  0  0  0  0  0  0  0  0
   -2.5945   -0.3055   30.7039 O   0  0  0  0  0  0  0  0  0  0  0  0
   -3.6880    1.2814   29.5805 O   0  0  0  0  0  0  0  0  0  0  0  0
   -8.0644   -3.1324   28.0411 C   0  0  0  0  0  0  0  0  0  0  0  0
   -9.1587   -3.1783   27.5630 C   0  0  0  0  0  0  0  0  0  0  0  0
   -9.6962   -2.0410   26.9477 C   0  0  0  0  0  0  0  0  0  0  0  0
   -8.9652   -0.8166   26.9426 C   0  0  0  0  0  0  0  0  0  0  0  0
   -1.4224   -5.3270   29.0487 C   0  0  0  0  0  0  0  0  0  0  0  0
   -1.4979   -5.4725   30.1745 O   0  0  0  0  0  0  0  0  0  0  0  0
   -0.7446   -6.1467   28.3357 O   0  0  0  0  0  0  0  0  0  0  0  0
  -11.1448   -1.8886   26.5170 C   0  0  0  0  0  0  0  0  0  0  0  0
  -11.6067   -2.7044   25.8497 C   0  0  0  0  0  0  0  0  0  0  0  0
  -13.0053   -2.6233   25.3563 C   0  0  0  0  0  0  0  0  0  0  0  0
  -13.7150   -1.5078   25.7418 C   0  0  0  0  0  0  0  0  0  0  0  0
  -13.1650   -0.5369   26.5166 C   0  0  0  0  0  0  0  0  0  0  0  0
  -11.8279   -0.6455   26.9635 C   0  0  0  0  0  0  0  0  0  0  0  0
  -15.1270   -1.3836   25.2950 C   0  0  0  0  0  0  0  0  0  0  0  0
  -15.7750   -2.0652   24.6625 O   0  0  0  0  0  0  0  0  0  0  0  0
  1  3  1  0
  3  6  2  3
  6  7  1  0
  6 15  1  0
 11 16  1  0
 16 17  1  0
 16 23  1  6
 23 24  1  0
 23 25  2  0
 22 30  1  0
 30 31  2  0
 30 32  1  0
 28 33  1  0
 36 39  1  0
 39 40  2  0
 17 18  2  0
 18 19  1  0
 19 20  2  0
 20 22  1  0
 22 21  2  0
 21 17  1  0
 14 26  2  0
 26 27  1  0
 27 28  2  0
 28 29  1  0
 29 13  2  0
 33 34  2  0
 34 35  1  0
 35 36  2  0
 36 37  1  0
 37 38  2  0
 38 33  1  0
  1  2  2  0
  2  4  1  0
  4  5  2  0
  5  9  1  0
  9  8  2  0
  8  1  1  0
  7 10  2  0
 10 11  1  0
 11 12  2  0
 12 14  1  0
 14 13  1  0
 13  7  1  0
M  END
$$$$
