No_7027-complexes_sdf/6BKW-FPZ/2024-09-17-14-21-01/
     RDKit          3D

 17 18  0  0  0  0  0  0  0  0999 V2000
   -7.7129    4.2099   27.0854 C   0  0  0  0  0  0  0  0  0  0  0  0
   -8.9133    4.4736   27.0998 C   0  0  0  0  0  0  0  0  0  0  0  0
   -9.7937    3.7367   26.2091 C   0  0  0  0  0  0  0  0  0  0  0  0
   -7.2496    2.8647   26.8496 C   0  0  0  0  0  0  0  0  0  0  0  0
   -8.1891    1.9790   26.3454 C   0  0  0  0  0  0  0  0  0  0  0  0
   -9.4252    2.4603   26.0121 C   0  0  0  0  0  0  0  0  0  0  0  0
   -9.4908    5.8311   27.3431 C   0  0  0  0  0  0  0  0  0  0  0  0
   -7.7377    0.6029   26.1001 C   0  0  2  0  0  0  0  0  0  0  0  0
   -8.2669   -0.2470   25.9815 Cl  0  0  0  0  0  0  0  0  0  0  0  0
   -6.3434    0.6100   26.3576 O   0  0  0  0  0  0  0  0  0  0  0  0
   -5.7671   -0.6996   26.3152 C   0  0  0  0  0  0  0  0  0  0  0  0
   -5.5287   -1.3107   27.4917 C   0  0  0  0  0  0  0  0  0  0  0  0
   -5.9559   -2.3562   27.7965 C   0  0  0  0  0  0  0  0  0  0  0  0
   -6.1522   -2.7854   28.8745 C   0  0  0  0  0  0  0  0  0  0  0  0
   -5.5609   -2.1203   30.1130 C   0  0  0  0  0  0  0  0  0  0  0  0
   -4.9606   -0.8540   29.8212 C   0  0  0  0  0  0  0  0  0  0  0  0
   -5.0139   -0.4104   28.5505 C   0  0  0  0  0  0  0  0  0  0  0  0
  2  7  1  0
  5  8  1  0
  8  9  1  1
  8 10  1  0
 10 11  1  0
 11 12  1  0
 12 13  2  0
 13 14  1  0
 14 15  2  0
 15 16  1  0
 16 17  2  0
 17 12  1  0
  1  2  2  0
  2  3  1  0
  3  6  2  0
  6  5  1  0
  5  4  2  0
  4  1  1  0
M  END
$$$$
