No_7837-complexes_sdf/6BKW-FPZ/2024-09-17-14-21-01/
     RDKit          3D

 25 26  0  0  0  0  0  0  0  0999 V2000
   -7.2496    3.8871   27.4508 C   0  0  0  0  0  0  0  0  0  0  0  0
   -7.6161    2.7143   27.1523 C   0  0  0  0  0  0  0  0  0  0  0  0
   -8.6212    2.2239   26.4073 C   0  0  0  0  0  0  0  0  0  0  0  0
   -8.2540    4.9237   27.1711 C   0  0  0  0  0  0  0  0  0  0  0  0
   -9.3729    4.5806   26.4433 C   0  0  0  0  0  0  0  0  0  0  0  0
   -9.5830    3.2969   26.1026 C   0  0  0  0  0  0  0  0  0  0  0  0
   -7.9303    6.3207   27.5389 C   0  0  0  0  0  0  0  0  0  0  0  0
   -8.8339    7.2764   27.1605 N   0  0  0  0  0  0  0  0  0  0  0  0
   -8.8826    0.8863   26.0564 C   0  0  0  0  0  0  0  0  0  0  0  0
   -9.3184   -0.0059   26.9474 C   0  0  0  0  0  0  0  0  0  0  0  0
  -10.0035    0.1914   27.9364 C   0  0  0  0  0  0  0  0  0  0  0  0
  -10.6009   -0.8002   28.8604 C   0  0  0  0  0  0  0  0  0  0  0  0
  -10.1515   -2.0923   28.6393 C   0  0  0  0  0  0  0  0  0  0  0  0
   -9.3169   -2.4083   27.6612 C   0  0  0  0  0  0  0  0  0  0  0  0
   -8.8714   -1.4334   26.7947 C   0  0  0  0  0  0  0  0  0  0  0  0
   -8.9331    0.6121   24.7625 O   0  0  0  0  0  0  0  0  0  0  0  0
   -6.8695    6.5888   28.1215 O   0  0  0  0  0  0  0  0  0  0  0  0
  -10.6346   -3.0349   29.5059 F   0  0  0  0  0  0  0  0  0  0  0  0
   -6.6428    1.7108   27.5778 O   0  0  0  0  0  0  0  0  0  0  0  0
   -5.3413    2.0175   27.7248 C   0  0  0  0  0  0  0  0  0  0  0  0
   -4.6415    0.8001   28.3668 C   0  0  2  0  0  0  0  0  0  0  0  0
   -5.1761    0.2340   29.3226 Cl  0  0  0  0  0  0  0  0  0  0  0  0
   -3.3619    0.6416   27.8863 N   0  0  0  0  0  0  0  0  0  0  0  0
   -2.8884    0.9503   26.6493 C   0  0  0  0  0  0  0  0  0  0  0  0
   -2.4511   -0.1561   28.7406 C   0  0  0  0  0  0  0  0  0  0  0  0
  4  7  1  0
  7  8  1  0
  3  9  1  0
  9 10  1  0
  9 16  2  0
  7 17  2  0
 13 18  1  0
  2 19  1  0
 19 20  1  0
 20 21  1  0
 21 22  1  1
 21 23  1  0
 23 24  1  0
 23 25  1  0
  1  2  2  0
  2  3  1  0
  3  6  2  0
  6  5  1  0
  5  4  2  0
  4  1  1  0
 10 11  2  0
 11 12  1  0
 12 13  2  0
 13 14  1  0
 14 15  2  0
 15 10  1  0
M  END
$$$$
