No_7409-complexes_sdf/6BKW-FPZ/2024-09-17-14-21-01/
     RDKit          3D

 12 13  0  0  0  0  0  0  0  0999 V2000
   -7.9040    3.9820   27.1177 C   0  0  0  0  0  0  0  0  0  0  0  0
   -7.8663    4.8694   27.9238 C   0  0  0  0  0  0  0  0  0  0  0  0
   -9.0491    3.8523   26.2542 C   0  0  0  0  0  0  0  0  0  0  0  0
   -9.7161    4.8785   25.9890 C   0  0  0  0  0  0  0  0  0  0  0  0
   -8.4350    6.1486   27.6826 C   0  0  0  0  0  0  0  0  0  0  0  0
   -8.9086    6.1492   26.4550 C   0  0  0  0  0  0  0  0  0  0  0  0
   -7.1905    2.6504   27.4566 C   0  0  0  0  0  0  0  0  0  0  0  0
   -5.9530    2.6182   28.0528 C   0  0  0  0  0  0  0  0  0  0  0  0
   -7.7210    1.3903   27.0321 C   0  0  0  0  0  0  0  0  0  0  0  0
   -5.1304    1.4868   28.1325 C   0  0  0  0  0  0  0  0  0  0  0  0
   -6.9524    0.2303   27.2163 C   0  0  0  0  0  0  0  0  0  0  0  0
   -5.6757    0.2994   27.7934 C   0  0  0  0  0  0  0  0  0  0  0  0
  1  2  1  0
  1  3  1  0
  3  4  1  0
  2  5  1  0
  4  6  1  0
  5  6  1  0
  1  7  1  0
  7  8  2  0
  8 10  1  0
 10 12  2  0
 12 11  1  0
 11  9  2  0
  9  7  1  0
M  END
$$$$
