No_738-complexes_sdf/6BKW-FPZ/2024-09-17-14-21-01/
     RDKit          3D

 34 37  0  0  0  0  0  0  0  0999 V2000
   -7.2496    3.8871   27.4508 C   0  0  0  0  0  0  0  0  0  0  0  0
   -7.9379    4.9063   27.8518 C   0  0  0  0  0  0  0  0  0  0  0  0
   -9.3376    4.8647   27.7795 C   0  0  0  0  0  0  0  0  0  0  0  0
   -7.8544    2.6294   27.0414 C   0  0  0  0  0  0  0  0  0  0  0  0
   -9.2665    2.6175   27.0340 C   0  0  0  0  0  0  0  0  0  0  0  0
   -9.9836    3.7042   27.4150 C   0  0  0  0  0  0  0  0  0  0  0  0
   -7.1318    1.5767   26.7774 N   0  0  0  0  0  0  0  0  0  0  0  0
   -6.1720    1.1200   27.6503 C   0  0  0  0  0  0  0  0  0  0  0  0
   -5.4504   -0.0857   27.4036 C   0  0  2  0  0  0  0  0  0  0  0  0
   -7.8728    0.4036   26.3105 C   0  0  0  0  0  0  0  0  0  0  0  0
   -7.0875   -0.7228   25.9914 C   0  0  0  0  0  0  0  0  0  0  0  0
   -6.1123   -1.1415   26.9092 C   0  0  0  0  0  0  0  0  0  0  0  0
   -9.8239    1.4004   26.6805 C   0  0  0  0  0  0  0  0  0  0  0  0
   -9.1818    0.3999   26.2271 C   0  0  0  0  0  0  0  0  0  0  0  0
   -7.3373    6.0622   28.1766 F   0  0  0  0  0  0  0  0  0  0  0  0
   -4.1942   -0.2848   28.2724 C   0  0  0  0  0  0  0  0  0  0  0  0
   -3.1246    0.0406   27.6702 C   0  0  0  0  0  0  0  0  0  0  0  0
   -4.1889   -0.7108   29.6012 C   0  0  0  0  0  0  0  0  0  0  0  0
   -3.1533   -0.8573   30.4169 C   0  0  0  0  0  0  0  0  0  0  0  0
   -1.7936   -0.1427   28.4340 C   0  0  0  0  0  0  0  0  0  0  0  0
   -1.8550   -0.5300   29.7805 C   0  0  0  0  0  0  0  0  0  0  0  0
   -2.9272    0.4517   26.4568 F   0  0  0  0  0  0  0  0  0  0  0  0
   -3.1688   -1.1568   31.7851 C   0  0  0  0  0  0  0  0  0  0  0  0
   -2.3434   -0.8004   32.4974 O   0  0  0  0  0  0  0  0  0  0  0  0
   -4.1226   -2.0676   32.1467 N   0  0  0  0  0  0  0  0  0  0  0  0
   -4.3323   -2.4125   33.5712 C   0  0  0  0  0  0  0  0  0  0  0  0
   -4.7279   -1.5307   34.3727 C   0  0  0  0  0  0  0  0  0  0  0  0
   -5.3177   -1.7505   35.6696 C   0  0  0  0  0  0  0  0  0  0  0  0
   -5.4247   -0.7662   36.6741 C   0  0  0  0  0  0  0  0  0  0  0  0
   -4.5568   -0.4344   37.4214 C   0  0  0  0  0  0  0  0  0  0  0  0
   -4.7264    0.6931   38.4288 C   0  0  0  0  0  0  0  0  0  0  0  0
   -6.0764    1.0178   38.7343 C   0  0  0  0  0  0  0  0  0  0  0  0
   -6.2899    2.1371   39.6181 C   0  0  0  0  0  0  0  0  0  0  0  0
   -7.6307    2.5893   39.7739 C   0  0  0  0  0  0  0  0  0  0  0  0
  4  7  1  0
  7  8  1  0
  7 10  1  0
 10 11  1  0
  9 12  1  0
 11 12  1  0
  5 13  1  0
 10 14  1  0
  2 15  1  0
  9 16  1  1
 17 22  1  0
 19 23  1  0
 23 24  2  0
 23 25  1  0
 25 26  1  0
 26 27  1  0
 27 28  2  3
 28 29  1  0
 29 30  1  0
 30 31  1  0
 31 32  2  3
 32 33  1  0
 33 34  3  0
 13 14  1  0
  8  9  1  0
 16 17  2  0
 17 20  1  0
 20 21  2  0
 21 19  1  0
 19 18  2  0
 18 16  1  0
  1  2  2  0
  2  3  1  0
  3  6  2  0
  6  5  1  0
  5  4  2  0
  4  1  1  0
M  END
$$$$
