No_7014-complexes_sdf/6BKW-FPZ/2024-09-17-14-21-01/
     RDKit          3D

 11 10  0  0  0  0  0  0  0  0999 V2000
   -7.9040    3.9820   27.1177 C   0  0  0  0  0  0  0  0  0  0  0  0
   -7.8663    4.8694   27.9238 C   0  0  0  0  0  0  0  0  0  0  0  0
   -7.4547    2.7080   27.4594 C   0  0  0  0  0  0  0  0  0  0  0  0
   -6.1474    2.6388   27.8014 C   0  0  0  0  0  0  0  0  0  0  0  0
   -8.5539    6.1392   27.6636 C   0  0  0  0  0  0  0  0  0  0  0  0
   -8.9152    4.0957   26.1018 C   0  0  0  0  0  0  0  0  0  0  0  0
   -9.5561    5.2975   25.8155 C   0  0  0  0  0  0  0  0  0  0  0  0
   -9.3180    6.3765   26.6566 C   0  0  0  0  0  0  0  0  0  0  0  0
   -8.2990    7.2385   28.5327 F   0  0  0  0  0  0  0  0  0  0  0  0
   -8.9900    7.0395   27.8079 Cl  0  0  0  0  0  0  0  0  0  0  0  0
   -9.7312    7.3412   25.6577 F   0  0  0  0  0  0  0  0  0  0  0  0
  1  2  1  0
  1  3  2  3
  3  4  1  0
  2  5  2  3
  1  6  1  0
  6  7  2  3
  7  8  1  0
  5  9  1  0
  5 10  1  0
  8 11  1  0
M  END
$$$$
