No_7489-complexes_sdf/6BKW-FPZ/2024-09-17-14-21-01/
     RDKit          3D

 14 15  0  0  0  0  0  0  0  0999 V2000
   -7.9040    3.9820   27.1177 C   0  0  0  0  0  0  0  0  0  0  0  0
   -7.8663    4.8694   27.9238 C   0  0  0  0  0  0  0  0  0  0  0  0
   -9.0806    3.1428   27.1220 C   0  0  2  0  0  0  0  0  0  0  0  0
   -8.9544    1.8782   26.5467 C   0  0  0  0  0  0  0  0  0  0  0  0
   -8.5076    6.0545   27.5968 C   0  0  0  0  0  0  0  0  0  0  0  0
   -7.9578    1.0658   26.7288 C   0  0  0  0  0  0  0  0  0  0  0  0
   -9.9234    5.9028   27.2870 C   0  0  1  0  0  0  0  0  0  0  0  0
  -10.1395    4.1457   26.4180 C   0  0  1  0  0  0  0  0  0  0  0  0
   -7.8689   -0.2544   26.3133 C   0  0  0  0  0  0  0  0  0  0  0  0
   -8.9406   -0.6711   25.5765 C   0  0  0  0  0  0  0  0  0  0  0  0
  -10.0494    1.1869   25.8491 C   0  0  0  0  0  0  0  0  0  0  0  0
  -10.0123    0.0183   25.3238 C   0  0  0  0  0  0  0  0  0  0  0  0
   -9.5295    4.4214   25.1025 C   0  0  0  0  0  0  0  0  0  0  0  0
  -10.8019    5.1901   27.1756 O   0  0  0  0  0  0  0  0  0  0  0  0
  1  2  1  0
  1  3  1  0
  3  4  1  6
  2  5  1  0
  5  7  1  0
  3  8  1  0
  7  8  1  0
  8 13  1  6
  7 14  1  1
  4  6  2  0
  6  9  1  0
  9 10  2  0
 10 12  1  0
 12 11  2  0
 11  4  1  0
M  END
$$$$
