No_764-complexes_sdf/6BKW-FPZ/2024-09-17-14-21-01/
     RDKit          3D

 18 19  0  0  0  0  0  0  0  0999 V2000
   -7.9040    3.9820   27.1177 C   0  0  0  0  0  0  0  0  0  0  0  0
   -8.2057    2.8231   26.8733 C   0  0  0  0  0  0  0  0  0  0  0  0
   -8.7695    5.0740   26.7916 C   0  0  0  0  0  0  0  0  0  0  0  0
   -8.4337    6.4678   27.0913 C   0  0  0  0  0  0  0  0  0  0  0  0
   -9.3742    2.4311   26.2346 C   0  0  0  0  0  0  0  0  0  0  0  0
  -10.2395    3.4267   25.8887 C   0  0  0  0  0  0  0  0  0  0  0  0
   -9.9567    4.7548   26.1374 C   0  0  0  0  0  0  0  0  0  0  0  0
   -8.5487    6.7970   28.2303 F   0  0  0  0  0  0  0  0  0  0  0  0
   -9.2267    7.3313   26.2905 F   0  0  0  0  0  0  0  0  0  0  0  0
   -7.0999    6.7109   26.8189 F   0  0  0  0  0  0  0  0  0  0  0  0
   -7.2401    1.6939   27.3123 C   0  0  1  0  0  0  0  0  0  0  0  0
   -7.5951    0.3886   27.2640 N   0  0  0  0  0  0  0  0  0  0  0  0
   -8.7030   -0.0331   27.2485 C   0  0  0  0  0  0  0  0  0  0  0  0
   -9.7316    0.8442   26.6125 C   0  0  1  0  0  0  0  0  0  0  0  0
   -5.9820    2.0628   27.6885 N   0  0  0  0  0  0  0  0  0  0  0  0
  -11.0965    0.5147   26.2939 C   0  0  0  0  0  0  0  0  0  0  0  0
  -11.9089    0.7198   26.9431 C   0  0  0  0  0  0  0  0  0  0  0  0
  -13.3302    0.2451   26.7369 C   0  0  0  0  0  0  0  0  0  0  0  0
  3  4  1  0
  4  8  1  0
  4  9  1  0
  4 10  1  0
  2 11  1  0
 11 12  1  0
 12 13  1  0
  5 14  1  0
 14 13  1  1
 11 15  1  6
 14 16  1  0
 16 17  2  3
 17 18  1  0
  1  2  2  0
  2  5  1  0
  5  6  2  0
  6  7  1  0
  7  3  2  0
  3  1  1  0
M  END
$$$$
