No_7181-complexes_sdf/6BKW-FPZ/2024-09-17-14-21-01/
     RDKit          3D

 34 37  0  0  0  0  0  0  0  0999 V2000
   -7.9040    3.9820   27.1177 C   0  0  0  0  0  0  0  0  0  0  0  0
   -9.0711    4.3164   27.0630 C   0  0  0  0  0  0  0  0  0  0  0  0
   -9.5294    5.4517   27.7215 C   0  0  0  0  0  0  0  0  0  0  0  0
   -6.9328    4.7309   27.8881 C   0  0  0  0  0  0  0  0  0  0  0  0
   -7.3666    5.8455   28.5488 C   0  0  0  0  0  0  0  0  0  0  0  0
   -8.6669    6.2428   28.4199 C   0  0  0  0  0  0  0  0  0  0  0  0
  -10.0479    3.5083   26.2510 C   0  0  0  0  0  0  0  0  0  0  0  0
   -9.7487    3.3855   24.9113 C   0  0  0  0  0  0  0  0  0  0  0  0
  -10.5142    2.6814   23.9902 C   0  0  0  0  0  0  0  0  0  0  0  0
  -11.6898    2.1313   24.4168 C   0  0  0  0  0  0  0  0  0  0  0  0
  -11.1930    2.9121   26.7008 C   0  0  0  0  0  0  0  0  0  0  0  0
  -12.0449    2.2310   25.8163 C   0  0  0  0  0  0  0  0  0  0  0  0
  -10.1038    2.6363   22.5911 C   0  0  0  0  0  0  0  0  0  0  0  0
  -10.9959    2.6138   21.5902 C   0  0  0  0  0  0  0  0  0  0  0  0
  -10.9305    3.7501   20.9032 C   0  0  0  0  0  0  0  0  0  0  0  0
  -11.4532    3.9671   19.8288 C   0  0  0  0  0  0  0  0  0  0  0  0
  -12.1401    3.3717   19.2440 C   0  0  0  0  0  0  0  0  0  0  0  0
  -12.3281    1.9405   19.7412 C   0  0  0  0  0  0  0  0  0  0  0  0
  -11.6412    1.6028   20.9046 C   0  0  0  0  0  0  0  0  0  0  0  0
  -13.3004    1.6591   26.2606 C   0  0  0  0  0  0  0  0  0  0  0  0
  -13.6830    1.9081   27.1666 O   0  0  0  0  0  0  0  0  0  0  0  0
  -13.8496    0.8270   25.3922 O   0  0  0  0  0  0  0  0  0  0  0  0
  -11.7434    0.2503   21.4335 C   0  0  1  0  0  0  0  0  0  0  0  0
  -10.9459   -0.3749   22.0054 N   0  0  0  0  0  0  0  0  0  0  0  0
  -10.5534   -1.3035   22.2502 C   0  0  0  0  0  0  0  0  0  0  0  0
  -11.1955   -2.4064   21.7748 C   0  0  0  0  0  0  0  0  0  0  0  0
  -13.0148    0.0617   21.6184 F   0  0  0  0  0  0  0  0  0  0  0  0
  -10.7690   -3.7573   22.1054 C   0  0  0  0  0  0  0  0  0  0  0  0
   -9.6809   -3.8099   22.8861 C   0  0  0  0  0  0  0  0  0  0  0  0
   -8.9660   -2.8090   23.4271 C   0  0  0  0  0  0  0  0  0  0  0  0
   -9.3900   -1.5109   23.1579 C   0  0  0  0  0  0  0  0  0  0  0  0
   -8.6978   -0.3997   23.7693 C   0  0  0  0  0  0  0  0  0  0  0  0
   -8.7953   -0.1503   25.1418 C   0  0  0  0  0  0  0  0  0  0  0  0
   -7.8281    0.6561   25.7903 C   0  0  0  0  0  0  0  0  0  0  0  0
  2  7  1  0
  9 13  1  0
 13 14  1  0
 12 20  1  0
 20 21  2  0
 20 22  1  0
 19 23  1  0
 23 24  1  0
 24 25  1  0
 23 27  1  1
 31 32  1  0
 32 33  2  3
 33 34  1  0
  7  8  2  0
  8  9  1  0
  9 10  2  0
 10 12  1  0
 12 11  2  0
 11  7  1  0
 14 15  2  0
 15 16  1  0
 16 17  2  0
 17 18  1  0
 18 19  2  0
 19 14  1  0
 25 26  2  0
 26 28  1  0
 28 29  2  0
 29 30  1  0
 30 31  2  0
 31 25  1  0
  1  2  2  0
  2  3  1  0
  3  6  2  0
  6  5  1  0
  5  4  2  0
  4  1  1  0
M  END
$$$$
