No_7271-complexes_sdf/6BKW-FPZ/2024-09-17-14-21-01/
     RDKit          3D

 22 23  0  0  0  0  0  0  0  0999 V2000
   -7.9040    3.9820   27.1177 C   0  0  0  0  0  0  0  0  0  0  0  0
   -8.2057    2.8231   26.8733 C   0  0  0  0  0  0  0  0  0  0  0  0
   -8.7695    5.0740   26.7916 C   0  0  0  0  0  0  0  0  0  0  0  0
   -8.4337    6.4678   27.0913 C   0  0  0  0  0  0  0  0  0  0  0  0
   -9.3742    2.4311   26.2346 C   0  0  0  0  0  0  0  0  0  0  0  0
  -10.2395    3.4267   25.8887 C   0  0  0  0  0  0  0  0  0  0  0  0
   -9.9567    4.7548   26.1374 C   0  0  0  0  0  0  0  0  0  0  0  0
   -7.9839    7.5474   27.0128 N   0  0  0  0  0  0  0  0  0  0  0  0
   -7.3031    1.7745   27.2901 O   0  0  0  0  0  0  0  0  0  0  0  0
   -6.0017    2.0137   27.4278 C   0  0  0  0  0  0  0  0  0  0  0  0
   -5.2536    0.7663   27.7376 C   0  0  0  0  0  0  0  0  0  0  0  0
   -5.7955   -0.3969   27.8615 C   0  0  0  0  0  0  0  0  0  0  0  0
   -5.0494   -1.5156   28.3196 C   0  0  0  0  0  0  0  0  0  0  0  0
   -3.6821   -1.2777   28.6551 C   0  0  0  0  0  0  0  0  0  0  0  0
   -3.0934   -0.0522   28.4927 C   0  0  0  0  0  0  0  0  0  0  0  0
   -3.8203    1.0315   28.1372 C   0  0  0  0  0  0  0  0  0  0  0  0
  -11.4779    3.0856   25.1444 C   0  0  0  0  0  0  0  0  0  0  0  0
  -12.5927    2.8363   25.8069 C   0  0  0  0  0  0  0  0  0  0  0  0
  -12.6988    2.5578   26.9843 C   0  0  0  0  0  0  0  0  0  0  0  0
  -13.2424    2.4965   27.9268 C   0  0  0  0  0  0  0  0  0  0  0  0
  -12.6635    1.7758   29.1314 C   0  0  0  0  0  0  0  0  0  0  0  0
  -11.3327    1.4555   29.0647 C   0  0  0  0  0  0  0  0  0  0  0  0
  3  4  1  0
  4  8  3  0
  2  9  1  0
  9 10  1  0
  6 17  1  0
 17 18  1  0
 18 19  2  3
 19 20  1  0
 20 21  2  3
 21 22  1  0
 10 11  1  0
 11 12  2  0
 12 13  1  0
 13 14  2  0
 14 15  1  0
 15 16  2  0
 16 11  1  0
  1  2  2  0
  2  5  1  0
  5  6  2  0
  6  7  1  0
  7  3  2  0
  3  1  1  0
M  END
$$$$
