No_7605-complexes_sdf/6BKW-FPZ/2024-09-17-14-21-01/
     RDKit          3D

 28 30  0  0  0  0  0  0  0  0999 V2000
   -7.9040    3.9820   27.1177 C   0  0  0  0  0  0  0  0  0  0  0  0
   -7.8663    4.8694   27.9238 C   0  0  0  0  0  0  0  0  0  0  0  0
   -9.0806    3.1428   27.1220 C   0  0  1  0  0  0  0  0  0  0  0  0
   -8.9544    1.8782   26.5467 C   0  0  0  0  0  0  0  0  0  0  0  0
   -8.5076    6.0545   27.5968 C   0  0  0  0  0  0  0  0  0  0  0  0
   -7.9578    1.0658   26.7288 C   0  0  0  0  0  0  0  0  0  0  0  0
   -7.9244    7.1063   26.8368 C   0  0  0  0  0  0  0  0  0  0  0  0
   -7.7508   -0.0936   26.0210 C   0  0  0  0  0  0  0  0  0  0  0  0
   -8.6651   -0.3584   25.0485 C   0  0  0  0  0  0  0  0  0  0  0  0
   -9.7526    1.4917   25.4450 C   0  0  0  0  0  0  0  0  0  0  0  0
  -10.8735    2.4724   25.1231 C   0  0  0  0  0  0  0  0  0  0  0  0
   -9.6441    0.4581   24.6657 C   0  0  0  0  0  0  0  0  0  0  0  0
  -10.5940    3.3568   24.1713 C   0  0  0  0  0  0  0  0  0  0  0  0
  -12.0992    2.3742   25.7066 C   0  0  0  0  0  0  0  0  0  0  0  0
  -13.1223    3.0699   25.2869 C   0  0  0  0  0  0  0  0  0  0  0  0
  -11.6077    4.2764   23.6795 C   0  0  0  0  0  0  0  0  0  0  0  0
  -12.8891    4.1371   24.2663 C   0  0  0  0  0  0  0  0  0  0  0  0
  -10.3926    0.2516   23.6877 F   0  0  0  0  0  0  0  0  0  0  0  0
   -9.4628    3.0039   28.6729 C   0  0  0  0  0  0  0  0  0  0  0  0
  -10.9246    3.5313   28.7356 C   0  0  0  0  0  0  0  0  0  0  0  0
  -11.8983    2.7093   29.3720 C   0  0  0  0  0  0  0  0  0  0  0  0
  -13.2034    3.2295   29.5438 C   0  0  0  0  0  0  0  0  0  0  0  0
  -13.5902    4.3983   28.8436 C   0  0  0  0  0  0  0  0  0  0  0  0
  -12.5959    5.1125   28.0655 C   0  0  0  0  0  0  0  0  0  0  0  0
  -11.2976    4.6347   27.9727 C   0  0  0  0  0  0  0  0  0  0  0  0
  -14.4812    2.9815   25.8259 C   0  0  0  0  0  0  0  0  0  0  0  0
  -14.7658    1.9951   26.6341 C   0  0  0  0  0  0  0  0  0  0  0  0
  -16.0916    1.7885   27.1059 C   0  0  0  0  0  0  0  0  0  0  0  0
  1  2  1  0
  3  1  1  1
  3  4  1  0
  2  5  1  0
  5  7  1  0
 10 11  1  0
 12 18  1  0
  3 19  1  0
 19 20  1  0
 15 26  1  0
 26 27  2  3
 27 28  1  0
 20 21  2  0
 21 22  1  0
 22 23  2  0
 23 24  1  0
 24 25  2  0
 25 20  1  0
 11 13  2  0
 13 16  1  0
 16 17  2  0
 17 15  1  0
 15 14  2  0
 14 11  1  0
  4  6  2  0
  6  8  1  0
  8  9  2  0
  9 12  1  0
 12 10  2  0
 10  4  1  0
M  END
$$$$
