No_7811-complexes_sdf/6BKW-FPZ/2024-09-17-14-21-01/
     RDKit          3D

 39 40  0  0  0  0  0  0  0  0999 V2000
   -7.9040    3.9820   27.1177 C   0  0  0  0  0  0  0  0  0  0  0  0
   -9.0711    4.3164   27.0630 C   0  0  0  0  0  0  0  0  0  0  0  0
   -9.8698    3.9665   25.9495 C   0  0  0  0  0  0  0  0  0  0  0  0
   -7.0332    4.5030   28.2025 C   0  0  1  0  0  0  0  0  0  0  0  0
   -9.4357    2.9501   25.1393 C   0  0  0  0  0  0  0  0  0  0  0  0
   -8.2567    2.3218   25.4797 C   0  0  0  0  0  0  0  0  0  0  0  0
   -7.5105    2.7966   26.5752 C   0  0  0  0  0  0  0  0  0  0  0  0
  -10.2472    2.5204   24.0264 C   0  0  0  0  0  0  0  0  0  0  0  0
  -10.1919    3.3611   22.9996 F   0  0  0  0  0  0  0  0  0  0  0  0
   -9.5782    1.4330   23.4696 F   0  0  0  0  0  0  0  0  0  0  0  0
  -11.4477    2.1932   24.3047 F   0  0  0  0  0  0  0  0  0  0  0  0
   -5.7641    4.2065   28.1391 F   0  0  0  0  0  0  0  0  0  0  0  0
   -7.4069    5.6346   28.8085 N   0  0  0  0  0  0  0  0  0  0  0  0
  -10.9971    4.5609   25.6467 F   0  0  0  0  0  0  0  0  0  0  0  0
   -6.4341    2.0407   26.9487 O   0  0  0  0  0  0  0  0  0  0  0  0
   -6.5295    0.6300   27.0255 C   0  0  0  0  0  0  0  0  0  0  0  0
   -5.3003    0.0991   27.4006 C   0  0  0  0  0  0  0  0  0  0  0  0
   -4.4040    0.8002   28.0975 C   0  0  0  0  0  0  0  0  0  0  0  0
   -3.1604    0.0951   28.5862 C   0  0  0  0  0  0  0  0  0  0  0  0
   -2.9351   -0.2555   29.7250 C   0  0  0  0  0  0  0  0  0  0  0  0
   -2.6297   -1.2226   30.2488 C   0  0  0  0  0  0  0  0  0  0  0  0
   -2.6135   -1.8924   31.1137 C   0  0  0  0  0  0  0  0  0  0  0  0
   -2.7408   -2.7004   31.9199 C   0  0  0  0  0  0  0  0  0  0  0  0
   -2.8456   -3.1967   33.0980 C   0  0  0  0  0  0  0  0  0  0  0  0
   -2.5738   -2.5456   34.2667 C   0  0  0  0  0  0  0  0  0  0  0  0
   -2.7787   -3.1269   35.5791 C   0  0  0  0  0  0  0  0  0  0  0  0
   -3.2854   -4.3788   35.6186 C   0  0  0  0  0  0  0  0  0  0  0  0
   -3.5534   -5.0433   34.4993 C   0  0  0  0  0  0  0  0  0  0  0  0
   -3.3792   -4.4946   33.2913 C   0  0  0  0  0  0  0  0  0  0  0  0
   -2.0022    0.4633   27.6407 C   0  0  0  0  0  0  0  0  0  0  0  0
   -1.2565   -1.4441   29.6048 N   0  0  0  0  0  0  0  0  0  0  0  0
   -2.2240    1.1366   26.4921 N   0  0  0  0  0  0  0  0  0  0  0  0
   -0.7903    0.1192   27.9918 O   0  0  0  0  0  0  0  0  0  0  0  0
   -0.6658   -2.7893   29.9179 C   0  0  0  0  0  0  0  0  0  0  0  0
    0.5275   -2.8112   29.0374 C   0  0  0  0  0  0  0  0  0  0  0  0
    1.4356   -3.4848   29.1736 C   0  0  0  0  0  0  0  0  0  0  0  0
    2.6182   -3.4155   28.3269 C   0  0  0  0  0  0  0  0  0  0  0  0
    2.6039   -2.5500   27.1698 C   0  0  0  0  0  0  0  0  0  0  0  0
    1.4528   -1.8095   27.0042 C   0  0  0  0  0  0  0  0  0  0  0  0
  1  4  1  0
  5  8  1  0
  8  9  1  0
  8 10  1  0
  8 11  1  0
  4 12  1  0
  4 13  1  6
  3 14  1  0
  7 15  1  0
 15 16  1  0
 16 17  1  0
 17 18  1  0
 18 19  2  3
 19 20  1  0
 20 21  2  3
 21 22  1  0
 22 23  3  0
 23 24  1  0
 19 30  1  0
 21 31  1  0
 30 32  1  0
 30 33  2  0
 31 34  1  0
 34 35  2  3
 35 36  1  0
 36 37  2  3
 37 38  1  0
 38 39  2  0
 24 25  2  0
 25 26  1  0
 26 27  2  0
 27 28  1  0
 28 29  2  0
 29 24  1  0
  1  2  2  0
  2  3  1  0
  3  5  2  0
  5  6  1  0
  6  7  2  0
  7  1  1  0
M  END
$$$$
