No_7252-complexes_sdf/6BKW-FPZ/2024-09-17-14-21-01/
     RDKit          3D

 32 34  0  0  0  0  0  0  0  0999 V2000
   -7.2496    3.8871   27.4508 C   0  0  0  0  0  0  0  0  0  0  0  0
   -7.6161    2.7143   27.1523 C   0  0  0  0  0  0  0  0  0  0  0  0
   -8.6212    2.2239   26.4073 C   0  0  0  0  0  0  0  0  0  0  0  0
   -8.2540    4.9237   27.1711 C   0  0  0  0  0  0  0  0  0  0  0  0
   -8.0481    6.2918   27.4896 C   0  0  0  0  0  0  0  0  0  0  0  0
   -8.8602    0.8760   26.1326 C   0  0  0  0  0  0  0  0  0  0  0  0
   -9.3731    4.5968   26.4565 C   0  0  0  0  0  0  0  0  0  0  0  0
   -9.5649    3.2520   26.1245 C   0  0  0  0  0  0  0  0  0  0  0  0
   -9.2457    0.5086   25.1151 O   0  0  0  0  0  0  0  0  0  0  0  0
   -8.1856   -0.0297   26.9756 O   0  0  0  0  0  0  0  0  0  0  0  0
   -8.2231    7.3103   26.8674 N   0  0  0  0  0  0  0  0  0  0  0  0
   -7.0705    6.4105   28.4200 O   0  0  0  0  0  0  0  0  0  0  0  0
   -8.6686   -1.2914   27.1493 C   0  0  0  0  0  0  0  0  0  0  0  0
   -9.7642   -1.4887   27.6491 C   0  0  0  0  0  0  0  0  0  0  0  0
  -10.1700   -2.6646   28.1618 C   0  0  0  0  0  0  0  0  0  0  0  0
  -11.4625   -2.8713   28.8486 C   0  0  0  0  0  0  0  0  0  0  0  0
  -12.3165   -1.7381   28.9758 C   0  0  0  0  0  0  0  0  0  0  0  0
  -11.9446   -0.4803   28.4926 C   0  0  0  0  0  0  0  0  0  0  0  0
  -10.6416   -0.3168   27.9248 C   0  0  0  0  0  0  0  0  0  0  0  0
  -12.8459    0.6894   28.7678 C   0  0  0  0  0  0  0  0  0  0  0  0
  -13.3875    0.6712   29.7258 F   0  0  0  0  0  0  0  0  0  0  0  0
  -12.0031    1.8214   28.6623 F   0  0  0  0  0  0  0  0  0  0  0  0
  -13.7313    0.8023   27.7691 F   0  0  0  0  0  0  0  0  0  0  0  0
   -7.8320   -2.1615   26.7858 O   0  0  0  0  0  0  0  0  0  0  0  0
  -11.8660   -4.1354   29.3931 C   0  0  0  0  0  0  0  0  0  0  0  0
  -11.0591   -4.8594   30.0020 C   0  0  0  0  0  0  0  0  0  0  0  0
   -9.7851   -4.3242   30.4752 C   0  0  0  0  0  0  0  0  0  0  0  0
   -9.7961   -3.5052   31.6108 C   0  0  0  0  0  0  0  0  0  0  0  0
   -8.5535   -2.8944   32.0818 C   0  0  0  0  0  0  0  0  0  0  0  0
   -7.3892   -3.0946   31.3340 C   0  0  0  0  0  0  0  0  0  0  0  0
   -7.4247   -3.9119   30.2487 C   0  0  0  0  0  0  0  0  0  0  0  0
   -8.5898   -4.4601   29.8187 C   0  0  0  0  0  0  0  0  0  0  0  0
  4  5  1  0
  3  6  1  0
  6  9  2  0
  6 10  1  0
  5 11  1  0
  5 12  2  0
 10 13  1  0
 13 14  1  0
 18 20  1  0
 20 21  1  0
 20 22  1  0
 20 23  1  0
 13 24  2  0
 16 25  1  0
 25 26  2  3
 26 27  1  0
  1  2  2  0
  2  3  1  0
  3  8  2  0
  8  7  1  0
  7  4  2  0
  4  1  1  0
 14 15  2  0
 15 16  1  0
 16 17  2  0
 17 18  1  0
 18 19  2  0
 19 14  1  0
 27 28  2  0
 28 29  1  0
 29 30  2  0
 30 31  1  0
 31 32  2  0
 32 27  1  0
M  END
$$$$
