No_7374-complexes_sdf/6BKW-FPZ/2024-09-17-14-21-01/
     RDKit          3D

 25 27  0  0  0  0  0  0  0  0999 V2000
   -7.9040    3.9820   27.1177 C   0  0  0  0  0  0  0  0  0  0  0  0
   -7.8663    4.8694   27.9238 C   0  0  0  0  0  0  0  0  0  0  0  0
   -9.0501    3.8017   26.2617 C   0  0  0  0  0  0  0  0  0  0  0  0
  -10.0189    4.7608   26.3707 C   0  0  0  0  0  0  0  0  0  0  0  0
   -8.6973    5.9722   27.8968 C   0  0  0  0  0  0  0  0  0  0  0  0
   -9.8216    5.8946   27.1241 C   0  0  0  0  0  0  0  0  0  0  0  0
   -9.1437    2.6293   25.4175 C   0  0  0  0  0  0  0  0  0  0  0  0
   -9.8155    2.7260   24.3455 O   0  0  0  0  0  0  0  0  0  0  0  0
   -8.4809    1.5252   25.7245 N   0  0  0  0  0  0  0  0  0  0  0  0
   -7.8850    1.2654   26.9305 C   0  0  0  0  0  0  0  0  0  0  0  0
   -7.1838   -0.0279   26.8824 C   0  0  0  0  0  0  0  0  0  0  0  0
   -7.1963   -0.7196   25.8050 C   0  0  0  0  0  0  0  0  0  0  0  0
   -8.4495    0.5376   24.6825 C   0  0  0  0  0  0  0  0  0  0  0  0
   -7.6958   -0.4854   24.7217 C   0  0  0  0  0  0  0  0  0  0  0  0
   -6.7259    5.0997   28.7016 F   0  0  0  0  0  0  0  0  0  0  0  0
   -6.4609   -0.3466   28.2335 C   0  0  0  0  0  0  0  0  0  0  0  0
   -5.1488   -0.8039   28.1918 C   0  0  0  0  0  0  0  0  0  0  0  0
   -4.2501   -0.0663   27.7737 C   0  0  0  0  0  0  0  0  0  0  0  0
   -2.8385   -0.4058   27.7317 C   0  0  0  0  0  0  0  0  0  0  0  0
   -2.4667   -1.5695   28.3688 C   0  0  0  0  0  0  0  0  0  0  0  0
   -4.8172   -2.0331   28.8434 C   0  0  0  0  0  0  0  0  0  0  0  0
   -5.8507   -2.8507   29.4226 C   0  0  0  0  0  0  0  0  0  0  0  0
   -3.4519   -2.3832   28.9302 C   0  0  0  0  0  0  0  0  0  0  0  0
   -6.5100   -2.7457   30.4237 C   0  0  0  0  0  0  0  0  0  0  0  0
   -7.6064   -3.5262   30.9363 C   0  0  0  0  0  0  0  0  0  0  0  0
  3  7  1  0
  7  8  2  0
  7  9  1  0
  9 10  1  0
 11 12  1  0
  9 13  1  0
 13 14  1  0
  2 15  1  0
 11 16  1  0
 16 17  1  0
 21 22  1  0
 22 24  2  3
 24 25  1  0
 10 11  1  0
 12 14  1  0
  1  2  2  0
  2  5  1  0
  5  6  2  0
  6  4  1  0
  4  3  2  0
  3  1  1  0
 17 18  2  0
 18 19  1  0
 19 20  2  0
 20 23  1  0
 23 21  2  0
 21 17  1  0
M  END
$$$$
