No_7655-complexes_sdf/6BKW-FPZ/2024-09-17-14-21-01/
     RDKit          3D

 39 44  0  0  0  0  0  0  0  0999 V2000
   -7.9040    3.9820   27.1177 C   0  0  0  0  0  0  0  0  0  0  0  0
   -7.8663    4.8694   27.9238 C   0  0  0  0  0  0  0  0  0  0  0  0
   -7.4547    2.7080   27.4594 C   0  0  0  0  0  0  0  0  0  0  0  0
   -8.0927    6.2909   27.5184 C   0  0  0  0  0  0  0  0  0  0  0  0
   -8.9150    6.5640   26.4331 C   0  0  0  0  0  0  0  0  0  0  0  0
   -7.6563    1.4669   26.7411 C   0  0  0  0  0  0  0  0  0  0  0  0
   -8.5911    4.1595   25.8847 C   0  0  0  0  0  0  0  0  0  0  0  0
   -9.1495    5.4407   25.5619 C   0  0  0  0  0  0  0  0  0  0  0  0
   -7.0888    0.3209   27.1087 C   0  0  0  0  0  0  0  0  0  0  0  0
   -7.5563   -0.8639   26.5932 C   0  0  0  0  0  0  0  0  0  0  0  0
   -8.5661   -0.8186   25.6483 C   0  0  0  0  0  0  0  0  0  0  0  0
   -9.1494    0.3486   25.2750 C   0  0  0  0  0  0  0  0  0  0  0  0
   -8.7071    1.5404   25.8605 C   0  0  0  0  0  0  0  0  0  0  0  0
   -9.0925    2.9936   25.2400 N   0  0  0  0  0  0  0  0  0  0  0  0
   -9.9832    2.9903   24.1738 C   0  0  0  0  0  0  0  0  0  0  0  0
  -11.2330    3.3870   24.4835 C   0  0  0  0  0  0  0  0  0  0  0  0
  -12.0357    3.8050   23.4996 C   0  0  0  0  0  0  0  0  0  0  0  0
  -11.5447    3.7859   22.1395 C   0  0  0  0  0  0  0  0  0  0  0  0
  -10.2438    3.3295   21.9329 C   0  0  0  0  0  0  0  0  0  0  0  0
   -9.4483    2.9330   22.9636 C   0  0  0  0  0  0  0  0  0  0  0  0
   -5.8767    0.2596   28.3617 Cl  0  0  0  0  0  0  0  0  0  0  0  0
  -11.7812    3.5159   25.8927 C   0  0  0  0  0  0  0  0  0  0  0  0
  -12.5237    2.4249   26.4004 C   0  0  0  0  0  0  0  0  0  0  0  0
  -12.9496    2.4125   27.7025 C   0  0  0  0  0  0  0  0  0  0  0  0
  -12.6779    3.5494   28.5916 C   0  0  0  0  0  0  0  0  0  0  0  0
  -11.8963    4.6072   28.0391 C   0  0  0  0  0  0  0  0  0  0  0  0
  -11.5467    4.6032   26.7800 C   0  0  0  0  0  0  0  0  0  0  0  0
  -13.0925    3.5072   30.0160 C   0  0  0  0  0  0  0  0  0  0  0  0
  -13.0961    4.4630   30.8159 C   0  0  0  0  0  0  0  0  0  0  0  0
  -13.5896    4.2891   32.2112 C   0  0  0  0  0  0  0  0  0  0  0  0
  -13.9120    3.0053   32.6500 C   0  0  0  0  0  0  0  0  0  0  0  0
  -13.4832    2.1238   30.4450 C   0  0  0  0  0  0  0  0  0  0  0  0
  -13.9119    1.9787   31.7288 C   0  0  0  0  0  0  0  0  0  0  0  0
  -14.3567    2.8124   34.0463 C   0  0  0  0  0  0  0  0  0  0  0  0
  -13.8132    2.9234   34.9475 N   0  0  0  0  0  0  0  0  0  0  0  0
  -12.7352    3.7540   35.0112 C   0  0  0  0  0  0  0  0  0  0  0  0
  -12.2334    4.1595   36.3248 C   0  0  0  0  0  0  0  0  0  0  0  0
  -11.1290    4.9977   36.4089 C   0  0  0  0  0  0  0  0  0  0  0  0
  -10.4506    5.1605   35.1930 C   0  0  0  0  0  0  0  0  0  0  0  0
  1  3  1  0
  7 14  1  0
 13 14  1  0
 14 15  1  0
  9 21  1  0
 16 22  1  0
 25 28  1  0
 31 34  1  0
 34 35  1  0
 35 36  1  0
 36 37  2  3
 37 38  1  0
 38 39  2  0
  3  6  1  0
 15 16  1  0
 16 17  2  0
 17 18  1  0
 18 19  2  0
 19 20  1  0
 20 15  2  0
 28 29  2  0
 29 30  1  0
 30 31  2  0
 31 33  1  0
 33 32  2  0
 32 28  1  0
  6  9  2  0
  9 10  1  0
 10 11  2  0
 11 12  1  0
 12 13  2  0
 13  6  1  0
 22 23  2  0
 23 24  1  0
 24 25  2  0
 25 26  1  0
 26 27  2  0
 27 22  1  0
  1  2  2  0
  2  4  1  0
  4  5  2  0
  5  8  1  0
  8  7  2  0
  7  1  1  0
M  END
$$$$
