No_7903-complexes_sdf/6BKW-FPZ/2024-09-17-14-21-01/
     RDKit          3D

 16 17  0  0  0  0  0  0  0  0999 V2000
   -7.7129    4.2099   27.0854 C   0  0  0  0  0  0  0  0  0  0  0  0
   -7.7814    5.1722   27.8972 C   0  0  0  0  0  0  0  0  0  0  0  0
   -8.8998    3.8713   26.3707 C   0  0  0  0  0  0  0  0  0  0  0  0
   -9.7416    3.2213   26.9591 C   0  0  0  0  0  0  0  0  0  0  0  0
  -10.1082    3.3017   28.0352 C   0  0  0  0  0  0  0  0  0  0  0  0
   -8.8391    5.2426   28.9792 C   0  0  0  0  0  0  0  0  0  0  0  0
   -9.9642    4.4471   28.9321 C   0  0  0  0  0  0  0  0  0  0  0  0
  -10.4739    2.1077   26.1273 C   0  0  2  0  0  0  0  0  0  0  0  0
  -10.4330    0.9232   26.5443 C   0  0  0  0  0  0  0  0  0  0  0  0
   -9.7457    0.3967   27.3623 C   0  0  0  0  0  0  0  0  0  0  0  0
   -9.8479   -0.9822   27.9605 C   0  0  0  0  0  0  0  0  0  0  0  0
  -10.9486   -1.6800   27.5583 C   0  0  0  0  0  0  0  0  0  0  0  0
  -11.8232   -1.1520   26.6584 C   0  0  0  0  0  0  0  0  0  0  0  0
  -11.6465    0.1308   26.1939 C   0  0  0  0  0  0  0  0  0  0  0  0
  -10.7702    2.4631   24.7920 C   0  0  0  0  0  0  0  0  0  0  0  0
  -11.7775    3.3386   24.5377 C   0  0  0  0  0  0  0  0  0  0  0  0
  1  2  1  0
  1  3  1  0
  3  4  2  0
  4  5  1  0
  2  6  2  0
  5  7  1  0
  6  7  1  0
  4  8  1  0
  8  9  1  0
  8 15  1  6
 15 16  1  0
  9 10  2  0
 10 11  1  0
 11 12  2  0
 12 13  1  0
 13 14  2  0
 14  9  1  0
M  END
$$$$
