No_7713-complexes_sdf/6BKW-FPZ/2024-09-17-14-21-01/
     RDKit          3D

 18 19  0  0  0  0  0  0  0  0999 V2000
   -7.7129    4.2099   27.0854 C   0  0  0  0  0  0  0  0  0  0  0  0
   -8.2112    3.0637   26.9225 C   0  0  0  0  0  0  0  0  0  0  0  0
   -8.4224    5.2106   27.8516 C   0  0  0  0  0  0  0  0  0  0  0  0
   -9.5628    2.7160   27.4089 C   0  0  0  0  0  0  0  0  0  0  0  0
  -10.2428    3.7496   28.1155 C   0  0  0  0  0  0  0  0  0  0  0  0
   -7.8060    6.5538   27.9901 C   0  0  0  0  0  0  0  0  0  0  0  0
   -9.7056    4.9853   28.3055 C   0  0  0  0  0  0  0  0  0  0  0  0
  -10.0724    1.3719   27.2484 C   0  0  0  0  0  0  0  0  0  0  0  0
  -10.8220    1.1258   26.1861 C   0  0  0  0  0  0  0  0  0  0  0  0
  -11.2397   -0.0278   25.9314 C   0  0  0  0  0  0  0  0  0  0  0  0
  -11.0744   -1.1284   26.8979 C   0  0  0  0  0  0  0  0  0  0  0  0
  -10.3995   -0.8413   28.0893 C   0  0  0  0  0  0  0  0  0  0  0  0
   -9.8485    0.3926   28.3150 C   0  0  0  0  0  0  0  0  0  0  0  0
  -11.5744    3.4624   28.6735 C   0  0  0  0  0  0  0  0  0  0  0  0
  -12.8205    3.6764   28.0416 C   0  0  0  0  0  0  0  0  0  0  0  0
  -12.7846    4.2929   26.7400 C   0  0  0  0  0  0  0  0  0  0  0  0
  -13.9703    4.5713   26.0525 C   0  0  0  0  0  0  0  0  0  0  0  0
  -13.9170    5.0721   24.7572 C   0  0  0  0  0  0  0  0  0  0  0  0
  3  6  1  0
  4  8  1  0
  5 14  1  0
 14 15  2  3
 15 16  1  0
 16 17  2  3
 17 18  1  0
  1  2  2  0
  2  4  1  0
  4  5  2  0
  5  7  1  0
  7  3  2  0
  3  1  1  0
  8  9  2  0
  9 10  1  0
 10 11  2  0
 11 12  1  0
 12 13  2  0
 13  8  1  0
M  END
$$$$
