No_7880-complexes_sdf/6BKW-FPZ/2024-09-17-14-21-01/
     RDKit          3D

 17 18  0  0  0  0  0  0  0  0999 V2000
   -7.2496    3.8871   27.4508 C   0  0  0  0  0  0  0  0  0  0  0  0
   -7.9379    4.9063   27.8518 C   0  0  0  0  0  0  0  0  0  0  0  0
   -9.3460    4.8223   27.8695 C   0  0  0  0  0  0  0  0  0  0  0  0
   -7.8628    2.6163   27.1065 C   0  0  0  0  0  0  0  0  0  0  0  0
   -9.2787    2.5744   27.1970 C   0  0  0  0  0  0  0  0  0  0  0  0
  -10.0108    3.6770   27.6340 C   0  0  0  0  0  0  0  0  0  0  0  0
  -11.4855    3.5731   27.7420 C   0  0  0  0  0  0  0  0  0  0  0  0
  -12.0293    2.8456   27.0189 C   0  0  0  0  0  0  0  0  0  0  0  0
  -11.5954    2.4338   25.8721 C   0  0  0  0  0  0  0  0  0  0  0  0
  -10.1333    1.8415   26.0546 C   0  0  1  0  0  0  0  0  0  0  0  0
   -9.5026    0.8521   25.2904 C   0  0  2  0  0  0  0  0  0  0  0  0
   -8.7193   -0.0625   25.8020 C   0  0  0  0  0  0  0  0  0  0  0  0
   -9.5858    1.0033   23.8759 C   0  0  0  0  0  0  0  0  0  0  0  0
   -8.6955   -0.4055   27.0076 C   0  0  0  0  0  0  0  0  0  0  0  0
   -7.8505   -1.4220   27.6280 C   0  0  0  0  0  0  0  0  0  0  0  0
  -10.2822    2.0223   23.2569 C   0  0  0  0  0  0  0  0  0  0  0  0
   -7.8938   -1.6514   29.0384 C   0  0  0  0  0  0  0  0  0  0  0  0
  6  7  1  0
  7  8  1  0
  8  9  1  0
  5 10  1  0
 10  9  1  6
 10 11  1  0
 11 12  1  1
 11 13  1  0
 12 14  1  0
 14 15  2  3
 13 16  2  0
 15 17  1  0
  1  2  2  0
  2  3  1  0
  3  6  2  0
  6  5  1  0
  5  4  2  0
  4  1  1  0
M  END
$$$$
