No_7740-complexes_sdf/6BKW-FPZ/2024-09-17-14-21-01/
     RDKit          3D

 21 22  0  0  0  0  0  0  0  0999 V2000
   -7.9040    3.9820   27.1177 C   0  0  0  0  0  0  0  0  0  0  0  0
   -9.0711    4.3164   27.0630 C   0  0  0  0  0  0  0  0  0  0  0  0
   -9.5182    5.5541   27.5777 C   0  0  0  0  0  0  0  0  0  0  0  0
   -6.9424    4.7983   27.8424 C   0  0  0  0  0  0  0  0  0  0  0  0
   -7.3526    5.9739   28.3909 C   0  0  0  0  0  0  0  0  0  0  0  0
  -10.9067    5.9601   27.4615 C   0  0  0  0  0  0  0  0  0  0  0  0
   -8.6208    6.3347   28.1969 C   0  0  0  0  0  0  0  0  0  0  0  0
  -10.1050    3.4484   26.4057 C   0  0  1  0  0  0  0  0  0  0  0  0
  -10.3029    3.3689   25.2551 C   0  0  0  0  0  0  0  0  0  0  0  0
  -11.1710    2.5625   24.4860 C   0  0  0  0  0  0  0  0  0  0  0  0
  -11.2045    2.5383   23.0677 C   0  0  0  0  0  0  0  0  0  0  0  0
  -10.7891    3.3185   22.5271 C   0  0  0  0  0  0  0  0  0  0  0  0
   -9.9782    4.4771   22.9847 C   0  0  0  0  0  0  0  0  0  0  0  0
   -9.7774    4.4762   24.4018 C   0  0  0  0  0  0  0  0  0  0  0  0
  -10.6823    2.4548   27.3365 C   0  0  1  0  0  0  0  0  0  0  0  0
   -9.9645    1.5640   27.9948 C   0  0  0  0  0  0  0  0  0  0  0  0
  -12.1035    2.6024   27.6177 C   0  0  0  0  0  0  0  0  0  0  0  0
  -12.5571    3.4853   28.4256 C   0  0  0  0  0  0  0  0  0  0  0  0
  -13.9274    3.5359   28.9019 C   0  0  0  0  0  0  0  0  0  0  0  0
  -14.7867    2.5974   28.3545 C   0  0  0  0  0  0  0  0  0  0  0  0
  -14.3236    1.6664   27.4379 C   0  0  0  0  0  0  0  0  0  0  0  0
  3  6  1  0
  8  2  1  6
  8 15  1  0
 15 16  1  1
 15 17  1  0
 17 18  2  3
 18 19  1  0
 19 20  2  3
 20 21  1  0
  8  9  1  0
  1  2  2  0
  2  3  1  0
  3  7  2  0
  7  5  1  0
  5  4  2  0
  4  1  1  0
  9 10  2  0
 10 11  1  0
 11 12  2  0
 12 13  1  0
 13 14  2  0
 14  9  1  0
M  END
$$$$
