No_7240-complexes_sdf/6BKW-FPZ/2024-09-17-14-21-01/
     RDKit          3D

 13 13  0  0  0  0  0  0  0  0999 V2000
   -7.2496    3.8871   27.4508 C   0  0  0  0  0  0  0  0  0  0  0  0
   -8.5096    4.0291   27.2770 C   0  0  0  0  0  0  0  0  0  0  0  0
   -9.2677    5.1714   27.5773 C   0  0  0  0  0  0  0  0  0  0  0  0
   -6.5711    2.6400   27.2842 C   0  0  0  0  0  0  0  0  0  0  0  0
   -7.2751    1.5612   27.3443 C   0  0  0  0  0  0  0  0  0  0  0  0
   -8.6451    1.6030   27.1566 C   0  0  0  0  0  0  0  0  0  0  0  0
   -9.2835    2.8243   27.2772 C   0  0  0  0  0  0  0  0  0  0  0  0
   -8.5369    6.4094   27.5077 C   0  0  0  0  0  0  0  0  0  0  0  0
  -10.6559    5.1664   27.8373 C   0  0  0  0  0  0  0  0  0  0  0  0
   -6.4451    0.3029   27.1599 C   0  0  2  0  0  0  0  0  0  0  0  0
   -6.7559   -0.6119   26.2910 C   0  0  0  0  0  0  0  0  0  0  0  0
   -5.3719    0.1366   28.1216 C   0  0  0  0  0  0  0  0  0  0  0  0
   -4.2160    0.8125   28.0986 C   0  0  0  0  0  0  0  0  0  0  0  0
  3  8  1  0
  3  9  1  0
  5 10  1  0
 10 11  1  1
 10 12  1  0
 12 13  2  0
  3  2  1  0
  1  2  2  0
  2  7  1  0
  7  6  2  0
  6  5  1  0
  5  4  2  0
  4  1  1  0
M  END
$$$$
