No_7859-complexes_sdf/6BKW-FPZ/2024-09-17-14-21-01/
     RDKit          3D

 29 31  0  0  0  0  0  0  0  0999 V2000
   -7.7129    4.2099   27.0854 C   0  0  0  0  0  0  0  0  0  0  0  0
   -7.7814    5.1722   27.8972 C   0  0  0  0  0  0  0  0  0  0  0  0
   -8.8776    3.8408   26.3416 C   0  0  0  0  0  0  0  0  0  0  0  0
   -9.9844    4.6492   26.4743 C   0  0  0  0  0  0  0  0  0  0  0  0
   -8.8033    6.1375   27.8728 C   0  0  0  0  0  0  0  0  0  0  0  0
   -9.9554    5.8280   27.1736 C   0  0  0  0  0  0  0  0  0  0  0  0
   -8.8740    2.6184   25.5584 C   0  0  0  0  0  0  0  0  0  0  0  0
   -8.2513    1.5373   26.0855 N   0  0  0  0  0  0  0  0  0  0  0  0
   -8.1045    0.3937   25.4062 C   0  0  0  0  0  0  0  0  0  0  0  0
   -7.1654   -0.5315   25.8981 C   0  0  0  0  0  0  0  0  0  0  0  0
   -6.8200   -1.6653   25.2340 C   0  0  0  0  0  0  0  0  0  0  0  0
   -7.5259   -1.9360   24.0069 C   0  0  0  0  0  0  0  0  0  0  0  0
   -8.5223    0.1877   24.1683 C   0  0  0  0  0  0  0  0  0  0  0  0
   -8.2844   -0.9474   23.4460 C   0  0  0  0  0  0  0  0  0  0  0  0
   -9.7839    2.5034   24.7087 O   0  0  0  0  0  0  0  0  0  0  0  0
   -6.6643    5.5979   28.6104 O   0  0  0  0  0  0  0  0  0  0  0  0
   -8.6990   -1.3110   22.2268 O   0  0  0  0  0  0  0  0  0  0  0  0
   -9.9157   -1.7309   22.0144 C   0  0  0  0  0  0  0  0  0  0  0  0
  -10.2343   -1.9116   20.7318 C   0  0  0  0  0  0  0  0  0  0  0  0
  -11.5215   -2.1800   20.4126 C   0  0  0  0  0  0  0  0  0  0  0  0
  -10.8358   -2.0194   22.9399 C   0  0  0  0  0  0  0  0  0  0  0  0
  -12.0898   -2.3612   22.6971 C   0  0  0  0  0  0  0  0  0  0  0  0
  -12.4646   -2.4764   21.3572 C   0  0  0  0  0  0  0  0  0  0  0  0
  -13.8044   -2.8959   20.9323 C   0  0  0  0  0  0  0  0  0  0  0  0
  -14.2606   -3.0882   19.9513 O   0  0  0  0  0  0  0  0  0  0  0  0
  -14.5532   -3.3787   22.0961 N   0  0  0  0  0  0  0  0  0  0  0  0
  -15.8740   -3.8592   21.9037 C   0  0  0  0  0  0  0  0  0  0  0  0
  -16.7585   -3.5674   21.4032 C   0  0  0  0  0  0  0  0  0  0  0  0
  -18.0321   -4.2171   21.3234 C   0  0  0  0  0  0  0  0  0  0  0  0
  3  7  1  0
  7  8  1  0
  8  9  1  0
  7 15  2  0
  2 16  1  0
 14 17  1  0
 17 18  1  0
 23 24  1  0
 24 25  2  0
 24 26  1  0
 26 27  1  0
 27 28  2  3
 28 29  1  0
  1  2  2  0
  2  5  1  0
  5  6  2  0
  6  4  1  0
  4  3  2  0
  3  1  1  0
  9 10  2  0
 10 11  1  0
 11 12  2  0
 12 14  1  0
 14 13  2  0
 13  9  1  0
 18 19  2  0
 19 20  1  0
 20 23  2  0
 23 22  1  0
 22 21  2  0
 21 18  1  0
M  END
$$$$
