No_7054-complexes_sdf/6BKW-FPZ/2024-09-17-14-21-01/
     RDKit          3D

 34 36  0  0  0  0  0  0  0  0999 V2000
   -7.2496    3.8871   27.4508 C   0  0  0  0  0  0  0  0  0  0  0  0
   -7.9379    4.9063   27.8518 C   0  0  1  0  0  0  0  0  0  0  0  0
   -7.5112    6.1898   27.6280 C   0  0  0  0  0  0  0  0  0  0  0  0
   -9.3085    4.6933   28.2930 C   0  0  0  0  0  0  0  0  0  0  0  0
   -6.9423    2.7755   27.7939 C   0  0  0  0  0  0  0  0  0  0  0  0
   -6.0490    1.8085   27.3011 C   0  0  0  0  0  0  0  0  0  0  0  0
   -5.1920    1.1973   28.0952 C   0  0  0  0  0  0  0  0  0  0  0  0
   -4.7528   -0.0993   28.0279 C   0  0  0  0  0  0  0  0  0  0  0  0
   -3.6690   -0.5970   28.8223 C   0  0  0  0  0  0  0  0  0  0  0  0
   -3.2111    0.2377   29.8250 C   0  0  0  0  0  0  0  0  0  0  0  0
   -3.7023    1.5163   29.9691 C   0  0  0  0  0  0  0  0  0  0  0  0
   -4.5789    1.9597   29.2150 C   0  0  0  0  0  0  0  0  0  0  0  0
   -8.4625    7.2399   27.0920 C   0  0  0  0  0  0  0  0  0  0  0  0
  -10.2536    4.2754   27.4030 C   0  0  0  0  0  0  0  0  0  0  0  0
  -11.5054    3.8695   28.0464 C   0  0  0  0  0  0  0  0  0  0  0  0
  -12.6608    3.7304   27.3699 C   0  0  0  0  0  0  0  0  0  0  0  0
  -12.5878    3.8602   25.9739 C   0  0  0  0  0  0  0  0  0  0  0  0
  -10.3372    4.4676   26.0482 C   0  0  0  0  0  0  0  0  0  0  0  0
  -11.4393    4.2737   25.3113 C   0  0  0  0  0  0  0  0  0  0  0  0
   -7.9629    7.8643   25.8736 C   0  0  0  0  0  0  0  0  0  0  0  0
  -14.0255    3.6192   25.0487 Cl  0  0  0  0  0  0  0  0  0  0  0  0
   -5.3513   -0.9990   26.9792 C   0  0  0  0  0  0  0  0  0  0  0  0
   -4.6060   -1.2601   25.9371 C   0  0  0  0  0  0  0  0  0  0  0  0
   -4.8470   -2.0161   25.2184 C   0  0  0  0  0  0  0  0  0  0  0  0
   -6.1483   -2.6327   25.0277 C   0  0  0  0  0  0  0  0  0  0  0  0
   -6.7099   -1.1738   27.0223 C   0  0  0  0  0  0  0  0  0  0  0  0
   -7.1186   -2.2126   26.0697 C   0  0  0  0  0  0  0  0  0  0  0  0
   -8.4851   -2.7039   25.9954 C   0  0  0  0  0  0  0  0  0  0  0  0
   -9.1225   -2.9215   27.1012 C   0  0  0  0  0  0  0  0  0  0  0  0
   -9.8956   -2.5590   27.6374 C   0  0  0  0  0  0  0  0  0  0  0  0
  -10.5564   -2.4882   28.7265 C   0  0  0  0  0  0  0  0  0  0  0  0
  -11.6907   -1.6726   29.1881 C   0  0  0  0  0  0  0  0  0  0  0  0
  -12.1059   -0.9044   28.5123 C   0  0  0  0  0  0  0  0  0  0  0  0
  -11.5646   -0.5881   27.2112 C   0  0  0  0  0  0  0  0  0  0  0  0
  1  2  1  0
  2  3  1  6
  2  4  1  0
  1  5  2  3
  5  6  1  0
  3 13  1  0
  4 14  1  0
 13 20  1  0
 17 21  1  0
  8 22  1  0
 27 28  1  0
 28 29  1  0
 29 30  2  3
 30 31  1  0
 31 32  2  3
 32 33  1  0
 33 34  2  0
  6  7  1  0
 14 15  2  0
 15 16  1  0
 16 17  2  0
 17 19  1  0
 19 18  2  0
 18 14  1  0
 22 23  2  0
 23 24  1  0
 24 25  2  0
 25 27  1  0
 27 26  2  0
 26 22  1  0
  7  8  1  0
  8  9  2  0
  9 10  1  0
 10 11  2  0
 11 12  1  0
 12  7  2  0
M  END
$$$$
