No_7231-complexes_sdf/6BKW-FPZ/2024-09-17-14-21-01/
     RDKit          3D

 40 44  0  0  0  0  0  0  0  0999 V2000
   -7.7129    4.2099   27.0854 C   0  0  0  0  0  0  0  0  0  0  0  0
   -8.2112    3.0637   26.9225 C   0  0  2  0  0  0  0  0  0  0  0  0
   -7.0021    4.5281   28.2396 C   0  0  0  0  0  0  0  0  0  0  0  0
   -9.4237    2.7810   26.2714 C   0  0  0  0  0  0  0  0  0  0  0  0
   -9.8781    3.7859   25.4663 C   0  0  2  0  0  0  0  0  0  0  0  0
   -9.3689    5.0975   25.5965 C   0  0  0  0  0  0  0  0  0  0  0  0
   -8.4784    5.3402   26.5448 C   0  0  0  0  0  0  0  0  0  0  0  0
  -10.9798    3.5389   24.5162 C   0  0  0  0  0  0  0  0  0  0  0  0
  -10.8020    3.9004   23.2347 C   0  0  0  0  0  0  0  0  0  0  0  0
  -12.1310    2.9282   24.9142 C   0  0  0  0  0  0  0  0  0  0  0  0
  -11.6246    3.6445   22.1603 C   0  0  0  0  0  0  0  0  0  0  0  0
  -13.0840    2.6398   23.8772 C   0  0  0  0  0  0  0  0  0  0  0  0
  -12.8556    3.0815   22.5403 C   0  0  0  0  0  0  0  0  0  0  0  0
   -7.5910    1.8311   27.6060 C   0  0  0  0  0  0  0  0  0  0  0  0
   -6.2062    1.5878   27.2612 C   0  0  0  0  0  0  0  0  0  0  0  0
   -5.6285    0.3798   27.8399 C   0  0  0  0  0  0  0  0  0  0  0  0
   -5.0484   -0.5157   27.2385 C   0  0  0  0  0  0  0  0  0  0  0  0
   -4.3341   -1.6002   27.8231 C   0  0  0  0  0  0  0  0  0  0  0  0
   -3.6586   -2.5437   27.1347 C   0  0  0  0  0  0  0  0  0  0  0  0
   -3.6811   -2.4814   25.7191 C   0  0  0  0  0  0  0  0  0  0  0  0
   -4.3240   -1.4766   25.0625 C   0  0  0  0  0  0  0  0  0  0  0  0
   -4.9428   -0.4372   25.8036 C   0  0  0  0  0  0  0  0  0  0  0  0
   -4.3066   -1.6239   29.3282 C   0  0  0  0  0  0  0  0  0  0  0  0
   -4.6214   -0.7210   29.9356 C   0  0  0  0  0  0  0  0  0  0  0  0
   -5.4743    0.4542   29.3402 C   0  0  0  0  0  0  0  0  0  0  0  0
   -4.7248   -0.5915   31.4802 C   0  0  0  0  0  0  0  0  0  0  0  0
   -4.0110   -1.3317   32.2728 C   0  0  0  0  0  0  0  0  0  0  0  0
   -3.9844   -1.2197   33.6840 C   0  0  0  0  0  0  0  0  0  0  0  0
   -2.9149   -1.6225   34.4347 C   0  0  0  0  0  0  0  0  0  0  0  0
   -1.8726   -2.3530   33.8043 C   0  0  0  0  0  0  0  0  0  0  0  0
   -1.8447   -2.4538   32.4614 C   0  0  0  0  0  0  0  0  0  0  0  0
   -2.7696   -1.8639   31.6957 C   0  0  0  0  0  0  0  0  0  0  0  0
   -3.0080   -1.5256   35.9410 C   0  0  0  0  0  0  0  0  0  0  0  0
   -3.0840   -2.3503   36.5906 N   0  0  0  0  0  0  0  0  0  0  0  0
   -2.8858   -0.1912   36.3423 O   0  0  0  0  0  0  0  0  0  0  0  0
   -3.1923   -2.1293   38.1194 C   0  0  0  0  0  0  0  0  0  0  0  0
   -2.3572   -1.8612   38.8186 C   0  0  0  0  0  0  0  0  0  0  0  0
   -1.8445   -1.0484   39.1386 C   0  0  0  0  0  0  0  0  0  0  0  0
   -0.7733   -0.7778   40.1763 C   0  0  0  0  0  0  0  0  0  0  0  0
   -0.2768   -1.9146   40.6799 C   0  0  0  0  0  0  0  0  0  0  0  0
  1  2  1  0
  1  3  2  0
  2  4  1  0
  4  5  1  0
  5  6  1  0
  1  7  1  0
  6  7  1  0
  5  8  1  1
  2 14  1  1
 14 15  1  0
 15 16  1  0
 24 26  1  0
 29 33  1  0
 33 34  2  3
 33 35  1  0
 34 36  1  0
 36 37  1  0
 37 38  2  3
 38 39  1  0
 39 40  2  0
 26 27  1  0
  8  9  2  0
  9 11  1  0
 11 13  2  0
 13 12  1  0
 12 10  2  0
 10  8  1  0
 16 17  1  0
 18 23  1  0
 23 24  2  0
 24 25  1  0
 25 16  2  0
 27 28  2  0
 28 29  1  0
 29 30  2  0
 30 31  1  0
 31 32  2  0
 32 27  1  0
 17 18  1  0
 18 19  2  0
 19 20  1  0
 20 21  2  0
 21 22  1  0
 22 17  2  0
M  END
$$$$
