No_7337-complexes_sdf/6BKW-FPZ/2024-09-17-14-21-01/
     RDKit          3D

  8  7  0  0  0  0  0  0  0  0999 V2000
   -7.7129    4.2099   27.0854 C   0  0  0  0  0  0  0  0  0  0  0  0
   -7.7814    5.1722   27.8972 C   0  0  0  0  0  0  0  0  0  0  0  0
   -8.7889    3.2468   27.2220 C   0  0  0  0  0  0  0  0  0  0  0  0
   -9.8367    3.4196   26.6050 C   0  0  0  0  0  0  0  0  0  0  0  0
   -6.7604    6.1878   27.8444 C   0  0  0  0  0  0  0  0  0  0  0  0
  -11.0426    2.7305   26.9183 C   0  0  0  0  0  0  0  0  0  0  0  0
  -10.9950    1.7510   27.9325 C   0  0  0  0  0  0  0  0  0  0  0  0
   -9.6886    1.4293   28.4461 C   0  0  0  0  0  0  0  0  0  0  0  0
  1  2  1  0
  1  3  1  0
  3  4  3  0
  2  5  1  0
  4  6  1  0
  6  7  2  3
  7  8  1  0
M  END
$$$$
