No_7918-complexes_sdf/6BKW-FPZ/2024-09-17-14-21-01/
     RDKit          3D

  9  9  0  0  0  0  0  0  0  0999 V2000
   -7.9040    3.9820   27.1177 C   0  0  0  0  0  0  0  0  0  0  0  0
   -7.8663    4.8694   27.9238 C   0  0  0  0  0  0  0  0  0  0  0  0
   -9.0953    3.1697   27.0532 C   0  0  0  0  0  0  0  0  0  0  0  0
   -9.1405    2.0104   26.1761 C   0  0  0  0  0  0  0  0  0  0  0  0
   -9.0299    5.5381   28.3948 C   0  0  0  0  0  0  0  0  0  0  0  0
  -10.2709    4.9222   28.1362 C   0  0  0  0  0  0  0  0  0  0  0  0
  -10.2487    3.7550   27.4045 C   0  0  0  0  0  0  0  0  0  0  0  0
   -8.6354    0.8334   26.7474 C   0  0  0  0  0  0  0  0  0  0  0  0
   -8.1404    0.7897   28.1361 C   0  0  0  0  0  0  0  0  0  0  0  0
  3  4  1  0
  4  8  2  3
  8  9  1  0
  1  2  2  0
  2  5  1  0
  5  6  2  0
  6  7  1  0
  7  3  2  0
  3  1  1  0
M  END
$$$$
