No_7784-complexes_sdf/6BKW-FPZ/2024-09-17-14-21-01/
     RDKit          3D

 36 40  0  0  0  0  0  0  0  0999 V2000
   -7.7129    4.2099   27.0854 C   0  0  0  0  0  0  0  0  0  0  0  0
   -8.2112    3.0637   26.9225 C   0  0  0  0  0  0  0  0  0  0  0  0
   -7.5138    1.9223   27.4249 C   0  0  0  0  0  0  0  0  0  0  0  0
   -6.5434    4.4363   27.9024 C   0  0  0  0  0  0  0  0  0  0  0  0
   -6.2005    2.1121   27.9323 C   0  0  0  0  0  0  0  0  0  0  0  0
   -5.7560    3.3924   28.1795 C   0  0  0  0  0  0  0  0  0  0  0  0
   -8.6753    5.2573   26.7700 C   0  0  1  0  0  0  0  0  0  0  0  0
   -8.6008    6.5255   27.4096 C   0  0  0  0  0  0  0  0  0  0  0  0
   -9.4268    5.1297   25.5761 C   0  0  1  0  0  0  0  0  0  0  0  0
   -5.3940    0.9292   28.3144 C   0  0  0  0  0  0  0  0  0  0  0  0
   -4.1408    1.0416   28.8953 C   0  0  0  0  0  0  0  0  0  0  0  0
   -3.3801   -0.0698   29.2723 C   0  0  0  0  0  0  0  0  0  0  0  0
   -3.8310   -1.3145   28.9995 C   0  0  0  0  0  0  0  0  0  0  0  0
   -5.7887   -0.3971   28.0473 C   0  0  0  0  0  0  0  0  0  0  0  0
   -5.0715   -1.4749   28.3977 C   0  0  0  0  0  0  0  0  0  0  0  0
   -9.1503    5.5790   24.4532 C   0  0  0  0  0  0  0  0  0  0  0  0
  -10.1769    5.3503   23.3782 C   0  0  0  0  0  0  0  0  0  0  0  0
  -11.1604    4.3787   23.6682 C   0  0  2  0  0  0  0  0  0  0  0  0
  -10.6468    4.1849   25.5394 C   0  0  0  0  0  0  0  0  0  0  0  0
  -12.0228    3.6535   23.3306 C   0  0  0  0  0  0  0  0  0  0  0  0
  -12.6659    3.8416   22.1844 C   0  0  0  0  0  0  0  0  0  0  0  0
  -13.8024    3.0829   21.6810 C   0  0  0  0  0  0  0  0  0  0  0  0
  -14.1428    2.0122   22.4192 C   0  0  0  0  0  0  0  0  0  0  0  0
  -13.5335    1.7218   23.6043 C   0  0  0  0  0  0  0  0  0  0  0  0
  -12.5109    2.5213   24.1564 C   0  0  0  0  0  0  0  0  0  0  0  0
   -2.8882   -2.6872   29.4675 Cl  0  0  0  0  0  0  0  0  0  0  0  0
  -14.0478    0.5911   24.4277 C   0  0  0  0  0  0  0  0  0  0  0  0
  -14.2256    0.6633   25.6532 N   0  0  0  0  0  0  0  0  0  0  0  0
  -14.2982   -0.4668   23.8008 O   0  0  0  0  0  0  0  0  0  0  0  0
  -14.5317    0.0327   26.5190 C   0  0  0  0  0  0  0  0  0  0  0  0
  -14.6299   -0.0388   27.6711 C   0  0  0  0  0  0  0  0  0  0  0  0
  -15.0027   -1.0840   28.6076 C   0  0  0  0  0  0  0  0  0  0  0  0
  -15.3168   -2.2664   27.9555 C   0  0  0  0  0  0  0  0  0  0  0  0
  -15.2630   -2.3369   26.6246 C   0  0  0  0  0  0  0  0  0  0  0  0
  -14.8563   -1.3175   25.9065 C   0  0  0  0  0  0  0  0  0  0  0  0
  -15.6482   -3.7953   25.8630 Cl  0  0  0  0  0  0  0  0  0  0  0  0
  1  7  1  0
  7  8  1  6
  7  9  1  0
  5 10  1  0
  9 16  1  0
 16 17  2  0
 17 18  1  0
  9 19  1  6
 18 19  1  0
 18 20  1  6
 13 26  1  0
 24 27  1  0
 27 28  1  0
 27 29  2  0
 28 30  1  0
 34 36  1  0
  1  2  2  0
  2  3  1  0
  3  5  2  0
  5  6  1  0
  6  4  2  0
  4  1  1  0
 30 31  2  0
 31 32  1  0
 32 33  2  0
 33 34  1  0
 34 35  2  0
 35 30  1  0
 10 11  2  0
 11 12  1  0
 12 13  2  0
 13 15  1  0
 15 14  2  0
 14 10  1  0
 20 21  2  0
 21 22  1  0
 22 23  2  0
 23 24  1  0
 24 25  2  0
 25 20  1  0
M  END
$$$$
