No_7536-complexes_sdf/6BKW-FPZ/2024-09-17-14-21-01/
     RDKit          3D

 18 20  0  0  0  0  0  0  0  0999 V2000
   -7.7129    4.2099   27.0854 C   0  0  0  0  0  0  0  0  0  0  0  0
   -7.7814    5.1722   27.8972 C   0  0  0  0  0  0  0  0  0  0  0  0
   -8.8776    3.8408   26.3416 C   0  0  0  0  0  0  0  0  0  0  0  0
   -8.9136    2.6330   25.5655 C   0  0  0  0  0  0  0  0  0  0  0  0
   -8.8361    6.1389   27.9032 C   0  0  0  0  0  0  0  0  0  0  0  0
   -9.8295    4.8219   26.2725 C   0  0  0  0  0  0  0  0  0  0  0  0
   -9.7422    5.8010   27.0492 C   0  0  0  0  0  0  0  0  0  0  0  0
   -8.3083    1.4776   26.1908 C   0  0  0  0  0  0  0  0  0  0  0  0
   -8.3713    0.2420   25.5863 C   0  0  0  0  0  0  0  0  0  0  0  0
   -8.6155    0.1921   24.3601 C   0  0  0  0  0  0  0  0  0  0  0  0
   -9.2083    1.3132   23.6192 C   0  0  0  0  0  0  0  0  0  0  0  0
   -9.2836    2.5316   24.2689 C   0  0  0  0  0  0  0  0  0  0  0  0
   -9.6497    1.2111   22.2313 C   0  0  0  0  0  0  0  0  0  0  0  0
   -9.6451    0.0674   21.5781 C   0  0  0  0  0  0  0  0  0  0  0  0
  -10.0241    2.4203   21.5578 C   0  0  0  0  0  0  0  0  0  0  0  0
  -10.7470    2.4185   20.3998 C   0  0  0  0  0  0  0  0  0  0  0  0
  -10.3147    0.0103   20.2804 C   0  0  0  0  0  0  0  0  0  0  0  0
  -10.8144    1.1803   19.7456 C   0  0  0  0  0  0  0  0  0  0  0  0
  3  4  1  0
 11 13  1  0
  4  8  2  0
  8  9  1  0
  9 10  2  0
 10 11  1  0
 11 12  2  0
 12  4  1  0
  1  2  2  0
  2  5  1  0
  5  7  2  0
  7  6  1  0
  6  3  2  0
  3  1  1  0
 13 14  2  0
 14 17  1  0
 17 18  2  0
 18 16  1  0
 16 15  2  0
 15 13  1  0
M  END
$$$$
