No_7263-complexes_sdf/6BKW-FPZ/2024-09-17-14-21-01/
     RDKit          3D

 35 39  0  0  0  0  0  0  0  0999 V2000
   -7.2496    3.8871   27.4508 C   0  0  0  0  0  0  0  0  0  0  0  0
   -7.6161    2.7143   27.1523 C   0  0  0  0  0  0  0  0  0  0  0  0
   -8.6212    2.2239   26.4074 C   0  0  0  0  0  0  0  0  0  0  0  0
   -8.2540    4.9237   27.1711 C   0  0  0  0  0  0  0  0  0  0  0  0
   -9.3729    4.5806   26.4433 C   0  0  0  0  0  0  0  0  0  0  0  0
   -9.5830    3.2969   26.1026 C   0  0  0  0  0  0  0  0  0  0  0  0
   -7.9303    6.3207   27.5389 C   0  0  0  0  0  0  0  0  0  0  0  0
   -8.1591    7.3163   26.8806 N   0  0  0  0  0  0  0  0  0  0  0  0
   -8.8867    0.8855   26.0535 C   0  0  0  0  0  0  0  0  0  0  0  0
   -9.2844   -0.0067   26.9482 C   0  0  0  0  0  0  0  0  0  0  0  0
   -9.5479    0.4523   28.3598 C   0  0  0  0  0  0  0  0  0  0  0  0
   -8.8578   -1.3552   26.9272 C   0  0  2  0  0  0  0  0  0  0  0  0
   -8.1906   -1.8887   26.3219 N   0  0  0  0  0  0  0  0  0  0  0  0
   -7.6760   -1.4728   25.3013 C   0  0  1  0  0  0  0  0  0  0  0  0
   -7.6082   -0.1812   24.6867 C   0  0  2  0  0  0  0  0  0  0  0  0
   -8.6981    0.5406   24.6975 C   0  0  0  0  0  0  0  0  0  0  0  0
   -6.8961    6.3636   28.3683 O   0  0  0  0  0  0  0  0  0  0  0  0
  -10.0838   -2.3312   27.8000 Cl  0  0  0  0  0  0  0  0  0  0  0  0
   -6.8202   -2.4187   24.5424 N   0  0  0  0  0  0  0  0  0  0  0  0
  -10.7762    3.0061   25.2621 C   0  0  0  0  0  0  0  0  0  0  0  0
  -11.1390    2.1166   24.6037 C   0  0  0  0  0  0  0  0  0  0  0  0
  -12.2976    1.9845   23.8657 C   0  0  0  0  0  0  0  0  0  0  0  0
  -13.0826    3.0854   23.8545 C   0  0  0  0  0  0  0  0  0  0  0  0
  -12.7976    4.2508   24.5014 C   0  0  0  0  0  0  0  0  0  0  0  0
  -11.6421    4.2864   25.2522 C   0  0  0  0  0  0  0  0  0  0  0  0
  -12.7041    0.8005   23.1343 C   0  0  0  0  0  0  0  0  0  0  0  0
  -11.9886   -0.0771   23.1574 O   0  0  0  0  0  0  0  0  0  0  0  0
  -13.7954    0.7355   22.4920 O   0  0  0  0  0  0  0  0  0  0  0  0
   -6.3570   -2.2508   23.4032 C   0  0  1  0  0  0  0  0  0  0  0  0
   -7.1245   -3.8385   24.7014 C   0  0  0  0  0  0  0  0  0  0  0  0
   -6.9127   -4.5395   23.7650 C   0  0  0  0  0  0  0  0  0  0  0  0
   -5.7885   -0.9118   23.0825 C   0  0  0  0  0  0  0  0  0  0  0  0
   -6.1476   -3.4334   22.6683 C   0  0  2  0  0  0  0  0  0  0  0  0
   -6.8964    0.0867   23.3868 C   0  0  0  0  0  0  0  0  0  0  0  0
   -4.7304   -3.7728   22.3716 C   0  0  0  0  0  0  0  0  0  0  0  0
  4  7  1  0
  7  8  1  0
  3  9  1  0
  9 10  2  0
 10 11  1  0
 10 12  1  0
 12 13  1  0
 14 13  1  1
  9 16  1  0
 15 16  1  6
  7 17  2  0
 12 18  1  6
 14 19  1  0
  6 20  1  0
 22 26  1  0
 26 27  1  0
 26 28  2  0
 19 29  1  0
 19 30  1  0
 30 31  2  0
 29 32  1  1
 29 33  1  0
 31 33  1  0
 15 34  1  0
 32 34  1  0
 33 35  1  1
 14 15  1  0
  1  2  2  0
  2  3  1  0
  3  6  2  0
  6  5  1  0
  5  4  2  0
  4  1  1  0
 20 21  2  0
 21 22  1  0
 22 23  2  0
 23 24  1  0
 24 25  2  0
 25 20  1  0
M  END
$$$$
