No_7403-complexes_sdf/6BKW-FPZ/2024-09-17-14-21-01/
     RDKit          3D

 16 16  0  0  0  0  0  0  0  0999 V2000
   -7.7129    4.2099   27.0854 C   0  0  0  0  0  0  0  0  0  0  0  0
   -8.2112    3.0637   26.9225 C   0  0  0  0  0  0  0  0  0  0  0  0
   -8.5108    5.3904   26.9436 C   0  0  0  0  0  0  0  0  0  0  0  0
   -7.9752    6.6981   27.2112 C   0  0  0  0  0  0  0  0  0  0  0  0
   -9.5213    2.8208   26.4688 C   0  0  0  0  0  0  0  0  0  0  0  0
  -10.2979    3.9327   26.2378 C   0  0  0  0  0  0  0  0  0  0  0  0
   -9.7894    5.2123   26.4395 C   0  0  0  0  0  0  0  0  0  0  0  0
   -7.3451    1.8185   27.1796 C   0  0  0  0  0  0  0  0  0  0  0  0
   -6.3082    2.1155   27.8266 F   0  0  0  0  0  0  0  0  0  0  0  0
   -8.0213    0.9013   27.9314 F   0  0  0  0  0  0  0  0  0  0  0  0
   -7.0024    1.1829   26.0391 F   0  0  0  0  0  0  0  0  0  0  0  0
   -8.6132    7.8226   26.8156 N   0  0  0  0  0  0  0  0  0  0  0  0
   -6.8346    6.8000   27.7886 O   0  0  0  0  0  0  0  0  0  0  0  0
  -11.6167    3.7675   25.6566 C   0  0  0  0  0  0  0  0  0  0  0  0
  -12.6888    3.6531   26.4509 C   0  0  0  0  0  0  0  0  0  0  0  0
  -14.0212    3.5276   25.9258 C   0  0  0  0  0  0  0  0  0  0  0  0
  3  4  1  0
  2  8  1  0
  8  9  1  0
  8 10  1  0
  8 11  1  0
  4 12  1  0
  4 13  2  0
  6 14  1  0
 14 15  2  3
 15 16  1  0
  1  2  2  0
  2  5  1  0
  5  6  2  0
  6  7  1  0
  7  3  2  0
  3  1  1  0
M  END
$$$$
