No_7977-complexes_sdf/6BKW-FPZ/2024-09-17-14-21-01/
     RDKit          3D

 27 30  0  0  0  0  0  0  0  0999 V2000
   -7.9040    3.9820   27.1177 C   0  0  0  0  0  0  0  0  0  0  0  0
   -7.8663    4.8694   27.9238 C   0  0  0  0  0  0  0  0  0  0  0  0
   -9.0501    3.8017   26.2617 C   0  0  0  0  0  0  0  0  0  0  0  0
   -9.1826    2.7026   25.3575 C   0  0  0  0  0  0  0  0  0  0  0  0
   -8.6940    6.0131   27.8614 C   0  0  0  0  0  0  0  0  0  0  0  0
   -9.9755    4.8547   26.2361 C   0  0  0  0  0  0  0  0  0  0  0  0
   -9.7463    5.9398   27.0364 C   0  0  0  0  0  0  0  0  0  0  0  0
  -10.1244    1.8871   25.7330 C   0  0  0  0  0  0  0  0  0  0  0  0
  -10.1275    0.7205   25.0793 C   0  0  0  0  0  0  0  0  0  0  0  0
  -10.6688   -0.3473   25.7208 C   0  0  0  0  0  0  0  0  0  0  0  0
  -10.9230    1.9252   26.8840 C   0  0  0  0  0  0  0  0  0  0  0  0
  -11.5588    0.8684   27.5123 C   0  0  0  0  0  0  0  0  0  0  0  0
  -11.4620   -0.3406   26.8454 C   0  0  0  0  0  0  0  0  0  0  0  0
   -6.8227    2.6256   27.2616 Cl  0  0  0  0  0  0  0  0  0  0  0  0
  -12.2843    0.9537   28.8059 C   0  0  0  0  0  0  0  0  0  0  0  0
  -12.3371    2.1336   29.2411 O   0  0  0  0  0  0  0  0  0  0  0  0
  -12.7882   -0.0101   29.3491 O   0  0  0  0  0  0  0  0  0  0  0  0
  -13.5450    2.8883   29.2726 C   0  0  0  0  0  0  0  0  0  0  0  0
  -13.4429    3.9911   28.3852 C   0  0  0  0  0  0  0  0  0  0  0  0
  -14.4435    5.0013   28.3882 C   0  0  0  0  0  0  0  0  0  0  0  0
  -14.4663    5.9835   27.4059 C   0  0  0  0  0  0  0  0  0  0  0  0
  -15.3723    5.0122   29.4447 C   0  0  0  0  0  0  0  0  0  0  0  0
  -16.3645    6.0337   29.4231 C   0  0  0  0  0  0  0  0  0  0  0  0
  -16.4400    7.0072   28.4651 C   0  0  0  0  0  0  0  0  0  0  0  0
  -15.4847    6.9890   27.4322 C   0  0  0  0  0  0  0  0  0  0  0  0
  -14.4219    2.6604   30.3055 C   0  0  0  0  0  0  0  0  0  0  0  0
  -15.4166    3.8682   30.3803 C   0  0  0  0  0  0  0  0  0  0  0  0
  3  4  1  0
  4  8  1  0
  1 14  1  0
 12 15  1  0
 15 16  1  0
 15 17  2  0
 16 18  1  0
  8  9  2  0
  9 10  1  0
 10 13  2  0
 13 12  1  0
 12 11  2  0
 11  8  1  0
 20 21  2  0
 21 25  1  0
 25 24  2  0
 24 23  1  0
 23 22  2  0
 18 19  2  0
 19 20  1  0
 20 22  1  0
 22 27  1  0
 27 26  2  0
 26 18  1  0
  1  2  2  0
  2  5  1  0
  5  7  2  0
  7  6  1  0
  6  3  2  0
  3  1  1  0
M  END
$$$$
