No_7279-complexes_sdf/6BKW-FPZ/2024-09-17-14-21-01/
     RDKit          3D

 19 20  0  0  0  0  0  0  0  0999 V2000
   -7.2496    3.8871   27.4508 C   0  0  0  0  0  0  0  0  0  0  0  0
   -7.6161    2.7143   27.1523 C   0  0  0  0  0  0  0  0  0  0  0  0
   -8.6212    2.2239   26.4073 C   0  0  0  0  0  0  0  0  0  0  0  0
   -8.2540    4.9237   27.1711 C   0  0  0  0  0  0  0  0  0  0  0  0
   -9.3729    4.5806   26.4432 C   0  0  0  0  0  0  0  0  0  0  0  0
   -9.5830    3.2969   26.1026 C   0  0  0  0  0  0  0  0  0  0  0  0
   -8.1546    6.3411   27.5271 C   0  0  0  0  0  0  0  0  0  0  0  0
   -9.0437    7.2073   27.2305 O   0  0  0  0  0  0  0  0  0  0  0  0
   -6.9638    6.6654   28.1492 O   0  0  0  0  0  0  0  0  0  0  0  0
   -8.8499    0.8808   26.0379 C   0  0  0  0  0  0  0  0  0  0  0  0
   -9.1186   -0.0291   26.9769 C   0  0  0  0  0  0  0  0  0  0  0  0
   -9.2666   -1.3848   26.7893 C   0  0  0  0  0  0  0  0  0  0  0  0
   -8.7726    0.4848   24.7360 C   0  0  0  0  0  0  0  0  0  0  0  0
   -8.9126   -0.8751   24.3592 C   0  0  0  0  0  0  0  0  0  0  0  0
   -9.1906   -1.7675   25.3948 C   0  0  0  0  0  0  0  0  0  0  0  0
   -9.4092   -3.1881   25.0517 C   0  0  0  0  0  0  0  0  0  0  0  0
   -9.6466   -4.0547   25.8085 F   0  0  0  0  0  0  0  0  0  0  0  0
   -8.2366   -3.5572   24.3476 F   0  0  0  0  0  0  0  0  0  0  0  0
  -10.3826   -3.1724   24.0449 F   0  0  0  0  0  0  0  0  0  0  0  0
  4  7  1  0
  7  8  2  0
  7  9  1  0
  3 10  1  0
 15 16  1  0
 16 17  1  0
 16 18  1  0
 16 19  1  0
  1  2  2  0
  2  3  1  0
  3  6  2  0
  6  5  1  0
  5  4  2  0
  4  1  1  0
 10 11  2  0
 11 12  1  0
 12 15  2  0
 15 14  1  0
 14 13  2  0
 13 10  1  0
M  END
$$$$
