No_7303-complexes_sdf/6BKW-FPZ/2024-09-17-14-21-01/
     RDKit          3D

 16 17  0  0  0  0  0  0  0  0999 V2000
   -7.7129    4.2099   27.0854 C   0  0  0  0  0  0  0  0  0  0  0  0
   -7.7814    5.1722   27.8972 C   0  0  0  0  0  0  0  0  0  0  0  0
   -8.8255    3.2789   27.1191 C   0  0  0  0  0  0  0  0  0  0  0  0
   -9.9209    3.4734   27.9101 C   0  0  0  0  0  0  0  0  0  0  0  0
   -9.9736    4.7085   28.6831 C   0  0  0  0  0  0  0  0  0  0  0  0
   -8.8840    5.5441   28.6612 C   0  0  0  0  0  0  0  0  0  0  0  0
   -8.7102    2.0171   26.3293 C   0  0  0  0  0  0  0  0  0  0  0  0
   -7.9453    1.0835   26.4862 O   0  0  0  0  0  0  0  0  0  0  0  0
   -9.5667    1.9738   25.2888 O   0  0  0  0  0  0  0  0  0  0  0  0
  -10.3059    2.8951   24.9259 C   0  0  0  0  0  0  0  0  0  0  0  0
  -10.5171    3.0656   23.4835 C   0  0  0  0  0  0  0  0  0  0  0  0
  -11.2690    4.2033   23.0029 C   0  0  0  0  0  0  0  0  0  0  0  0
  -11.8003    5.0493   23.9529 C   0  0  0  0  0  0  0  0  0  0  0  0
  -11.6267    4.7903   25.3022 C   0  0  0  0  0  0  0  0  0  0  0  0
  -10.9222    3.8454   25.7767 C   0  0  0  0  0  0  0  0  0  0  0  0
  -10.8745    2.8343   27.6291 F   0  0  0  0  0  0  0  0  0  0  0  0
  3  7  1  0
  7  8  2  0
  7  9  1  0
  9 10  1  0
  4 16  1  0
  1  2  2  0
  2  6  1  0
  6  5  2  0
  5  4  1  0
  4  3  2  0
  3  1  1  0
 10 11  2  0
 11 12  1  0
 12 13  2  0
 13 14  1  0
 14 15  2  0
 15 10  1  0
M  END
$$$$
