No_7548-complexes_sdf/6BKW-FPZ/2024-09-17-14-21-01/
     RDKit          3D

 17 19  0  0  0  0  0  0  0  0999 V2000
   -7.2496    3.8871   27.4508 C   0  0  0  0  0  0  0  0  0  0  0  0
   -7.9379    4.9063   27.8518 C   0  0  1  0  0  0  0  0  0  0  0  0
   -7.5112    6.1898   27.6280 C   0  0  0  0  0  0  0  0  0  0  0  0
   -9.3085    4.6933   28.2930 C   0  0  0  0  0  0  0  0  0  0  0  0
   -7.7804    2.5137   27.6845 C   0  0  2  0  0  0  0  0  0  0  0  0
   -7.0500    1.4112   27.1569 C   0  0  0  0  0  0  0  0  0  0  0  0
   -7.7147    0.4723   26.3729 C   0  0  0  0  0  0  0  0  0  0  0  0
   -8.9241    0.1594   26.8148 C   0  0  1  0  0  0  0  0  0  0  0  0
   -9.8209    1.2967   27.1196 C   0  0  0  0  0  0  0  0  0  0  0  0
   -9.1726    2.3894   27.8913 C   0  0  0  0  0  0  0  0  0  0  0  0
   -9.9595    3.4863   28.1531 C   0  0  0  0  0  0  0  0  0  0  0  0
  -11.2147    1.0246   27.3949 C   0  0  0  0  0  0  0  0  0  0  0  0
  -12.0103    2.1032   27.6140 C   0  0  0  0  0  0  0  0  0  0  0  0
  -11.4086    3.3658   28.1673 C   0  0  0  0  0  0  0  0  0  0  0  0
   -9.5110   -1.1590   26.7704 C   0  0  0  0  0  0  0  0  0  0  0  0
   -8.9853   -2.0152   26.2615 C   0  0  0  0  0  0  0  0  0  0  0  0
  -10.7902   -1.3088   27.5716 C   0  0  0  0  0  0  0  0  0  0  0  0
  1  2  1  0
  2  3  1  6
  2  4  1  0
  5  1  1  6
  5  6  1  0
  6  7  1  0
  7  8  1  0
  8  9  1  0
  5 10  1  0
  4 11  1  0
  8 15  1  6
 15 16  2  0
 15 17  1  0
  9 10  2  0
 10 11  1  0
 11 14  2  0
 14 13  1  0
 13 12  2  0
 12  9  1  0
M  END
$$$$
