No_7938-complexes_sdf/6BKW-FPZ/2024-09-17-14-21-01/
     RDKit          3D

 21 24  0  0  0  0  0  0  0  0999 V2000
   -7.9040    3.9820   27.1177 C   0  0  0  0  0  0  0  0  0  0  0  0
   -7.8663    4.8694   27.9238 C   0  0  0  0  0  0  0  0  0  0  0  0
   -9.0491    3.8523   26.2542 C   0  0  0  0  0  0  0  0  0  0  0  0
   -8.7661    5.9491   27.9690 C   0  0  0  0  0  0  0  0  0  0  0  0
   -9.1715    2.7136   25.4037 C   0  0  0  0  0  0  0  0  0  0  0  0
   -9.8832    5.8611   27.1405 C   0  0  0  0  0  0  0  0  0  0  0  0
  -10.0016    4.7998   26.3324 C   0  0  0  0  0  0  0  0  0  0  0  0
   -8.6631    1.4684   25.7780 C   0  0  0  0  0  0  0  0  0  0  0  0
   -9.8308    2.8677   24.1519 C   0  0  0  0  0  0  0  0  0  0  0  0
   -8.7836    0.4018   24.9114 C   0  0  0  0  0  0  0  0  0  0  0  0
  -10.3557    4.0436   23.7330 C   0  0  0  0  0  0  0  0  0  0  0  0
   -9.4074    0.5783   23.6933 C   0  0  0  0  0  0  0  0  0  0  0  0
   -9.9210    1.7658   23.2865 C   0  0  0  0  0  0  0  0  0  0  0  0
  -10.4911    5.1038   24.8260 C   0  0  0  0  0  0  0  0  0  0  0  0
  -11.0227    4.3367   22.5712 C   0  0  0  0  0  0  0  0  0  0  0  0
  -12.2136    4.3642   22.3728 C   0  0  0  0  0  0  0  0  0  0  0  0
  -13.1700    4.1216   23.4621 C   0  0  0  0  0  0  0  0  0  0  0  0
  -14.5632    4.2040   23.2092 C   0  0  0  0  0  0  0  0  0  0  0  0
  -14.9100    4.4089   21.8956 C   0  0  0  0  0  0  0  0  0  0  0  0
  -14.1005    4.6232   20.8460 C   0  0  0  0  0  0  0  0  0  0  0  0
  -12.7433    4.5743   21.0697 C   0  0  0  0  0  0  0  0  0  0  0  0
 11 15  1  0
 15 16  1  0
  5  8  1  0
  8 10  2  0
 10 12  1  0
 12 13  2  0
 13  9  1  0
  1  2  2  0
  2  4  1  0
  4  6  2  0
  6  7  1  0
  3  1  1  0
  3  5  2  0
  5  9  1  0
  9 11  2  0
 11 14  1  0
 14  7  2  0
  7  3  1  0
 16 17  2  0
 17 18  1  0
 18 19  2  0
 19 20  1  0
 20 21  2  0
 21 16  1  0
M  END
$$$$
