No_7907-complexes_sdf/6BKW-FPZ/2024-09-17-14-21-01/
     RDKit          3D

 10 10  0  0  0  0  0  0  0  0999 V2000
   -7.9040    3.9820   27.1177 C   0  0  0  0  0  0  0  0  0  0  0  0
   -9.0711    4.3164   27.0630 C   0  0  0  0  0  0  0  0  0  0  0  0
   -9.8698    3.9665   25.9495 C   0  0  0  0  0  0  0  0  0  0  0  0
   -6.9515    4.6878   28.0207 C   0  0  0  0  0  0  0  0  0  0  0  0
  -11.1591    3.4833   26.0876 C   0  0  0  0  0  0  0  0  0  0  0  0
  -11.8346    3.1513   24.9888 C   0  0  0  0  0  0  0  0  0  0  0  0
   -7.5466    5.7080   28.7996 C   0  0  0  0  0  0  0  0  0  0  0  0
  -13.1854    2.6763   25.0602 C   0  0  0  0  0  0  0  0  0  0  0  0
   -8.8355    6.2201   28.4349 C   0  0  0  0  0  0  0  0  0  0  0  0
   -9.5493    5.5148   27.4779 C   0  0  0  0  0  0  0  0  0  0  0  0
  2  3  1  0
  3  5  1  0
  5  6  2  3
  6  8  1  0
  1  2  2  0
  2 10  1  0
 10  9  2  0
  9  7  1  0
  7  4  2  0
  4  1  1  0
M  END
$$$$
