No_7251-complexes_sdf/6BKW-FPZ/2024-09-17-14-21-01/
     RDKit          3D

 13 14  0  0  0  0  0  0  0  0999 V2000
   -7.7129    4.2099   27.0854 C   0  0  0  0  0  0  0  0  0  0  0  0
   -8.9133    4.4736   27.0998 C   0  0  0  0  0  0  0  0  0  0  0  0
   -9.7134    3.9633   26.0300 C   0  0  0  0  0  0  0  0  0  0  0  0
   -7.2726    3.1259   27.1802 C   0  0  0  0  0  0  0  0  0  0  0  0
   -8.0645    2.0767   26.4520 C   0  0  0  0  0  0  0  0  0  0  0  0
   -7.6791    0.7346   26.3615 C   0  0  0  0  0  0  0  0  0  0  0  0
   -9.3134    2.5298   25.9861 C   0  0  0  0  0  0  0  0  0  0  0  0
   -8.1911   -0.0886   27.1415 C   0  0  0  0  0  0  0  0  0  0  0  0
   -7.8018   -1.4827   27.2148 C   0  0  0  0  0  0  0  0  0  0  0  0
   -6.7594   -1.8397   26.4366 C   0  0  0  0  0  0  0  0  0  0  0  0
   -6.1394   -0.9476   25.6143 C   0  0  0  0  0  0  0  0  0  0  0  0
   -6.5674    0.3530   25.5860 C   0  0  0  0  0  0  0  0  0  0  0  0
   -9.5476    5.4782   27.6694 C   0  0  0  0  0  0  0  0  0  0  0  0
  5  6  1  0
  2 13  1  0
  1  2  2  0
  2  3  1  0
  3  7  2  0
  7  5  1  0
  5  4  2  0
  4  1  1  0
  6  8  2  0
  8  9  1  0
  9 10  2  0
 10 11  1  0
 11 12  2  0
 12  6  1  0
M  END
$$$$
