No_7987-complexes_sdf/6BKW-FPZ/2024-09-17-14-21-01/
     RDKit          3D

  9  9  0  0  0  0  0  0  0  0999 V2000
   -7.2496    3.8871   27.4508 C   0  0  0  0  0  0  0  0  0  0  0  0
   -7.6161    2.7143   27.1523 C   0  0  0  0  0  0  0  0  0  0  0  0
   -7.1618    1.8631   27.5232 C   0  0  0  0  0  0  0  0  0  0  0  0
   -8.0384    5.0866   27.3232 C   0  0  0  0  0  0  0  0  0  0  0  0
   -9.1223    5.1097   26.4856 C   0  0  0  0  0  0  0  0  0  0  0  0
   -8.8783    2.5973   26.4116 C   0  0  0  0  0  0  0  0  0  0  0  0
   -9.5900    3.8077   26.0949 C   0  0  0  0  0  0  0  0  0  0  0  0
   -7.4683    0.3918   27.3297 C   0  0  0  0  0  0  0  0  0  0  0  0
   -8.6926    0.2968   26.5688 C   0  0  0  0  0  0  0  0  0  0  0  0
  2  3  1  0
  3  8  2  3
  8  9  1  0
  1  2  2  0
  2  6  1  0
  6  7  2  0
  7  5  1  0
  5  4  2  0
  4  1  1  0
M  END
$$$$
