No_7585-complexes_sdf/6BKW-FPZ/2024-09-17-14-21-01/
     RDKit          3D

 22 24  0  0  0  0  0  0  0  0999 V2000
   -7.7129    4.2099   27.0854 C   0  0  0  0  0  0  0  0  0  0  0  0
   -8.2112    3.0637   26.9225 C   0  0  0  0  0  0  0  0  0  0  0  0
   -7.5138    1.9223   27.4249 C   0  0  0  0  0  0  0  0  0  0  0  0
   -6.5434    4.4363   27.9024 C   0  0  0  0  0  0  0  0  0  0  0  0
   -8.0049    0.5813   27.2334 C   0  0  0  0  0  0  0  0  0  0  0  0
   -5.7469    3.2786   28.1492 C   0  0  0  0  0  0  0  0  0  0  0  0
   -6.2627    2.0260   27.9887 C   0  0  0  0  0  0  0  0  0  0  0  0
   -7.3068   -0.4981   27.3255 C   0  0  0  0  0  0  0  0  0  0  0  0
   -7.8886   -1.7641   27.2122 C   0  0  0  0  0  0  0  0  0  0  0  0
   -9.2820   -1.8111   26.9989 C   0  0  0  0  0  0  0  0  0  0  0  0
   -9.4510    0.2822   27.0621 C   0  0  0  0  0  0  0  0  0  0  0  0
  -10.0316   -0.8056   27.0033 C   0  0  0  0  0  0  0  0  0  0  0  0
   -8.5190    5.4476   26.7906 C   0  0  0  0  0  0  0  0  0  0  0  0
   -8.3196    6.6153   27.3751 N   0  0  0  0  0  0  0  0  0  0  0  0
   -9.3573    5.3956   25.8330 O   0  0  0  0  0  0  0  0  0  0  0  0
  -11.5192   -0.9140   26.8632 C   0  0  0  0  0  0  0  0  0  0  0  0
  -12.1176   -1.7765   27.2009 C   0  0  0  0  0  0  0  0  0  0  0  0
  -13.0275   -2.1915   27.4447 C   0  0  0  0  0  0  0  0  0  0  0  0
  -13.5052   -3.5585   27.8304 C   0  0  0  0  0  0  0  0  0  0  0  0
  -12.5094   -4.4427   27.8393 C   0  0  0  0  0  0  0  0  0  0  0  0
  -11.2838   -4.1703   27.5518 C   0  0  0  0  0  0  0  0  0  0  0  0
  -10.9439   -2.9294   27.2996 C   0  0  0  0  0  0  0  0  0  0  0  0
  3  5  1  0
  1 13  1  0
 13 14  1  0
 13 15  2  0
 12 16  1  0
 16 17  1  0
 17 18  2  0
 18 19  1  0
 19 20  2  0
 20 21  1  0
 21 22  2  0
 22 17  1  0
  5  8  2  0
  8  9  1  0
  9 10  2  0
 10 12  1  0
 12 11  2  0
 11  5  1  0
  1  2  2  0
  2  3  1  0
  3  7  2  0
  7  6  1  0
  6  4  2  0
  4  1  1  0
M  END
$$$$
