No_7627-complexes_sdf/6BKW-FPZ/2024-09-17-14-21-01/
     RDKit          3D

 18 19  0  0  0  0  0  0  0  0999 V2000
   -7.2496    3.8871   27.4508 C   0  0  0  0  0  0  0  0  0  0  0  0
   -8.5096    4.0291   27.2770 C   0  0  0  0  0  0  0  0  0  0  0  0
   -9.2677    5.1714   27.5773 C   0  0  0  0  0  0  0  0  0  0  0  0
   -9.2765    2.8248   26.8371 C   0  0  0  0  0  0  0  0  0  0  0  0
   -8.6731    1.7312   26.5464 C   0  0  0  0  0  0  0  0  0  0  0  0
   -6.5350    2.6522   27.3724 C   0  0  0  0  0  0  0  0  0  0  0  0
   -5.1312    2.5258   27.7704 C   0  0  0  0  0  0  0  0  0  0  0  0
   -7.2381    1.5492   26.9619 C   0  0  0  0  0  0  0  0  0  0  0  0
  -10.3656    5.1691   28.0482 F   0  0  0  0  0  0  0  0  0  0  0  0
   -8.5258    6.0246   28.4779 F   0  0  0  0  0  0  0  0  0  0  0  0
   -9.1648    6.0153   26.4395 F   0  0  0  0  0  0  0  0  0  0  0  0
   -4.5332    1.2819   27.9020 N   0  0  0  0  0  0  0  0  0  0  0  0
   -4.8011    0.4177   28.6914 C   0  0  0  0  0  0  0  0  0  0  0  0
   -4.3267   -0.2575   29.3584 C   0  0  0  0  0  0  0  0  0  0  0  0
   -4.3628   -1.0832   30.1992 C   0  0  0  0  0  0  0  0  0  0  0  0
   -5.7593   -1.5516   30.4337 C   0  0  0  0  0  0  0  0  0  0  0  0
   -6.6517   -1.1233   29.5189 C   0  0  0  0  0  0  0  0  0  0  0  0
   -6.2994   -0.0974   28.6381 C   0  0  0  0  0  0  0  0  0  0  0  0
  2  3  1  0
  6  7  1  0
  3  9  1  0
  3 10  1  0
  3 11  1  0
  7 12  2  3
 12 13  1  0
 13 14  2  0
 14 15  1  0
 15 16  2  0
 16 17  1  0
 17 18  2  0
 18 13  1  0
  1  2  2  0
  2  4  1  0
  4  5  2  0
  5  8  1  0
  8  6  2  0
  6  1  1  0
M  END
$$$$
