No_7136-complexes_sdf/6BKW-FPZ/2024-09-17-14-21-01/
     RDKit          3D

 33 37  0  0  0  0  0  0  0  0999 V2000
   -7.9040    3.9820   27.1177 C   0  0  2  0  0  0  0  0  0  0  0  0
   -9.0711    4.3164   27.0630 C   0  0  0  0  0  0  0  0  0  0  0  0
   -9.5294    5.4517   27.7215 C   0  0  0  0  0  0  0  0  0  0  0  0
   -7.4336    2.7132   26.5681 C   0  0  0  0  0  0  0  0  0  0  0  0
   -8.3353    1.8569   26.0442 C   0  0  0  0  0  0  0  0  0  0  0  0
   -9.6477    2.2853   25.9146 C   0  0  2  0  0  0  0  0  0  0  0  0
  -10.0346    3.4497   26.4483 C   0  0  2  0  0  0  0  0  0  0  0  0
   -7.8750    0.5509   25.5918 C   0  0  0  0  0  0  0  0  0  0  0  0
   -7.0002   -0.0835   26.2676 N   0  0  0  0  0  0  0  0  0  0  0  0
   -6.7430    0.2050   27.4741 C   0  0  0  0  0  0  0  0  0  0  0  0
   -5.7963   -0.7273   28.1612 C   0  0  0  0  0  0  0  0  0  0  0  0
   -5.0245   -1.1690   27.4951 C   0  0  0  0  0  0  0  0  0  0  0  0
   -6.6201   -1.3904   25.8476 C   0  0  0  0  0  0  0  0  0  0  0  0
   -5.4934   -1.9423   26.3326 C   0  0  0  0  0  0  0  0  0  0  0  0
   -8.2700    0.2512   24.4366 O   0  0  0  0  0  0  0  0  0  0  0  0
   -7.1026    4.7676   27.9674 N   0  0  0  0  0  0  0  0  0  0  0  0
   -7.8658    5.7631   28.3330 N   0  0  0  0  0  0  0  0  0  0  0  0
  -11.4450    3.8713   26.1649 C   0  0  0  0  0  0  0  0  0  0  0  0
  -12.3652    2.9633   26.6153 C   0  0  1  0  0  0  0  0  0  0  0  0
  -13.6355    3.3606   26.5721 C   0  0  0  0  0  0  0  0  0  0  0  0
  -14.4478    3.0589   26.0129 C   0  0  0  0  0  0  0  0  0  0  0  0
  -14.3725    2.0333   25.2221 C   0  0  0  0  0  0  0  0  0  0  0  0
  -13.3518    1.1930   25.4179 C   0  0  0  0  0  0  0  0  0  0  0  0
  -12.1253    1.7843   25.8709 C   0  0  0  0  0  0  0  0  0  0  0  0
  -10.6942    1.3360   25.6146 C   0  0  0  0  0  0  0  0  0  0  0  0
  -12.1500    2.5255   28.1671 C   0  0  0  0  0  0  0  0  0  0  0  0
  -13.0493    2.2462   28.9032 C   0  0  0  0  0  0  0  0  0  0  0  0
  -12.8825    2.3720   30.3191 C   0  0  0  0  0  0  0  0  0  0  0  0
  -14.0833    2.2087   31.0783 C   0  0  0  0  0  0  0  0  0  0  0  0
  -15.1759    1.6594   30.5623 C   0  0  0  0  0  0  0  0  0  0  0  0
  -15.3127    1.4690   29.2298 C   0  0  0  0  0  0  0  0  0  0  0  0
  -14.2676    1.7560   28.4219 C   0  0  0  0  0  0  0  0  0  0  0  0
  -14.6235    2.3175   27.4543 F   0  0  0  0  0  0  0  0  0  0  0  0
  1  2  1  0
  2  3  2  0
  1  4  1  1
  4  5  1  0
  5  6  1  0
  2  7  1  0
  6  7  1  0
  5  8  1  0
  8  9  1  0
  9 10  1  0
 11 12  1  0
  9 13  1  0
 12 14  1  0
  8 15  2  0
  1 16  1  0
  3 17  1  0
 16 17  1  0
  7 18  1  6
 19 18  1  6
 19 20  1  0
 20 21  1  0
 21 22  1  0
 19 24  1  0
 23 24  1  0
  6 25  1  1
 24 25  1  0
 19 26  1  0
 26 27  2  3
 27 28  1  0
 28 29  2  3
 29 30  1  0
 30 31  2  3
 31 32  1  0
 32 33  1  0
 10 11  1  0
 14 13  1  0
 22 23  1  0
M  END
$$$$
