No_7773-complexes_sdf/6BKW-FPZ/2024-09-17-14-21-01/
     RDKit          3D

 38 44  0  0  0  0  0  0  0  0999 V2000
   -7.9040    3.9820   27.1177 C   0  0  0  0  0  0  0  0  0  0  0  0
   -8.2057    2.8231   26.8733 C   0  0  0  0  0  0  0  0  0  0  0  0
   -7.0130    4.3706   28.1140 C   0  0  0  0  0  0  0  0  0  0  0  0
   -9.4741    2.4344   26.3718 C   0  0  0  0  0  0  0  0  0  0  0  0
  -10.1511    3.3403   26.0426 C   0  0  0  0  0  0  0  0  0  0  0  0
   -9.9192    4.7252   26.1468 C   0  0  0  0  0  0  0  0  0  0  0  0
   -8.7499    5.0400   26.8172 C   0  0  0  0  0  0  0  0  0  0  0  0
   -8.4523    6.3341   27.1167 N   0  0  0  0  0  0  0  0  0  0  0  0
   -8.0362    7.3480   26.5584 C   0  0  0  0  0  0  0  0  0  0  0  0
   -7.4273    6.0623   28.0943 C   0  0  0  0  0  0  0  0  0  0  0  0
   -7.2740    1.6440   27.3846 C   0  0  0  0  0  0  0  0  0  0  0  0
   -7.5522    0.2863   27.1330 C   0  0  0  0  0  0  0  0  0  0  0  0
   -6.6339   -0.6497   27.6133 C   0  0  0  0  0  0  0  0  0  0  0  0
   -5.4261   -0.2249   28.2007 C   0  0  0  0  0  0  0  0  0  0  0  0
   -5.1294    1.1462   28.3033 C   0  0  0  0  0  0  0  0  0  0  0  0
   -5.9582    2.0400   27.8742 C   0  0  0  0  0  0  0  0  0  0  0  0
   -4.4832   -1.2678   28.7251 C   0  0  0  0  0  0  0  0  0  0  0  0
   -3.3852   -1.0737   28.6993 C   0  0  0  0  0  0  0  0  0  0  0  0
   -2.4243   -1.8099   29.4932 C   0  0  0  0  0  0  0  0  0  0  0  0
   -2.9169   -2.9351   30.1184 C   0  0  0  0  0  0  0  0  0  0  0  0
   -4.2613   -3.1379   30.1547 C   0  0  0  0  0  0  0  0  0  0  0  0
   -5.1479   -2.2353   29.5660 C   0  0  0  0  0  0  0  0  0  0  0  0
  -11.4238    3.0390   25.1547 C   0  0  2  0  0  0  0  0  0  0  0  0
  -11.5618    2.1317   24.6065 N   0  0  0  0  0  0  0  0  0  0  0  0
  -11.2930    1.8727   23.4650 C   0  0  0  0  0  0  0  0  0  0  0  0
  -11.1620    0.5638   22.8976 C   0  0  0  0  0  0  0  0  0  0  0  0
  -10.1871    2.6829   22.8224 C   0  0  0  0  0  0  0  0  0  0  0  0
  -10.7681    0.2572   21.5935 C   0  0  0  0  0  0  0  0  0  0  0  0
   -9.7326    2.4542   21.4655 C   0  0  0  0  0  0  0  0  0  0  0  0
   -9.9207    1.2186   20.9701 C   0  0  0  0  0  0  0  0  0  0  0  0
  -12.3392    1.0099   25.3161 C   0  0  0  0  0  0  0  0  0  0  0  0
  -13.1767    1.2370   25.9712 C   0  0  0  0  0  0  0  0  0  0  0  0
  -13.9644    0.9119   26.6713 C   0  0  0  0  0  0  0  0  0  0  0  0
  -15.0760    1.5765   27.4307 C   0  0  0  0  0  0  0  0  0  0  0  0
  -15.1152    2.9540   27.2691 C   0  0  0  0  0  0  0  0  0  0  0  0
  -14.2286    3.5818   26.4196 C   0  0  0  0  0  0  0  0  0  0  0  0
  -13.2718    2.8991   25.7574 C   0  0  0  0  0  0  0  0  0  0  0  0
  -12.6350    3.6770   24.6967 C   0  0  0  0  0  0  0  0  0  0  0  0
  1  3  1  0
  7  8  1  0
  8  9  1  0
  3 10  1  0
  8 10  1  0
  2 11  1  0
 14 17  1  0
 23  5  1  6
 23 24  1  0
 24 25  1  0
 24 31  1  0
 23 38  1  0
 37 38  1  0
 32 31  1  0
 25 26  2  0
 26 28  1  0
 28 30  2  0
 30 29  1  0
 29 27  2  0
 27 25  1  0
 32 33  2  0
 33 34  1  0
 34 35  2  0
 35 36  1  0
 36 37  2  0
 37 32  1  0
 11 12  2  0
 12 13  1  0
 13 14  2  0
 14 15  1  0
 15 16  2  0
 16 11  1  0
 17 18  2  0
 18 19  1  0
 19 20  2  0
 20 21  1  0
 21 22  2  0
 22 17  1  0
  1  2  2  0
  2  4  1  0
  4  5  2  0
  5  6  1  0
  6  7  2  0
  7  1  1  0
M  END
$$$$
