No_7886-complexes_sdf/6BKW-FPZ/2024-09-17-14-21-01/
     RDKit          3D

 15 16  0  0  0  0  0  0  0  0999 V2000
   -7.9040    3.9820   27.1177 C   0  0  0  0  0  0  0  0  0  0  0  0
   -8.2057    2.8231   26.8733 C   0  0  0  0  0  0  0  0  0  0  0  0
   -8.7695    5.0740   26.7916 C   0  0  0  0  0  0  0  0  0  0  0  0
   -8.4337    6.4678   27.0913 C   0  0  0  0  0  0  0  0  0  0  0  0
   -9.3742    2.4311   26.2346 C   0  0  0  0  0  0  0  0  0  0  0  0
  -10.2395    3.4267   25.8887 C   0  0  0  0  0  0  0  0  0  0  0  0
   -9.9567    4.7548   26.1374 C   0  0  0  0  0  0  0  0  0  0  0  0
   -8.7467    7.4299   26.4155 N   0  0  0  0  0  0  0  0  0  0  0  0
   -7.5472    6.5525   28.0905 O   0  0  0  0  0  0  0  0  0  0  0  0
   -7.2500    1.6654   27.2687 C   0  0  0  0  0  0  0  0  0  0  0  0
   -5.9946    1.9897   27.8374 C   0  0  0  0  0  0  0  0  0  0  0  0
   -5.0998    0.9264   28.2007 C   0  0  0  0  0  0  0  0  0  0  0  0
   -5.4735   -0.3690   28.0689 C   0  0  0  0  0  0  0  0  0  0  0  0
   -7.5394    0.3246   27.2042 C   0  0  0  0  0  0  0  0  0  0  0  0
   -6.7552   -0.6440   27.6273 C   0  0  0  0  0  0  0  0  0  0  0  0
  3  4  1  0
  4  8  1  0
  4  9  2  0
  2 10  1  0
 10 11  2  0
 11 12  1  0
 12 13  2  0
 13 15  1  0
 15 14  2  0
 14 10  1  0
  1  2  2  0
  2  5  1  0
  5  6  2  0
  6  7  1  0
  7  3  2  0
  3  1  1  0
M  END
$$$$
