No_7755-complexes_sdf/6BKW-FPZ/2024-09-17-14-21-01/
     RDKit          3D

 36 40  0  0  0  0  0  0  0  0999 V2000
   -7.9040    3.9820   27.1177 C   0  0  0  0  0  0  0  0  0  0  0  0
   -7.8663    4.8694   27.9238 C   0  0  0  0  0  0  0  0  0  0  0  0
   -9.0491    3.8523   26.2542 C   0  0  0  0  0  0  0  0  0  0  0  0
   -8.7661    5.9491   27.9690 C   0  0  0  0  0  0  0  0  0  0  0  0
   -9.9295    4.8502   26.2323 C   0  0  0  0  0  0  0  0  0  0  0  0
   -9.8077    5.9288   27.0933 C   0  0  0  0  0  0  0  0  0  0  0  0
   -9.0726    2.7074   25.3087 C   0  0  0  0  0  0  0  0  0  0  0  0
   -8.6026    1.4628   25.7488 C   0  0  0  0  0  0  0  0  0  0  0  0
   -9.7747    2.8675   24.1040 C   0  0  0  0  0  0  0  0  0  0  0  0
   -8.0589    1.2683   26.9935 C   0  0  0  0  0  0  0  0  0  0  0  0
   -7.4192    1.9231   27.6740 C   0  0  0  0  0  0  0  0  0  0  0  0
   -7.2116    2.7839   27.7403 C   0  0  0  0  0  0  0  0  0  0  0  0
  -10.4711    4.0258   23.7725 C   0  0  0  0  0  0  0  0  0  0  0  0
  -10.6453    4.9437   24.9398 C   0  0  0  0  0  0  0  0  0  0  0  0
  -11.2601    4.2032   22.6583 C   0  0  0  0  0  0  0  0  0  0  0  0
  -10.7422    3.8332   21.5095 C   0  0  0  0  0  0  0  0  0  0  0  0
  -10.8205    2.7922   20.9637 C   0  0  0  0  0  0  0  0  0  0  0  0
  -10.1025    1.8127   21.4853 C   0  0  0  0  0  0  0  0  0  0  0  0
   -9.7214    1.8452   23.0291 C   0  0  0  0  0  0  0  0  0  0  0  0
   -9.8722    0.4039   21.1513 C   0  0  2  0  0  0  0  0  0  0  0  0
   -9.0089   -0.3707   21.6798 N   0  0  0  0  0  0  0  0  0  0  0  0
   -8.8022   -1.6724   21.2927 C   0  0  0  0  0  0  0  0  0  0  0  0
   -9.2342   -1.9530   20.0324 C   0  0  2  0  0  0  0  0  0  0  0  0
   -9.9816   -0.2423   19.8284 C   0  0  0  0  0  0  0  0  0  0  0  0
   -9.3493   -2.8100   19.1084 C   0  0  0  0  0  0  0  0  0  0  0  0
   -8.6340   -3.5516   18.8262 O   0  0  0  0  0  0  0  0  0  0  0  0
  -10.5868   -3.0003   18.5820 O   0  0  0  0  0  0  0  0  0  0  0  0
  -10.8722   -3.2051   17.4984 C   0  0  0  0  0  0  0  0  0  0  0  0
  -11.6389   -2.9696   16.7662 C   0  0  0  0  0  0  0  0  0  0  0  0
  -12.7763   -2.1876   17.3053 C   0  0  0  0  0  0  0  0  0  0  0  0
  -13.2488   -2.2769   18.3619 C   0  0  0  0  0  0  0  0  0  0  0  0
  -14.3899   -1.4761   18.9133 C   0  0  0  0  0  0  0  0  0  0  0  0
  -14.8300   -1.4928   20.2658 C   0  0  0  0  0  0  0  0  0  0  0  0
  -15.8340   -0.6848   20.7555 C   0  0  0  0  0  0  0  0  0  0  0  0
  -16.4446    0.1859   19.8472 C   0  0  0  0  0  0  0  0  0  0  0  0
  -16.0351    0.2473   18.5604 C   0  0  0  0  0  0  0  0  0  0  0  0
  8 10  1  0
 10 11  2  0
  1 12  1  0
 11 12  1  0
 13 15  1  0
 15 16  1  0
 16 17  1  0
 17 18  2  0
  9 19  1  0
 18 19  1  0
 20 18  1  6
 20 21  1  0
 21 22  2  0
 22 23  1  0
 20 24  1  0
 23 24  1  0
 23 25  1  1
 25 26  2  0
 25 27  1  0
 27 28  1  0
 28 29  2  3
 29 30  1  0
 30 31  2  3
 31 32  1  0
 32 33  2  3
 33 34  1  0
 34 35  2  3
 35 36  1  0
  8  7  1  0
  1  2  2  0
  2  4  1  0
  4  6  2  0
  6  5  1  0
  3  1  1  0
  3  5  2  0
  5 14  1  0
 14 13  2  0
 13  9  1  0
  9  7  2  0
  7  3  1  0
M  END
$$$$
