No_7995-complexes_sdf/6BKW-FPZ/2024-09-17-14-21-01/
     RDKit          3D

 19 20  0  0  0  0  0  0  0  0999 V2000
   -7.9040    3.9820   27.1177 C   0  0  0  0  0  0  0  0  0  0  0  0
   -8.2057    2.8231   26.8733 C   0  0  0  0  0  0  0  0  0  0  0  0
   -8.7695    5.0740   26.7916 C   0  0  0  0  0  0  0  0  0  0  0  0
   -8.4337    6.4678   27.0913 C   0  0  0  0  0  0  0  0  0  0  0  0
   -9.3742    2.4311   26.2346 C   0  0  0  0  0  0  0  0  0  0  0  0
  -10.2395    3.4267   25.8887 C   0  0  0  0  0  0  0  0  0  0  0  0
   -9.9567    4.7548   26.1374 C   0  0  0  0  0  0  0  0  0  0  0  0
   -8.7531    7.4243   26.4062 N   0  0  0  0  0  0  0  0  0  0  0  0
   -7.3011    6.5674   27.8493 O   0  0  0  0  0  0  0  0  0  0  0  0
   -7.2635    1.6689   27.2882 C   0  0  0  0  0  0  0  0  0  0  0  0
   -6.0050    1.9946   27.8320 C   0  0  0  0  0  0  0  0  0  0  0  0
   -5.1193    0.9290   28.2064 C   0  0  0  0  0  0  0  0  0  0  0  0
   -5.5074   -0.3549   28.0849 C   0  0  0  0  0  0  0  0  0  0  0  0
   -7.5688    0.3149   27.2111 C   0  0  0  0  0  0  0  0  0  0  0  0
   -6.7963   -0.6354   27.6462 C   0  0  0  0  0  0  0  0  0  0  0  0
   -4.6029   -1.3966   28.6259 C   0  0  0  0  0  0  0  0  0  0  0  0
   -3.6897   -1.4942   28.1461 F   0  0  0  0  0  0  0  0  0  0  0  0
   -4.4334   -1.0950   29.9984 F   0  0  0  0  0  0  0  0  0  0  0  0
   -5.3082   -2.5775   28.6870 F   0  0  0  0  0  0  0  0  0  0  0  0
  3  4  1  0
  4  8  1  0
  4  9  2  0
  2 10  1  0
 13 16  1  0
 16 17  1  0
 16 18  1  0
 16 19  1  0
 10 11  2  0
 11 12  1  0
 12 13  2  0
 13 15  1  0
 15 14  2  0
 14 10  1  0
  1  2  2  0
  2  5  1  0
  5  6  2  0
  6  7  1  0
  7  3  2  0
  3  1  1  0
M  END
$$$$
