No_7423-complexes_sdf/6BKW-FPZ/2024-09-17-14-21-01/
     RDKit          3D

 12 12  0  0  0  0  0  0  0  0999 V2000
   -7.9040    3.9820   27.1177 C   0  0  0  0  0  0  0  0  0  0  0  0
   -7.8663    4.8694   27.9238 C   0  0  0  0  0  0  0  0  0  0  0  0
   -7.4547    2.7080   27.4594 C   0  0  0  0  0  0  0  0  0  0  0  0
   -6.1474    2.6388   27.8014 C   0  0  0  0  0  0  0  0  0  0  0  0
   -8.5539    6.1392   27.6636 C   0  0  0  0  0  0  0  0  0  0  0  0
   -8.9869    4.1037   26.1859 C   0  0  0  0  0  0  0  0  0  0  0  0
   -9.4241    2.9565   25.3431 C   0  0  0  0  0  0  0  0  0  0  0  0
   -9.5891    5.3157   25.9277 C   0  0  0  0  0  0  0  0  0  0  0  0
   -9.2980    6.3472   26.7160 C   0  0  0  0  0  0  0  0  0  0  0  0
   -5.4477    1.3703   27.9832 C   0  0  0  0  0  0  0  0  0  0  0  0
   -6.1195    0.1804   27.8389 C   0  0  0  0  0  0  0  0  0  0  0  0
   -7.4877    0.2696   27.3582 C   0  0  0  0  0  0  0  0  0  0  0  0
  3  4  1  0
  6  7  1  0
  4 10  2  3
 10 11  1  0
 11 12  2  0
  3  1  1  0
  1  2  2  0
  2  5  1  0
  5  9  2  0
  9  8  1  0
  8  6  2  0
  6  1  1  0
M  END
$$$$
