No_7379-complexes_sdf/6BKW-FPZ/2024-09-17-14-21-01/
     RDKit          3D

 15 15  0  0  0  0  0  0  0  0999 V2000
   -7.9040    3.9820   27.1177 C   0  0  0  0  0  0  0  0  0  0  0  0
   -7.8663    4.8694   27.9238 C   0  0  0  0  0  0  0  0  0  0  0  0
   -9.0491    3.8523   26.2542 C   0  0  0  0  0  0  0  0  0  0  0  0
   -8.7661    5.9491   27.9690 C   0  0  0  0  0  0  0  0  0  0  0  0
   -9.9295    4.8502   26.2323 C   0  0  0  0  0  0  0  0  0  0  0  0
   -9.8077    5.9288   27.0933 C   0  0  0  0  0  0  0  0  0  0  0  0
   -7.0146    2.9513   27.1368 F   0  0  0  0  0  0  0  0  0  0  0  0
   -9.1130    2.5493   25.1061 Cl  0  0  0  0  0  0  0  0  0  0  0  0
  -10.9473    4.9510   25.3840 O   0  0  0  0  0  0  0  0  0  0  0  0
  -10.9566    4.1730   24.2677 C   0  0  0  0  0  0  0  0  0  0  0  0
  -11.6830    4.2195   23.2713 C   0  0  0  0  0  0  0  0  0  0  0  0
  -11.5553    3.4496   22.1309 C   0  0  0  0  0  0  0  0  0  0  0  0
  -10.6428    2.3918   22.1900 C   0  0  0  0  0  0  0  0  0  0  0  0
   -9.8284    2.2322   23.2611 C   0  0  0  0  0  0  0  0  0  0  0  0
   -9.0171    1.1711   23.1665 N   0  0  0  0  0  0  0  0  0  0  0  0
  1  7  1  0
  3  8  1  0
  5  9  1  0
  9 10  1  0
 10 11  1  0
 11 12  2  3
 12 13  1  0
 13 14  2  0
 14 15  2  0
  1  2  2  0
  2  4  1  0
  4  6  2  0
  6  5  1  0
  5  3  2  0
  3  1  1  0
M  END
$$$$
