No_7841-complexes_sdf/6BKW-FPZ/2024-09-17-14-21-01/
     RDKit          3D

 28 30  0  0  0  0  0  0  0  0999 V2000
   -7.9040    3.9820   27.1177 C   0  0  0  0  0  0  0  0  0  0  0  0
   -7.8663    4.8694   27.9238 C   0  0  0  0  0  0  0  0  0  0  0  0
   -9.0953    3.1697   27.0532 C   0  0  0  0  0  0  0  0  0  0  0  0
  -10.1313    3.4052   27.8871 C   0  0  0  0  0  0  0  0  0  0  0  0
  -11.2910    2.5514   27.9289 C   0  0  0  0  0  0  0  0  0  0  0  0
   -8.9775    5.3451   28.7374 C   0  0  0  0  0  0  0  0  0  0  0  0
  -10.0738    4.4970   28.7375 C   0  0  0  0  0  0  0  0  0  0  0  0
  -12.4825    3.0161   28.2643 C   0  0  0  0  0  0  0  0  0  0  0  0
  -12.9469    4.0476   27.9178 C   0  0  0  0  0  0  0  0  0  0  0  0
  -12.3328    4.8043   26.8695 C   0  0  0  0  0  0  0  0  0  0  0  0
   -9.0498    1.9245   26.2595 C   0  0  0  0  0  0  0  0  0  0  0  0
   -9.6976    1.9835   25.0287 C   0  0  0  0  0  0  0  0  0  0  0  0
   -9.6343    0.9671   24.1451 C   0  0  0  0  0  0  0  0  0  0  0  0
   -8.3714    0.8333   26.6203 C   0  0  0  0  0  0  0  0  0  0  0  0
   -8.2253   -0.2762   25.8181 C   0  0  0  0  0  0  0  0  0  0  0  0
   -8.8697   -0.1828   24.5561 C   0  0  0  0  0  0  0  0  0  0  0  0
  -14.2582    4.6260   28.4169 C   0  0  0  0  0  0  0  0  0  0  0  0
  -14.4061    4.7781   29.6565 C   0  0  0  0  0  0  0  0  0  0  0  0
  -15.6695    5.3092   30.1806 C   0  0  0  0  0  0  0  0  0  0  0  0
  -16.5160    5.9543   29.2582 C   0  0  0  0  0  0  0  0  0  0  0  0
  -15.1240    5.3212   27.5064 C   0  0  0  0  0  0  0  0  0  0  0  0
  -16.2365    5.9352   27.9379 C   0  0  0  0  0  0  0  0  0  0  0  0
  -10.2670    1.0083   22.8502 C   0  0  0  0  0  0  0  0  0  0  0  0
  -10.2818    2.1847   22.2490 C   0  0  0  0  0  0  0  0  0  0  0  0
  -10.9445    2.8053   21.6803 C   0  0  0  0  0  0  0  0  0  0  0  0
  -10.7059    4.2055   21.0485 C   0  0  0  0  0  0  0  0  0  0  0  0
   -9.9436    4.9938   21.8109 C   0  0  0  0  0  0  0  0  0  0  0  0
   -9.5897    4.5213   23.1246 C   0  0  0  0  0  0  0  0  0  0  0  0
  4  5  1  0
  5  8  1  0
  8  9  2  3
  9 10  1  0
  3 11  1  0
  9 17  1  0
 13 23  1  0
 23 24  2  3
 24 25  1  0
 25 26  2  3
 26 27  1  0
 27 28  2  0
  1  2  2  0
  2  6  1  0
  6  7  2  0
  7  4  1  0
  4  3  2  0
  3  1  1  0
 17 18  2  0
 18 19  1  0
 19 20  2  0
 20 22  1  0
 22 21  2  0
 21 17  1  0
 11 12  2  0
 12 13  1  0
 13 16  2  0
 16 15  1  0
 15 14  2  0
 14 11  1  0
M  END
$$$$
