No_7026-complexes_sdf/6BKW-FPZ/2024-09-17-14-21-01/
     RDKit          3D

 13 14  0  0  0  0  0  0  0  0999 V2000
   -7.9040    3.9820   27.1177 C   0  0  0  0  0  0  0  0  0  0  0  0
   -8.2057    2.8231   26.8733 C   0  0  0  0  0  0  0  0  0  0  0  0
   -8.7695    5.0740   26.7916 C   0  0  0  0  0  0  0  0  0  0  0  0
   -9.9618    4.7598   26.1630 C   0  0  0  0  0  0  0  0  0  0  0  0
   -9.4200    2.4524   26.2850 C   0  0  0  0  0  0  0  0  0  0  0  0
  -10.2590    3.4815   25.9250 C   0  0  0  0  0  0  0  0  0  0  0  0
   -8.3305    6.7026   27.1366 Cl  0  0  0  0  0  0  0  0  0  0  0  0
   -7.2614    1.6871   27.2777 C   0  0  0  0  0  0  0  0  0  0  0  0
   -6.0240    2.0402   27.8604 C   0  0  0  0  0  0  0  0  0  0  0  0
   -5.1111    0.9751   28.2402 C   0  0  0  0  0  0  0  0  0  0  0  0
   -5.4735   -0.3233   28.1127 C   0  0  0  0  0  0  0  0  0  0  0  0
   -7.5279    0.3394   27.2282 C   0  0  0  0  0  0  0  0  0  0  0  0
   -6.7351   -0.6148   27.6600 C   0  0  0  0  0  0  0  0  0  0  0  0
  3  7  1  0
  2  8  1  0
  1  2  2  0
  2  5  1  0
  5  6  2  0
  6  4  1  0
  4  3  2  0
  3  1  1  0
  8  9  2  0
  9 10  1  0
 10 11  2  0
 11 13  1  0
 13 12  2  0
 12  8  1  0
M  END
$$$$
