No_7401-complexes_sdf/6BKW-FPZ/2024-09-17-14-21-01/
     RDKit          3D

 40 44  0  0  0  0  0  0  0  0999 V2000
   -7.9040    3.9820   27.1177 C   0  0  0  0  0  0  0  0  0  0  0  0
   -8.2057    2.8231   26.8733 C   0  0  0  0  0  0  0  0  0  0  0  0
   -7.4766    1.7477   27.4593 C   0  0  0  0  0  0  0  0  0  0  0  0
   -8.7468    5.1251   26.6967 C   0  0  0  0  0  0  0  0  0  0  0  0
   -8.4775    6.4967   27.1056 C   0  0  0  0  0  0  0  0  0  0  0  0
   -6.1091    2.0776   27.8409 C   0  0  0  0  0  0  0  0  0  0  0  0
   -5.3948    1.0538   28.3765 F   0  0  0  0  0  0  0  0  0  0  0  0
   -9.2475    7.5609   26.6924 C   0  0  0  0  0  0  0  0  0  0  0  0
   -9.4391    2.7391   26.0984 C   0  0  0  0  0  0  0  0  0  0  0  0
   -9.8485    1.2980   25.7387 C   0  0  0  0  0  0  0  0  0  0  0  0
   -9.6749    4.8154   25.6538 C   0  0  0  0  0  0  0  0  0  0  0  0
  -10.0694    3.6698   25.4579 C   0  0  0  0  0  0  0  0  0  0  0  0
  -10.8941    1.0638   25.3215 C   0  0  0  0  0  0  0  0  0  0  0  0
  -11.3406   -0.3037   25.1635 C   0  0  0  0  0  0  0  0  0  0  0  0
  -10.4682   -1.3040   25.5822 C   0  0  0  0  0  0  0  0  0  0  0  0
   -9.2333   -1.0440   26.0674 C   0  0  0  0  0  0  0  0  0  0  0  0
   -8.8539    0.2460   26.2634 C   0  0  0  0  0  0  0  0  0  0  0  0
   -7.7237    0.5255   27.1094 C   0  0  0  0  0  0  0  0  0  0  0  0
   -7.2120    6.6600   27.8363 C   0  0  0  0  0  0  0  0  0  0  0  0
   -5.5445    3.1774   27.7622 F   0  0  0  0  0  0  0  0  0  0  0  0
  -10.9367   -2.7304   25.3626 C   0  0  2  0  0  0  0  0  0  0  0  0
  -11.0387   -3.5201   26.4541 C   0  0  0  0  0  0  0  0  0  0  0  0
  -11.0031   -3.1994   27.6117 C   0  0  0  0  0  0  0  0  0  0  0  0
  -11.1279   -4.1028   28.8079 C   0  0  0  0  0  0  0  0  0  0  0  0
  -11.2630   -5.3659   28.5155 C   0  0  0  0  0  0  0  0  0  0  0  0
  -11.3001   -5.8189   27.2505 C   0  0  0  0  0  0  0  0  0  0  0  0
  -11.1720   -4.9399   26.1820 C   0  0  0  0  0  0  0  0  0  0  0  0
  -11.1404   -3.1395   24.0439 C   0  0  0  0  0  0  0  0  0  0  0  0
  -11.1403   -2.3618   22.9841 C   0  0  0  0  0  0  0  0  0  0  0  0
  -11.3680   -2.9503   21.7357 C   0  0  0  0  0  0  0  0  0  0  0  0
  -11.3838   -2.1392   20.5957 C   0  0  0  0  0  0  0  0  0  0  0  0
  -11.0736   -0.7440   20.7147 C   0  0  0  0  0  0  0  0  0  0  0  0
  -10.7241   -0.2189   21.9293 C   0  0  0  0  0  0  0  0  0  0  0  0
  -10.7306   -0.9507   22.9981 C   0  0  0  0  0  0  0  0  0  0  0  0
  -12.6407   -0.4759   25.8044 O   0  0  0  0  0  0  0  0  0  0  0  0
  -13.7617   -0.3850   25.1370 C   0  0  0  0  0  0  0  0  0  0  0  0
  -14.1731    0.7789   24.7344 C   0  0  0  0  0  0  0  0  0  0  0  0
  -14.1436    1.8365   25.4527 C   0  0  0  0  0  0  0  0  0  0  0  0
  -14.5175    3.1911   25.0563 C   0  0  0  0  0  0  0  0  0  0  0  0
  -14.3776    4.3795   25.8918 C   0  0  0  0  0  0  0  0  0  0  0  0
  2  3  1  0
  4  5  1  0
  3  6  2  3
  6  7  1  0
  5  8  2  0
  9 10  1  0
  3 18  1  0
 17 18  1  0
  5 19  1  0
  6 20  1  0
 15 21  1  0
 21 22  1  0
 21 28  1  6
 28 29  1  0
 14 35  1  0
 35 36  1  0
 36 37  2  3
 37 38  1  0
 38 39  2  3
 39 40  1  0
 22 23  2  0
 23 24  1  0
 24 25  2  0
 25 26  1  0
 26 27  2  0
 27 22  1  0
  1  2  2  0
  2  9  1  0
  9 12  2  0
 12 11  1  0
 11  4  2  0
  4  1  1  0
 10 13  2  0
 13 14  1  0
 14 15  2  0
 15 16  1  0
 16 17  2  0
 17 10  1  0
 29 30  2  0
 30 31  1  0
 31 32  2  0
 32 33  1  0
 33 34  2  0
 34 29  1  0
M  END
$$$$
