No_7551-complexes_sdf/6BKW-FPZ/2024-09-17-14-21-01/
     RDKit          3D

 15 15  0  0  0  0  0  0  0  0999 V2000
   -7.9040    3.9820   27.1177 C   0  0  0  0  0  0  0  0  0  0  0  0
   -8.2057    2.8231   26.8733 C   0  0  0  0  0  0  0  0  0  0  0  0
   -8.7695    5.0740   26.7916 C   0  0  0  0  0  0  0  0  0  0  0  0
   -8.4337    6.4678   27.0913 C   0  0  0  0  0  0  0  0  0  0  0  0
   -9.3742    2.4311   26.2346 C   0  0  0  0  0  0  0  0  0  0  0  0
  -10.2395    3.4267   25.8887 C   0  0  0  0  0  0  0  0  0  0  0  0
   -9.9567    4.7548   26.1374 C   0  0  0  0  0  0  0  0  0  0  0  0
   -7.9449    7.5014   26.9590 N   0  0  0  0  0  0  0  0  0  0  0  0
   -7.4536    1.5358   27.2327 C   0  0  2  0  0  0  0  0  0  0  0  0
   -6.0247    1.8915   28.0704 Cl  0  0  0  0  0  0  0  0  0  0  0  0
   -7.7270    0.2600   26.9516 C   0  0  0  0  0  0  0  0  0  0  0  0
   -6.9784   -0.5782   26.8021 C   0  0  0  0  0  0  0  0  0  0  0  0
   -7.3184   -1.9635   26.4764 C   0  0  0  0  0  0  0  0  0  0  0  0
   -8.6400   -2.1684   26.1676 C   0  0  0  0  0  0  0  0  0  0  0  0
   -9.5647   -1.1864   26.3541 C   0  0  0  0  0  0  0  0  0  0  0  0
  3  4  1  0
  4  8  3  0
  2  9  1  0
  9 10  1  6
  9 11  1  0
 11 12  2  3
 12 13  1  0
 13 14  2  3
 14 15  1  0
  1  2  2  0
  2  5  1  0
  5  6  2  0
  6  7  1  0
  7  3  2  0
  3  1  1  0
M  END
$$$$
