No_7487-complexes_sdf/6BKW-FPZ/2024-09-17-14-21-01/
     RDKit          3D

 27 30  0  0  0  0  0  0  0  0999 V2000
   -7.2496    3.8871   27.4508 C   0  0  0  0  0  0  0  0  0  0  0  0
   -7.9379    4.9063   27.8518 C   0  0  0  0  0  0  0  0  0  0  0  0
   -7.5112    6.1898   27.6280 C   0  0  0  0  0  0  0  0  0  0  0  0
   -7.8078    2.6331   27.2522 C   0  0  2  0  0  0  0  0  0  0  0  0
   -7.1538    1.5087   26.7509 C   0  0  0  0  0  0  0  0  0  0  0  0
   -9.2767    2.6625   26.9122 C   0  0  0  0  0  0  0  0  0  0  0  0
   -9.9438    3.7241   26.8735 C   0  0  2  0  0  0  0  0  0  0  0  0
   -9.4699    4.9245   27.7811 C   0  0  0  0  0  0  0  0  0  0  0  0
   -6.0836    1.0595   27.7291 C   0  0  0  0  0  0  0  0  0  0  0  0
   -5.3729   -0.1469   27.5914 C   0  0  0  0  0  0  0  0  0  0  0  0
   -5.8296   -0.9402   26.5916 C   0  0  0  0  0  0  0  0  0  0  0  0
   -7.5261    0.4634   25.9974 C   0  0  0  0  0  0  0  0  0  0  0  0
   -6.8799   -0.6561   25.7771 C   0  0  0  0  0  0  0  0  0  0  0  0
   -4.2178   -0.3913   28.4449 C   0  0  0  0  0  0  0  0  0  0  0  0
   -3.0617   -0.3456   27.9660 C   0  0  0  0  0  0  0  0  0  0  0  0
   -4.4711   -0.6717   29.8653 C   0  0  0  0  0  0  0  0  0  0  0  0
   -4.3619   -1.4959   30.4348 C   0  0  0  0  0  0  0  0  0  0  0  0
   -4.7154   -1.6600   31.8699 C   0  0  0  0  0  0  0  0  0  0  0  0
   -4.7120   -2.7426   32.6364 C   0  0  0  0  0  0  0  0  0  0  0  0
   -2.1984   -1.4530   28.3039 C   0  0  0  0  0  0  0  0  0  0  0  0
   -1.9685   -1.9823   29.6311 C   0  0  0  0  0  0  0  0  0  0  0  0
   -2.9183   -2.1697   30.5420 C   0  0  0  0  0  0  0  0  0  0  0  0
   -3.4433   -3.4235   32.5021 C   0  0  0  0  0  0  0  0  0  0  0  0
   -2.5432   -3.1540   31.5706 C   0  0  0  0  0  0  0  0  0  0  0  0
  -11.3824    3.7085   26.7666 C   0  0  0  0  0  0  0  0  0  0  0  0
  -11.8339    3.7777   25.5343 C   0  0  0  0  0  0  0  0  0  0  0  0
  -13.1828    3.7891   25.0903 C   0  0  0  0  0  0  0  0  0  0  0  0
  1  2  1  0
  2  3  2  0
  1  4  1  0
  4  5  1  6
  4  6  1  0
  7  6  1  1
  2  8  1  0
  7  8  1  0
 10 14  1  0
 14 15  1  0
 14 16  1  0
 15 20  1  0
 20 21  2  0
 21 22  1  0
  7 25  1  0
 25 26  2  3
 26 27  1  0
 16 17  1  0
  5  9  2  0
  9 10  1  0
 10 11  2  0
 11 13  1  0
 13 12  2  0
 12  5  1  0
 17 18  2  0
 18 19  1  0
 19 23  2  0
 23 24  1  0
 24 22  2  0
 22 17  1  0
M  END
$$$$
