No_7580-complexes_sdf/6BKW-FPZ/2024-09-17-14-21-01/
     RDKit          3D

 12 13  0  0  0  0  0  0  0  0999 V2000
   -7.7129    4.2099   27.0854 C   0  0  0  0  0  0  0  0  0  0  0  0
   -8.9133    4.4736   27.0998 C   0  0  0  0  0  0  0  0  0  0  0  0
   -9.4643    5.5426   27.7628 C   0  0  0  0  0  0  0  0  0  0  0  0
   -9.8091    3.6358   26.2841 C   0  0  0  0  0  0  0  0  0  0  0  0
   -9.4101    2.5938   25.7918 C   0  0  0  0  0  0  0  0  0  0  0  0
   -6.8108    4.9290   28.1313 C   0  0  0  0  0  0  0  0  0  0  0  0
  -10.2055    1.8170   24.8817 C   0  0  0  0  0  0  0  0  0  0  0  0
   -9.7552    0.5799   24.4278 C   0  0  0  0  0  0  0  0  0  0  0  0
   -8.5332    0.0728   24.9055 C   0  0  0  0  0  0  0  0  0  0  0  0
   -7.7975    0.7265   25.8537 C   0  0  0  0  0  0  0  0  0  0  0  0
   -8.2015    1.9266   26.3525 C   0  0  0  0  0  0  0  0  0  0  0  0
   -7.3225    2.5848   27.2543 C   0  0  0  0  0  0  0  0  0  0  0  0
  2  3  1  0
  1  6  1  0
  5  7  1  0
  7  8  2  0
  8  9  1  0
  9 10  2  0
 10 11  1  0
  1  2  2  0
  2  4  1  0
  4  5  2  0
  5 11  1  0
 11 12  2  0
 12  1  1  0
M  END
$$$$
