No_713-complexes_sdf/6BKW-FPZ/2024-09-17-14-21-01/
     RDKit          3D

 36 40  0  0  0  0  0  0  0  0999 V2000
   -7.2496    3.8871   27.4508 C   0  0  0  0  0  0  0  0  0  0  0  0
   -8.5096    4.0291   27.2770 C   0  0  0  0  0  0  0  0  0  0  0  0
   -9.3502    2.8685   26.8763 C   0  0  0  0  0  0  0  0  0  0  0  0
   -6.6288    2.5513   27.4938 C   0  0  0  0  0  0  0  0  0  0  0  0
   -7.4365    1.4714   27.2032 C   0  0  0  0  0  0  0  0  0  0  0  0
   -8.7772    1.6579   26.9338 C   0  0  0  0  0  0  0  0  0  0  0  0
   -9.1119    5.3743   27.2229 C   0  0  0  0  0  0  0  0  0  0  0  0
   -8.3195    6.4988   26.9602 C   0  0  0  0  0  0  0  0  0  0  0  0
   -8.8072    7.8267   27.0499 C   0  0  0  0  0  0  0  0  0  0  0  0
   -6.8200    0.1598   27.2509 C   0  0  0  0  0  0  0  0  0  0  0  0
   -5.6113   -0.0330   27.8292 C   0  0  0  0  0  0  0  0  0  0  0  0
   -5.0591   -1.3060   27.9451 C   0  0  0  0  0  0  0  0  0  0  0  0
   -5.7447   -2.3409   27.3508 C   0  0  0  0  0  0  0  0  0  0  0  0
   -7.3644   -1.0042   26.8190 C   0  0  0  0  0  0  0  0  0  0  0  0
   -6.8734   -2.0086   26.8323 C   0  0  0  0  0  0  0  0  0  0  0  0
  -10.4684    5.4973   27.4355 C   0  0  0  0  0  0  0  0  0  0  0  0
   -3.6807   -1.4376   28.6164 C   0  0  1  0  0  0  0  0  0  0  0  0
   -3.6924   -1.7403   29.8844 C   0  0  0  0  0  0  0  0  0  0  0  0
   -2.7704   -2.3255   27.8071 C   0  0  2  0  0  0  0  0  0  0  0  0
   -2.9232    0.0153   28.4490 C   0  0  0  0  0  0  0  0  0  0  0  0
   -3.8735   -1.4223   30.8665 C   0  0  0  0  0  0  0  0  0  0  0  0
   -3.9601   -1.9443   32.2048 C   0  0  0  0  0  0  0  0  0  0  0  0
   -4.3229   -1.2871   33.4096 C   0  0  0  0  0  0  0  0  0  0  0  0
   -5.1495   -0.1729   33.2538 C   0  0  0  0  0  0  0  0  0  0  0  0
   -5.2742    0.4230   31.9921 C   0  0  0  0  0  0  0  0  0  0  0  0
   -4.7485   -0.0756   30.9320 C   0  0  0  0  0  0  0  0  0  0  0  0
   -3.1152   -3.2493   29.9961 C   0  0  0  0  0  0  0  0  0  0  0  0
   -2.4579   -3.3769   28.6744 C   0  0  1  0  0  0  0  0  0  0  0  0
   -1.7347   -4.5618   28.3045 C   0  0  0  0  0  0  0  0  0  0  0  0
   -2.6146    0.4838   27.2225 N   0  0  0  0  0  0  0  0  0  0  0  0
   -2.8703    1.7301   26.7679 C   0  0  0  0  0  0  0  0  0  0  0  0
   -1.8759   -0.3685   26.3800 C   0  0  0  0  0  0  0  0  0  0  0  0
   -1.4470   -1.4213   27.4902 C   0  0  0  0  0  0  0  0  0  0  0  0
   -0.6898   -4.4601   27.8946 N   0  0  0  0  0  0  0  0  0  0  0  0
   -0.2586   -4.8361   26.8580 C   0  0  0  0  0  0  0  0  0  0  0  0
   -2.3697   -5.6208   28.4271 O   0  0  0  0  0  0  0  0  0  0  0  0
  2  7  1  0
  7  8  2  3
  8  9  1  0
  5 10  1  0
  7 16  1  0
 17 12  1  6
 17 18  1  0
 17 19  1  0
 17 20  1  0
 18 21  1  0
 18 27  1  0
 19 28  1  0
 27 28  1  0
 28 29  1  6
 20 30  1  0
 30 31  1  0
 30 32  1  0
 19 33  1  1
 32 33  1  0
 29 34  1  0
 34 35  1  0
 29 36  2  0
  1  2  2  0
  2  3  1  0
  3  6  2  0
  6  5  1  0
  5  4  2  0
  4  1  1  0
 10 11  2  0
 11 12  1  0
 12 13  2  0
 13 15  1  0
 15 14  2  0
 14 10  1  0
 21 22  2  0
 22 23  1  0
 23 24  2  0
 24 25  1  0
 25 26  2  0
 26 21  1  0
M  END
$$$$
