No_7524-complexes_sdf/6BKW-FPZ/2024-09-17-14-21-01/
     RDKit          3D

 14 15  0  0  0  0  0  0  0  0999 V2000
   -7.9040    3.9820   27.1177 C   0  0  0  0  0  0  0  0  0  0  0  0
   -9.0711    4.3164   27.0630 C   0  0  0  0  0  0  0  0  0  0  0  0
   -9.8698    3.9665   25.9495 C   0  0  0  0  0  0  0  0  0  0  0  0
   -7.4046    2.7946   26.4568 C   0  0  0  0  0  0  0  0  0  0  0  0
   -8.3659    2.1310   25.6816 C   0  0  0  0  0  0  0  0  0  0  0  0
   -9.5390    2.7825   25.4030 C   0  0  0  0  0  0  0  0  0  0  0  0
   -6.7759    4.6875   28.2951 Cl  0  0  0  0  0  0  0  0  0  0  0  0
  -10.4535    2.1810   24.3729 C   0  0  0  0  0  0  0  0  0  0  0  0
  -11.0628    2.7218   23.4985 C   0  0  0  0  0  0  0  0  0  0  0  0
  -11.9229    2.1371   22.4891 C   0  0  0  0  0  0  0  0  0  0  0  0
  -11.9331    0.7326   22.4781 C   0  0  0  0  0  0  0  0  0  0  0  0
  -10.5115    0.7185   24.1721 C   0  0  0  0  0  0  0  0  0  0  0  0
  -11.0772    0.1685   23.3600 C   0  0  0  0  0  0  0  0  0  0  0  0
   -9.4719    5.7283   27.6775 C   0  0  0  0  0  0  0  0  0  0  0  0
  1  7  1  0
  6  8  1  0
  2 14  1  0
  1  2  2  0
  2  3  1  0
  3  6  2  0
  6  5  1  0
  5  4  2  0
  4  1  1  0
  8  9  2  0
  9 10  1  0
 10 11  2  0
 11 13  1  0
 13 12  2  0
 12  8  1  0
M  END
$$$$
