No_7985-complexes_sdf/6BKW-FPZ/2024-09-17-14-21-01/
     RDKit          3D

 10  9  0  0  0  0  0  0  0  0999 V2000
   -7.2496    3.8871   27.4508 C   0  0  0  0  0  0  0  0  0  0  0  0
   -7.9379    4.9063   27.8518 C   0  0  0  0  0  0  0  0  0  0  0  0
   -7.5112    6.1898   27.6280 C   0  0  0  0  0  0  0  0  0  0  0  0
   -7.8078    2.6331   27.2522 C   0  0  2  0  0  0  0  0  0  0  0  0
   -7.1538    1.5087   26.7509 C   0  0  0  0  0  0  0  0  0  0  0  0
   -9.2627    2.5305   27.2363 C   0  0  0  0  0  0  0  0  0  0  0  0
   -9.9238    2.9138   26.5039 C   0  0  0  0  0  0  0  0  0  0  0  0
  -10.3490    2.9923   25.5824 C   0  0  0  0  0  0  0  0  0  0  0  0
  -10.7213    3.2799   24.4345 C   0  0  0  0  0  0  0  0  0  0  0  0
  -10.5225    3.6645   26.9272 F   0  0  0  0  0  0  0  0  0  0  0  0
  1  2  1  0
  2  3  2  0
  1  4  1  0
  4  5  1  6
  4  6  1  0
  6  7  2  3
  7  8  1  0
  8  9  3  0
  7 10  1  0
M  END
$$$$
