No_7992-complexes_sdf/6BKW-FPZ/2024-09-17-14-21-01/
     RDKit          3D

 25 27  0  0  0  0  0  0  0  0999 V2000
   -7.7129    4.2099   27.0854 C   0  0  0  0  0  0  0  0  0  0  0  0
   -7.7814    5.1722   27.8972 C   0  0  0  0  0  0  0  0  0  0  0  0
   -8.8776    3.8408   26.3416 C   0  0  0  0  0  0  0  0  0  0  0  0
   -9.9844    4.6492   26.4743 C   0  0  0  0  0  0  0  0  0  0  0  0
   -8.8033    6.1375   27.8728 C   0  0  0  0  0  0  0  0  0  0  0  0
   -9.9554    5.8280   27.1736 C   0  0  0  0  0  0  0  0  0  0  0  0
   -8.6804    2.5787   25.5887 C   0  0  0  0  0  0  0  0  0  0  0  0
   -9.5533    1.6141   26.0596 C   0  0  0  0  0  0  0  0  0  0  0  0
   -9.2162    0.3799   25.7102 C   0  0  0  0  0  0  0  0  0  0  0  0
   -9.9315   -0.7093   26.2735 C   0  0  0  0  0  0  0  0  0  0  0  0
  -10.8148   -0.3627   27.1089 C   0  0  0  0  0  0  0  0  0  0  0  0
  -11.1739    0.8623   27.6231 C   0  0  0  0  0  0  0  0  0  0  0  0
  -10.4431    1.9125   27.1449 C   0  0  0  0  0  0  0  0  0  0  0  0
   -8.2106    0.0527   24.6982 C   0  0  2  0  0  0  0  0  0  0  0  0
   -8.6372   -0.0774   23.3378 C   0  0  0  0  0  0  0  0  0  0  0  0
   -9.4223    0.8541   22.7994 C   0  0  0  0  0  0  0  0  0  0  0  0
   -9.8339    0.7599   21.4426 C   0  0  0  0  0  0  0  0  0  0  0  0
   -9.4724   -0.4164   20.7569 C   0  0  0  0  0  0  0  0  0  0  0  0
   -8.2730   -1.1606   22.5384 C   0  0  0  0  0  0  0  0  0  0  0  0
   -8.6688   -1.3033   21.2954 C   0  0  0  0  0  0  0  0  0  0  0  0
   -6.8627   -0.2417   25.1309 C   0  0  0  0  0  0  0  0  0  0  0  0
  -12.1731    1.1158   28.7208 C   0  0  0  0  0  0  0  0  0  0  0  0
  -12.4393    2.6120   28.9043 C   0  0  0  0  0  0  0  0  0  0  0  0
  -13.6055    3.0227   28.7874 C   0  0  0  0  0  0  0  0  0  0  0  0
  -13.8288    4.4942   28.9413 C   0  0  0  0  0  0  0  0  0  0  0  0
  3  7  1  0
  7  8  1  0
  9 14  1  0
 14 15  1  0
 14 21  1  1
 12 22  1  0
 22 23  1  0
 23 24  2  3
 24 25  1  0
 15 16  2  0
 16 17  1  0
 17 18  2  0
 18 20  1  0
 20 19  2  0
 19 15  1  0
  8  9  1  0
  9 10  2  0
 10 11  1  0
 11 12  2  0
 12 13  1  0
 13  8  2  0
  1  2  2  0
  2  5  1  0
  5  6  2  0
  6  4  1  0
  4  3  2  0
  3  1  1  0
M  END
$$$$
