No_7563-complexes_sdf/6BKW-FPZ/2024-09-17-14-21-01/
     RDKit          3D

 33 36  0  0  0  0  0  0  0  0999 V2000
   -7.9040    3.9820   27.1177 C   0  0  0  0  0  0  0  0  0  0  0  0
   -8.2057    2.8231   26.8733 C   0  0  0  0  0  0  0  0  0  0  0  0
   -7.4766    1.7477   27.4593 C   0  0  0  0  0  0  0  0  0  0  0  0
   -8.7468    5.1251   26.6967 C   0  0  0  0  0  0  0  0  0  0  0  0
   -9.7234    4.8589   25.8202 C   0  0  0  0  0  0  0  0  0  0  0  0
   -9.9711    3.5858   25.4266 C   0  0  0  0  0  0  0  0  0  0  0  0
   -9.2266    2.4957   25.9600 C   0  0  0  0  0  0  0  0  0  0  0  0
   -6.8189    1.1625   26.8898 F   0  0  0  0  0  0  0  0  0  0  0  0
   -8.3909    6.5191   27.0610 C   0  0  0  0  0  0  0  0  0  0  0  0
   -7.9527    7.6060   26.9581 N   0  0  0  0  0  0  0  0  0  0  0  0
   -6.6349    2.3503   28.5258 F   0  0  0  0  0  0  0  0  0  0  0  0
   -8.4310    1.0065   28.1663 F   0  0  0  0  0  0  0  0  0  0  0  0
  -10.9842    3.2812   24.4076 C   0  0  1  0  0  0  0  0  0  0  0  0
  -10.8640    3.7930   23.2112 C   0  0  0  0  0  0  0  0  0  0  0  0
  -10.2539    4.8051   22.8531 C   0  0  0  0  0  0  0  0  0  0  0  0
  -11.6201    3.0634   22.1232 C   0  0  0  0  0  0  0  0  0  0  0  0
  -10.3572    5.4154   21.5226 C   0  0  0  0  0  0  0  0  0  0  0  0
  -11.7224    3.5273   20.8589 C   0  0  0  0  0  0  0  0  0  0  0  0
  -11.0097    4.7213   20.5551 C   0  0  0  0  0  0  0  0  0  0  0  0
  -11.3023    1.7526   24.4222 C   0  0  0  0  0  0  0  0  0  0  0  0
  -12.3285    3.9303   25.0070 C   0  0  0  0  0  0  0  0  0  0  0  0
  -11.9193    1.1774   25.2504 C   0  0  0  0  0  0  0  0  0  0  0  0
  -12.0572   -0.2247   25.2582 C   0  0  0  0  0  0  0  0  0  0  0  0
  -11.4167   -0.8786   24.2415 C   0  0  0  0  0  0  0  0  0  0  0  0
  -10.6745   -0.2609   23.3039 C   0  0  0  0  0  0  0  0  0  0  0  0
  -10.5501    1.0726   23.4239 C   0  0  0  0  0  0  0  0  0  0  0  0
   -9.9829   -1.0570   22.2861 C   0  0  0  0  0  0  0  0  0  0  0  0
   -8.6572   -0.8951   22.1967 C   0  0  0  0  0  0  0  0  0  0  0  0
  -10.6880   -1.7473   21.3060 C   0  0  0  0  0  0  0  0  0  0  0  0
  -10.1519   -2.2694   20.2682 C   0  0  0  0  0  0  0  0  0  0  0  0
   -7.8022   -0.1831   23.1885 C   0  0  0  0  0  0  0  0  0  0  0  0
   -8.6841   -2.1924   20.1599 C   0  0  0  0  0  0  0  0  0  0  0  0
   -7.9321   -1.5632   21.1338 C   0  0  0  0  0  0  0  0  0  0  0  0
  2  3  1  0
  3  8  1  0
  4  9  1  0
  9 10  3  0
  3 11  1  0
  3 12  1  0
  6 13  1  0
 13 14  1  0
 13 20  1  0
 13 21  1  1
 25 27  1  0
 28 31  1  0
 27 28  2  0
 28 33  1  0
 33 32  2  0
 32 30  1  0
 30 29  2  0
 29 27  1  0
  1  2  2  0
  2  7  1  0
  7  6  2  0
  6  5  1  0
  5  4  2  0
  4  1  1  0
 14 15  2  0
 15 17  1  0
 17 19  2  0
 19 18  1  0
 18 16  2  0
 16 14  1  0
 20 22  2  0
 22 23  1  0
 23 24  2  0
 24 25  1  0
 25 26  2  0
 26 20  1  0
M  END
$$$$
