No_7340-complexes_sdf/6BKW-FPZ/2024-09-17-14-21-01/
     RDKit          3D

 13 14  0  0  0  0  0  0  0  0999 V2000
   -7.7129    4.2099   27.0854 C   0  0  0  0  0  0  0  0  0  0  0  0
   -8.9133    4.4736   27.0998 C   0  0  0  0  0  0  0  0  0  0  0  0
   -9.7937    3.7367   26.2091 C   0  0  0  0  0  0  0  0  0  0  0  0
   -7.2496    2.8647   26.8496 C   0  0  0  0  0  0  0  0  0  0  0  0
   -8.1891    1.9790   26.3454 C   0  0  0  0  0  0  0  0  0  0  0  0
   -9.4252    2.4603   26.0121 C   0  0  0  0  0  0  0  0  0  0  0  0
   -9.3705    6.1884   27.2897 Cl  0  0  0  0  0  0  0  0  0  0  0  0
   -7.7558    0.6038   26.1320 C   0  0  0  0  0  0  0  0  0  0  0  0
   -8.1203   -0.0278   24.9846 C   0  0  0  0  0  0  0  0  0  0  0  0
   -6.9643   -0.0438   27.1438 C   0  0  0  0  0  0  0  0  0  0  0  0
   -6.8830   -1.3188   27.3429 C   0  0  0  0  0  0  0  0  0  0  0  0
   -7.9118   -1.4811   25.0148 C   0  0  0  0  0  0  0  0  0  0  0  0
   -7.2408   -2.0618   26.0846 C   0  0  0  0  0  0  0  0  0  0  0  0
  2  7  1  0
  5  8  1  0
  1  2  2  0
  2  3  1  0
  3  6  2  0
  6  5  1  0
  5  4  2  0
  4  1  1  0
  8  9  2  0
  9 12  1  0
 12 13  2  0
 13 11  1  0
 11 10  2  0
 10  8  1  0
M  END
$$$$
