No_70-complexes_sdf/6BKW-FPZ/2024-09-17-14-21-01/
     RDKit          3D

 15 16  0  0  0  0  0  0  0  0999 V2000
   -7.9040    3.9820   27.1177 C   0  0  0  0  0  0  0  0  0  0  0  0
   -9.0711    4.3164   27.0630 C   0  0  0  0  0  0  0  0  0  0  0  0
   -9.9692    3.7224   26.1073 C   0  0  0  0  0  0  0  0  0  0  0  0
   -7.4776    2.6994   26.6283 C   0  0  0  0  0  0  0  0  0  0  0  0
   -8.4406    1.9440   25.9776 C   0  0  0  0  0  0  0  0  0  0  0  0
   -9.6379    2.5001   25.6881 C   0  0  0  0  0  0  0  0  0  0  0  0
   -6.7822    4.7986   28.1887 Cl  0  0  0  0  0  0  0  0  0  0  0  0
  -10.6003    1.7344   24.8207 C   0  0  0  0  0  0  0  0  0  0  0  0
  -11.3056    2.1672   24.0222 C   0  0  0  0  0  0  0  0  0  0  0  0
  -12.2309    1.4514   23.1454 C   0  0  0  0  0  0  0  0  0  0  0  0
  -12.1845    0.0755   23.2791 C   0  0  0  0  0  0  0  0  0  0  0  0
  -10.5357    0.2607   24.8485 C   0  0  0  0  0  0  0  0  0  0  0  0
   -9.5429   -0.3061   25.8633 C   0  0  0  0  0  0  0  0  0  0  0  0
  -11.3359   -0.4851   24.1243 C   0  0  0  0  0  0  0  0  0  0  0  0
   -9.4747   -1.6623   26.1997 C   0  0  0  0  0  0  0  0  0  0  0  0
  1  7  1  0
  6  8  1  0
 12 13  1  0
 13 15  1  0
  8  9  2  0
  9 10  1  0
 10 11  2  0
 11 14  1  0
 14 12  2  0
 12  8  1  0
  1  2  2  0
  2  3  1  0
  3  6  2  0
  6  5  1  0
  5  4  2  0
  4  1  1  0
M  END
$$$$
