No_7569-complexes_sdf/6BKW-FPZ/2024-09-17-14-21-01/
     RDKit          3D

 23 25  0  0  0  0  0  0  0  0999 V2000
   -7.7129    4.2099   27.0854 C   0  0  0  0  0  0  0  0  0  0  0  0
   -7.7814    5.1722   27.8972 C   0  0  0  0  0  0  0  0  0  0  0  0
   -7.2983    2.9533   27.5684 C   0  0  0  0  0  0  0  0  0  0  0  0
   -7.6908    1.8111   26.9553 C   0  0  1  0  0  0  0  0  0  0  0  0
   -8.6533    1.9165   25.9430 C   0  0  0  0  0  0  0  0  0  0  0  0
   -9.2376    3.0581   25.6387 C   0  0  0  0  0  0  0  0  0  0  0  0
   -8.8901    4.1760   26.2867 C   0  0  0  0  0  0  0  0  0  0  0  0
   -8.3894    6.3916   27.5666 N   0  0  0  0  0  0  0  0  0  0  0  0
   -6.9608    0.3141   27.3541 Cl  0  0  0  0  0  0  0  0  0  0  0  0
   -9.5742    5.3656   25.9147 C   0  0  0  0  0  0  0  0  0  0  0  0
   -9.2660    6.5439   26.6186 C   0  0  0  0  0  0  0  0  0  0  0  0
   -6.7115    5.4575   28.8387 N   0  0  0  0  0  0  0  0  0  0  0  0
  -10.1907    3.0212   24.5235 C   0  0  0  0  0  0  0  0  0  0  0  0
  -10.3805    2.0021   23.2945 Cl  0  0  0  0  0  0  0  0  0  0  0  0
  -11.1728    4.1956   24.4573 C   0  0  0  0  0  0  0  0  0  0  0  0
  -10.5768    5.2971   25.0625 N   0  0  0  0  0  0  0  0  0  0  0  0
   -8.9502    0.7391   25.3016 O   0  0  0  0  0  0  0  0  0  0  0  0
   -8.2659   -0.0522   24.6264 C   0  0  0  0  0  0  0  0  0  0  0  0
   -8.8026   -0.5278   23.4908 C   0  0  0  0  0  0  0  0  0  0  0  0
   -9.9576   -0.5880   23.2071 C   0  0  0  0  0  0  0  0  0  0  0  0
  -10.9957   -0.0150   23.6580 C   0  0  0  0  0  0  0  0  0  0  0  0
  -11.2086    1.3135   23.2045 F   0  0  0  0  0  0  0  0  0  0  0  0
  -12.2506   -0.5938   23.4040 F   0  0  0  0  0  0  0  0  0  0  0  0
  1  3  1  0
  3  4  1  0
  4  5  1  0
  5  6  1  0
  4  9  1  6
  2 12  1  0
 13 14  1  0
  5 17  1  0
 17 18  1  0
 18 19  1  0
 19 20  1  0
 20 21  2  3
 21 22  1  0
 21 23  1  0
  6  7  2  0
 10 16  2  0
 16 15  1  0
 15 13  2  0
 13  6  1  0
  1  2  2  0
  2  8  1  0
  8 11  2  0
 11 10  1  0
 10  7  1  0
  7  1  1  0
M  END
$$$$
