No_7031-complexes_sdf/6BKW-FPZ/2024-09-17-14-21-01/
     RDKit          3D

 23 25  0  0  0  0  0  0  0  0999 V2000
   -7.9040    3.9820   27.1177 C   0  0  0  0  0  0  0  0  0  0  0  0
   -9.0711    4.3164   27.0630 C   0  0  0  0  0  0  0  0  0  0  0  0
   -9.5182    5.5541   27.5777 C   0  0  0  0  0  0  0  0  0  0  0  0
   -7.4468    2.6843   26.6499 C   0  0  0  0  0  0  0  0  0  0  0  0
   -8.3856    1.7878   26.2216 C   0  0  0  0  0  0  0  0  0  0  0  0
   -9.6812    2.2328   26.0889 C   0  0  0  0  0  0  0  0  0  0  0  0
  -10.0147    3.4312   26.5259 C   0  0  0  0  0  0  0  0  0  0  0  0
   -7.7187    0.5126   25.8011 C   0  0  1  0  0  0  0  0  0  0  0  0
   -8.0044    0.0375   24.7751 N   0  0  0  0  0  0  0  0  0  0  0  0
   -8.5833   -0.9653   24.4360 C   0  0  0  0  0  0  0  0  0  0  0  0
   -8.7893   -1.3597   23.0573 C   0  0  0  0  0  0  0  0  0  0  0  0
   -8.4173   -0.4151   22.0930 C   0  0  0  0  0  0  0  0  0  0  0  0
   -7.9494    0.8432   22.3871 C   0  0  0  0  0  0  0  0  0  0  0  0
   -7.7366    1.1010   23.7258 C   0  0  0  0  0  0  0  0  0  0  0  0
   -8.8893    6.6029   27.1826 F   0  0  0  0  0  0  0  0  0  0  0  0
  -10.8331    5.7936   27.7220 F   0  0  0  0  0  0  0  0  0  0  0  0
   -6.2483    0.6011   26.1883 C   0  0  0  0  0  0  0  0  0  0  0  0
   -8.4050   -0.4402   27.0067 C   0  0  0  0  0  0  0  0  0  0  0  0
   -9.4778   -0.4357   27.4462 C   0  0  0  0  0  0  0  0  0  0  0  0
   -9.9658   -1.3019   28.4657 C   0  0  0  0  0  0  0  0  0  0  0  0
   -9.0843   -2.1950   29.0557 C   0  0  0  0  0  0  0  0  0  0  0  0
   -7.3774   -1.4203   27.6016 C   0  0  0  0  0  0  0  0  0  0  0  0
   -7.7774   -2.2394   28.5978 C   0  0  0  0  0  0  0  0  0  0  0  0
  2  3  1  0
  5  8  1  0
  8  9  1  0
  9 10  1  0
 11 12  1  0
  9 14  1  0
 13 14  1  0
  3 15  1  0
  3 16  1  0
  8 17  1  1
  8 18  1  0
 10 11  1  0
 12 13  1  0
 18 19  2  0
 19 20  1  0
 20 21  2  0
 21 23  1  0
 23 22  2  0
 22 18  1  0
  1  2  2  0
  2  7  1  0
  7  6  2  0
  6  5  1  0
  5  4  2  0
  4  1  1  0
M  END
$$$$
