No_7060-complexes_sdf/6BKW-FPZ/2024-09-17-14-21-01/
     RDKit          3D

 25 27  0  0  0  0  0  0  0  0999 V2000
   -7.2496    3.8871   27.4508 C   0  0  0  0  0  0  0  0  0  0  0  0
   -7.6161    2.7143   27.1523 C   0  0  0  0  0  0  0  0  0  0  0  0
   -8.8302    2.4659   26.5056 C   0  0  0  0  0  0  0  0  0  0  0  0
   -8.1584    5.0090   27.3234 C   0  0  0  0  0  0  0  0  0  0  0  0
   -9.2382    4.8823   26.8337 C   0  0  0  0  0  0  0  0  0  0  0  0
   -9.6533    3.6268   26.3156 C   0  0  0  0  0  0  0  0  0  0  0  0
   -6.7431    1.5346   27.3516 C   0  0  0  0  0  0  0  0  0  0  0  0
   -7.1004    0.1998   27.2485 C   0  0  0  0  0  0  0  0  0  0  0  0
   -6.2676   -0.7829   27.5431 C   0  0  0  0  0  0  0  0  0  0  0  0
   -4.9873   -0.4793   28.0763 C   0  0  0  0  0  0  0  0  0  0  0  0
   -4.5876    0.8309   28.2514 C   0  0  0  0  0  0  0  0  0  0  0  0
   -5.4191    1.8194   27.9541 C   0  0  0  0  0  0  0  0  0  0  0  0
   -7.6241    6.2104   27.7927 F   0  0  0  0  0  0  0  0  0  0  0  0
  -10.9735    3.4756   25.6382 C   0  0  2  0  0  0  0  0  0  0  0  0
  -10.9653    3.7737   24.3060 C   0  0  0  0  0  0  0  0  0  0  0  0
  -10.0300    4.3387   23.6200 C   0  0  0  0  0  0  0  0  0  0  0  0
  -12.0284    3.1428   23.4882 C   0  0  0  0  0  0  0  0  0  0  0  0
  -10.1562    4.6818   22.2432 C   0  0  0  0  0  0  0  0  0  0  0  0
  -12.2510    3.4673   22.1660 C   0  0  0  0  0  0  0  0  0  0  0  0
  -11.2165    4.2425   21.5237 C   0  0  0  0  0  0  0  0  0  0  0  0
  -12.0764    3.2571   26.4703 C   0  0  0  0  0  0  0  0  0  0  0  0
  -12.2801    3.1896   27.5533 C   0  0  0  0  0  0  0  0  0  0  0  0
  -11.1410    3.4160   28.5662 C   0  0  0  0  0  0  0  0  0  0  0  0
  -11.5965    3.2974   30.0373 C   0  0  0  0  0  0  0  0  0  0  0  0
  -12.9741    3.1661   30.2396 C   0  0  0  0  0  0  0  0  0  0  0  0
  2  7  1  0
  4 13  1  0
 14  6  1  1
 14 15  1  0
 14 21  1  0
 21 22  2  3
 22 23  1  0
 23 24  2  3
 24 25  1  0
  1  2  2  0
  2  3  1  0
  3  6  2  0
  6  5  1  0
  5  4  2  0
  4  1  1  0
 15 16  2  0
 16 18  1  0
 18 20  2  0
 20 19  1  0
 19 17  2  0
 17 15  1  0
  7  8  2  0
  8  9  1  0
  9 10  2  0
 10 11  1  0
 11 12  2  0
 12  7  1  0
M  END
$$$$
