No_7898-complexes_sdf/6BKW-FPZ/2024-09-17-14-21-01/
     RDKit          3D

 13 13  0  0  0  0  0  0  0  0999 V2000
   -7.7129    4.2099   27.0854 C   0  0  0  0  0  0  0  0  0  0  0  0
   -8.9133    4.4736   27.0998 C   0  0  0  0  0  0  0  0  0  0  0  0
   -9.7937    3.7368   26.2091 C   0  0  0  0  0  0  0  0  0  0  0  0
   -7.2496    2.8647   26.8496 C   0  0  0  0  0  0  0  0  0  0  0  0
   -8.1891    1.9790   26.3454 C   0  0  0  0  0  0  0  0  0  0  0  0
   -9.4252    2.4603   26.0121 C   0  0  0  0  0  0  0  0  0  0  0  0
   -9.4908    5.8311   27.3431 C   0  0  0  0  0  0  0  0  0  0  0  0
   -7.7377    0.6029   26.1001 C   0  0  0  0  0  0  0  0  0  0  0  0
   -7.0562   -0.0788   26.7872 O   0  0  0  0  0  0  0  0  0  0  0  0
   -8.0365    0.1193   24.9390 O   0  0  0  0  0  0  0  0  0  0  0  0
   -8.7416    6.9194   27.4454 N   0  0  0  0  0  0  0  0  0  0  0  0
   -7.8888    7.2610   26.4056 C   0  0  0  0  0  0  0  0  0  0  0  0
  -10.6545    5.8216   27.8641 O   0  0  0  0  0  0  0  0  0  0  0  0
  2  7  1  0
  5  8  1  0
  8  9  2  0
  8 10  1  0
  7 11  1  0
 11 12  1  0
  7 13  2  0
  1  2  2  0
  2  3  1  0
  3  6  2  0
  6  5  1  0
  5  4  2  0
  4  1  1  0
M  END
$$$$
