No_7996-complexes_sdf/6BKW-FPZ/2024-09-17-14-21-01/
     RDKit          3D

 26 28  0  0  0  0  0  0  0  0999 V2000
   -7.7129    4.2099   27.0854 C   0  0  0  0  0  0  0  0  0  0  0  0
   -8.2112    3.0637   26.9225 C   0  0  0  0  0  0  0  0  0  0  0  0
   -8.5108    5.3904   26.9436 C   0  0  0  0  0  0  0  0  0  0  0  0
   -7.9752    6.6981   27.2112 C   0  0  0  0  0  0  0  0  0  0  0  0
   -9.5213    2.8208   26.4688 C   0  0  0  0  0  0  0  0  0  0  0  0
  -10.2979    3.9327   26.2378 C   0  0  0  0  0  0  0  0  0  0  0  0
   -9.7894    5.2123   26.4395 C   0  0  0  0  0  0  0  0  0  0  0  0
   -7.3451    1.8185   27.1796 C   0  0  0  0  0  0  0  0  0  0  0  0
   -6.1581    1.9961   27.7424 N   0  0  0  0  0  0  0  0  0  0  0  0
   -5.3925    0.8450   28.0074 C   0  0  0  0  0  0  0  0  0  0  0  0
   -5.9377   -0.3446   27.8047 C   0  0  0  0  0  0  0  0  0  0  0  0
   -7.6771    0.4641   27.0948 C   0  0  0  0  0  0  0  0  0  0  0  0
   -7.1035   -0.5471   27.3995 C   0  0  0  0  0  0  0  0  0  0  0  0
   -4.0915    1.1620   28.5188 N   0  0  0  0  0  0  0  0  0  0  0  0
   -8.6271    7.8100   26.8170 N   0  0  0  0  0  0  0  0  0  0  0  0
   -6.8393    6.7937   27.7792 O   0  0  0  0  0  0  0  0  0  0  0  0
  -11.6218    3.7821   25.6382 C   0  0  0  0  0  0  0  0  0  0  0  0
  -12.0306    4.4437   24.7252 C   0  0  0  0  0  0  0  0  0  0  0  0
  -13.3272    4.2882   24.0264 C   0  0  0  0  0  0  0  0  0  0  0  0
  -14.1570    3.3537   24.5795 C   0  0  0  0  0  0  0  0  0  0  0  0
  -13.7323    2.6208   25.6364 C   0  0  0  0  0  0  0  0  0  0  0  0
  -12.5013    2.8026   26.2174 C   0  0  0  0  0  0  0  0  0  0  0  0
  -14.6754    1.6043   26.1969 C   0  0  0  0  0  0  0  0  0  0  0  0
  -14.6162    1.1590   27.4149 C   0  0  0  0  0  0  0  0  0  0  0  0
  -13.7233    1.8336   28.3321 C   0  0  0  0  0  0  0  0  0  0  0  0
  -13.5666    1.4416   29.7501 C   0  0  0  0  0  0  0  0  0  0  0  0
  3  4  1  0
  2  8  1  0
 10 14  1  0
  4 15  1  0
  4 16  2  0
  6 17  1  0
 21 23  1  0
 23 24  2  3
 24 25  1  0
 25 26  2  0
 17 18  2  0
 18 19  1  0
 19 20  2  0
 20 21  1  0
 21 22  2  0
 22 17  1  0
  1  2  2  0
  2  5  1  0
  5  6  2  0
  6  7  1  0
  7  3  2  0
  3  1  1  0
  8  9  2  0
  9 10  1  0
 10 11  2  0
 11 13  1  0
 13 12  2  0
 12  8  1  0
M  END
$$$$
