No_7745-complexes_sdf/6BKW-FPZ/2024-09-17-14-21-01/
     RDKit          3D

 34 39  0  0  0  0  0  0  0  0999 V2000
   -7.9040    3.9820   27.1177 C   0  0  0  0  0  0  0  0  0  0  0  0
   -8.2057    2.8231   26.8733 C   0  0  0  0  0  0  0  0  0  0  0  0
   -9.2962    2.4021   26.1155 C   0  0  0  0  0  0  0  0  0  0  0  0
   -6.8682    4.5169   28.0704 C   0  0  0  0  0  0  0  0  0  0  0  0
  -10.0578    3.3688   25.5520 C   0  0  0  0  0  0  0  0  0  0  0  0
   -9.6997    4.7480   25.6981 C   0  0  0  0  0  0  0  0  0  0  0  0
   -8.6783    5.1111   26.5262 C   0  0  0  0  0  0  0  0  0  0  0  0
  -11.1704    3.0677   24.6150 C   0  0  0  0  0  0  0  0  0  0  0  0
  -12.3590    2.8658   25.1091 C   0  0  0  0  0  0  0  0  0  0  0  0
  -13.4646    2.7021   24.3165 C   0  0  0  0  0  0  0  0  0  0  0  0
  -10.9358    3.0452   23.2546 C   0  0  0  0  0  0  0  0  0  0  0  0
  -11.9683    2.8987   22.3419 C   0  0  0  0  0  0  0  0  0  0  0  0
  -13.2535    2.7129   22.9056 C   0  0  0  0  0  0  0  0  0  0  0  0
   -7.0468    5.7455   28.6708 C   0  0  0  0  0  0  0  0  0  0  0  0
   -7.8563    6.7088   27.9202 C   0  0  0  0  0  0  0  0  0  0  0  0
   -8.7878    6.3577   26.9869 C   0  0  0  0  0  0  0  0  0  0  0  0
   -7.3563    1.6443   27.4596 C   0  0  0  0  0  0  0  0  0  0  0  0
   -7.7143    0.3070   27.2317 C   0  0  0  0  0  0  0  0  0  0  0  0
   -6.8613   -0.6640   27.6817 C   0  0  0  0  0  0  0  0  0  0  0  0
   -5.6408   -0.3365   28.2952 C   0  0  0  0  0  0  0  0  0  0  0  0
   -5.2340    1.0243   28.3616 C   0  0  0  0  0  0  0  0  0  0  0  0
   -5.9962    1.9653   27.9267 C   0  0  0  0  0  0  0  0  0  0  0  0
   -4.7491   -1.4052   28.8264 C   0  0  0  0  0  0  0  0  0  0  0  0
   -4.9575   -2.1669   29.5504 C   0  0  0  0  0  0  0  0  0  0  0  0
   -3.9845   -3.1315   30.1439 C   0  0  0  0  0  0  0  0  0  0  0  0
   -3.3373   -1.2837   28.3192 C   0  0  0  0  0  0  0  0  0  0  0  0
   -2.3500   -2.1526   28.7557 C   0  0  0  0  0  0  0  0  0  0  0  0
   -2.6852   -3.0781   29.6943 C   0  0  0  0  0  0  0  0  0  0  0  0
   -6.2395   -2.1151   30.3508 C   0  0  0  0  0  0  0  0  0  0  0  0
   -6.2076   -1.9188   31.7964 C   0  0  0  0  0  0  0  0  0  0  0  0
   -7.3917   -2.0967   32.5764 C   0  0  0  0  0  0  0  0  0  0  0  0
   -8.5617   -2.5721   31.9029 C   0  0  0  0  0  0  0  0  0  0  0  0
   -8.5563   -2.8235   30.5270 C   0  0  0  0  0  0  0  0  0  0  0  0
   -7.4027   -2.7017   29.8235 C   0  0  0  0  0  0  0  0  0  0  0  0
  5  8  1  0
  2 17  1  0
 20 23  1  0
 24 29  1  0
 29 30  2  0
 30 31  1  0
 31 32  2  0
 32 33  1  0
 33 34  2  0
 34 29  1  0
  1  2  1  0
  2  3  2  0
  3  5  1  0
  5  6  2  0
  6  7  1  0
 23 24  1  0
 24 25  2  0
 25 28  1  0
 28 27  2  0
 27 26  1  0
 26 23  2  0
  8  9  2  0
  9 10  1  0
 10 13  2  0
 13 12  1  0
 12 11  2  0
 11  8  1  0
 17 18  2  0
 18 19  1  0
 19 20  2  0
 20 21  1  0
 21 22  2  0
 22 17  1  0
  1  4  2  0
  4 14  1  0
 14 15  2  0
 15 16  1  0
 16  7  2  0
  7  1  1  0
M  END
$$$$
