No_7220-complexes_sdf/6BKW-FPZ/2024-09-17-14-21-01/
     RDKit          3D

 20 22  0  0  0  0  0  0  0  0999 V2000
   -7.7129    4.2099   27.0854 C   0  0  0  0  0  0  0  0  0  0  0  0
   -8.9133    4.4736   27.0998 C   0  0  0  0  0  0  0  0  0  0  0  0
   -9.4643    5.5426   27.7628 C   0  0  0  0  0  0  0  0  0  0  0  0
   -6.8373    4.9942   27.9785 C   0  0  0  0  0  0  0  0  0  0  0  0
   -7.3932    6.0303   28.6784 C   0  0  0  0  0  0  0  0  0  0  0  0
   -8.7122    6.3429   28.5485 C   0  0  0  0  0  0  0  0  0  0  0  0
   -9.6392    3.5101   26.1298 C   0  0  0  0  0  0  0  0  0  0  0  0
   -9.5730    2.2374   26.2115 C   0  0  0  0  0  0  0  0  0  0  0  0
   -9.8500    1.3669   25.2609 C   0  0  0  0  0  0  0  0  0  0  0  0
   -9.5901   -0.0374   25.3179 C   0  0  0  0  0  0  0  0  0  0  0  0
   -9.0138   -0.5123   26.5325 C   0  0  0  0  0  0  0  0  0  0  0  0
   -8.6728    0.3263   27.5394 C   0  0  0  0  0  0  0  0  0  0  0  0
   -8.8692    1.6772   27.4525 C   0  0  0  0  0  0  0  0  0  0  0  0
   -9.7202    4.1555   24.7121 C   0  0  0  0  0  0  0  0  0  0  0  0
  -11.2540    3.6927   26.6272 C   0  0  0  0  0  0  0  0  0  0  0  0
  -12.2079    3.6598   25.7080 C   0  0  0  0  0  0  0  0  0  0  0  0
  -13.4855    3.6423   26.2453 C   0  0  0  0  0  0  0  0  0  0  0  0
  -13.7206    3.6031   27.3411 C   0  0  0  0  0  0  0  0  0  0  0  0
  -12.7930    3.6383   28.4399 C   0  0  0  0  0  0  0  0  0  0  0  0
  -11.4837    3.6250   28.0239 C   0  0  0  0  0  0  0  0  0  0  0  0
  2  7  1  0
  7  8  1  0
  7 14  1  0
  7 15  1  0
 15 16  2  0
 16 17  1  0
 17 18  2  0
 18 19  1  0
 19 20  2  0
 20 15  1  0
  1  2  2  0
  2  3  1  0
  3  6  2  0
  6  5  1  0
  5  4  2  0
  4  1  1  0
  8  9  2  0
  9 10  1  0
 10 11  2  0
 11 12  1  0
 12 13  2  0
 13  8  1  0
M  END
$$$$
