No_7853-complexes_sdf/6BKW-FPZ/2024-09-17-14-21-01/
     RDKit          3D

 25 27  0  0  0  0  0  0  0  0999 V2000
   -7.9040    3.9820   27.1177 C   0  0  0  0  0  0  0  0  0  0  0  0
   -8.2057    2.8231   26.8733 C   0  0  0  0  0  0  0  0  0  0  0  0
   -8.7695    5.0740   26.7916 C   0  0  0  0  0  0  0  0  0  0  0  0
   -8.4337    6.4678   27.0913 C   0  0  0  0  0  0  0  0  0  0  0  0
   -9.3742    2.4311   26.2346 C   0  0  0  0  0  0  0  0  0  0  0  0
  -10.2395    3.4267   25.8887 C   0  0  0  0  0  0  0  0  0  0  0  0
   -9.9567    4.7548   26.1374 C   0  0  0  0  0  0  0  0  0  0  0  0
   -7.3352    6.7089   26.8662 F   0  0  0  0  0  0  0  0  0  0  0  0
   -8.8744    6.7143   28.4556 F   0  0  0  0  0  0  0  0  0  0  0  0
   -9.2025    7.3079   26.3054 F   0  0  0  0  0  0  0  0  0  0  0  0
   -7.2355    1.7002   27.3126 C   0  0  0  0  0  0  0  0  0  0  0  0
   -6.5077    0.9898   26.6827 C   0  0  0  0  0  0  0  0  0  0  0  0
   -5.8224   -0.0567   27.3378 C   0  0  0  0  0  0  0  0  0  0  0  0
   -5.3422   -1.0654   27.0079 C   0  0  0  0  0  0  0  0  0  0  0  0
   -4.7038   -2.0306   27.8164 C   0  0  0  0  0  0  0  0  0  0  0  0
   -4.4973   -1.7732   29.1721 C   0  0  0  0  0  0  0  0  0  0  0  0
   -4.9797   -0.5635   29.6813 C   0  0  0  0  0  0  0  0  0  0  0  0
   -5.5536    0.3495   28.7979 C   0  0  0  0  0  0  0  0  0  0  0  0
   -4.7346   -0.1876   30.9267 F   0  0  0  0  0  0  0  0  0  0  0  0
  -11.4655    3.1802   25.1069 C   0  0  0  0  0  0  0  0  0  0  0  0
  -11.3493    2.7682   23.8967 C   0  0  0  0  0  0  0  0  0  0  0  0
  -12.2883    2.8511   22.9826 C   0  0  0  0  0  0  0  0  0  0  0  0
  -13.5933    3.3353   23.3642 C   0  0  0  0  0  0  0  0  0  0  0  0
  -12.7415    3.4023   25.6309 C   0  0  0  0  0  0  0  0  0  0  0  0
  -13.7835    3.6251   24.7460 C   0  0  0  0  0  0  0  0  0  0  0  0
  3  4  1  0
  4  8  1  0
  4  9  1  0
  4 10  1  0
  2 11  1  0
 11 12  2  3
 12 13  1  0
 17 19  1  0
  6 20  1  0
 13 14  2  0
 14 15  1  0
 15 16  2  0
 16 17  1  0
 17 18  2  0
 18 13  1  0
  1  2  2  0
  2  5  1  0
  5  6  2  0
  6  7  1  0
  7  3  2  0
  3  1  1  0
 20 21  2  0
 21 22  1  0
 22 23  2  0
 23 25  1  0
 25 24  2  0
 24 20  1  0
M  END
$$$$
