No_7544-complexes_sdf/6BKW-FPZ/2024-09-17-14-21-01/
     RDKit          3D

 25 28  0  0  0  0  0  0  0  0999 V2000
   -7.7129    4.2099   27.0854 C   0  0  0  0  0  0  0  0  0  0  0  0
   -8.9133    4.4736   27.0998 C   0  0  0  0  0  0  0  0  0  0  0  0
   -9.4643    5.5426   27.7628 C   0  0  0  0  0  0  0  0  0  0  0  0
   -6.8373    4.9942   27.9785 C   0  0  0  0  0  0  0  0  0  0  0  0
   -7.3932    6.0303   28.6784 C   0  0  0  0  0  0  0  0  0  0  0  0
   -8.7122    6.3429   28.5485 C   0  0  0  0  0  0  0  0  0  0  0  0
   -9.7912    3.6118   26.1875 C   0  0  0  0  0  0  0  0  0  0  0  0
  -10.6866    2.7803   26.6116 C   0  0  0  0  0  0  0  0  0  0  0  0
  -11.4095    1.9705   25.9982 C   0  0  0  0  0  0  0  0  0  0  0  0
   -9.6596    3.7528   24.8006 C   0  0  0  0  0  0  0  0  0  0  0  0
  -10.4256    3.0147   23.9783 C   0  0  0  0  0  0  0  0  0  0  0  0
  -11.2943    2.0734   24.5378 C   0  0  0  0  0  0  0  0  0  0  0  0
  -10.1261    3.2820   22.5531 C   0  0  0  0  0  0  0  0  0  0  0  0
  -10.5221    4.3962   21.8984 C   0  0  0  0  0  0  0  0  0  0  0  0
   -9.6693    2.1576   21.7525 C   0  0  0  0  0  0  0  0  0  0  0  0
   -9.2854    0.9050   22.3752 C   0  0  0  0  0  0  0  0  0  0  0  0
   -8.8526    0.7416   23.5859 C   0  0  0  0  0  0  0  0  0  0  0  0
   -8.2687   -0.5289   24.0053 C   0  0  0  0  0  0  0  0  0  0  0  0
   -7.7914   -0.6964   25.3462 C   0  0  0  0  0  0  0  0  0  0  0  0
   -8.0088    0.3763   26.2452 C   0  0  0  0  0  0  0  0  0  0  0  0
   -8.4758    1.6069   25.8471 C   0  0  0  0  0  0  0  0  0  0  0  0
   -8.8586    1.7360   24.6326 C   0  0  0  0  0  0  0  0  0  0  0  0
   -7.9090    2.1800   24.1038 O   0  0  0  0  0  0  0  0  0  0  0  0
   -6.9147    1.0445   24.3739 C   0  0  0  0  0  0  0  0  0  0  0  0
   -6.9339   -0.1544   24.0647 C   0  0  0  0  0  0  0  0  0  0  0  0
  2  7  1  0
 11 13  1  0
 13 14  2  0
 13 15  1  0
 15 16  1  0
 22 23  1  0
 23 24  1  0
 18 25  1  0
 24 25  1  0
 16 17  1  0
 17 18  1  0
 18 19  2  0
 19 20  1  0
 20 21  2  0
 21 22  1  0
 22 17  2  0
  1  2  2  0
  2  3  1  0
  3  6  2  0
  6  5  1  0
  5  4  2  0
  4  1  1  0
  7  8  2  0
  8  9  1  0
  9 12  2  0
 12 11  1  0
 11 10  2  0
 10  7  1  0
M  END
$$$$
