No_700-complexes_sdf/6BKW-FPZ/2024-09-17-14-21-01/
     RDKit          3D

 14 14  0  0  0  0  0  0  0  0999 V2000
   -7.9040    3.9820   27.1177 C   0  0  0  0  0  0  0  0  0  0  0  0
   -7.8663    4.8694   27.9238 C   0  0  0  0  0  0  0  0  0  0  0  0
   -9.0501    3.8017   26.2617 C   0  0  0  0  0  0  0  0  0  0  0  0
  -10.0189    4.7608   26.3707 C   0  0  0  0  0  0  0  0  0  0  0  0
   -8.6973    5.9722   27.8968 C   0  0  0  0  0  0  0  0  0  0  0  0
   -9.8216    5.8946   27.1241 C   0  0  0  0  0  0  0  0  0  0  0  0
   -9.3622    2.6765   25.4475 C   0  0  0  0  0  0  0  0  0  0  0  0
   -8.7910    1.4486   25.7624 C   0  0  0  0  0  0  0  0  0  0  0  0
   -8.2182    1.2991   26.9506 C   0  0  0  0  0  0  0  0  0  0  0  0
   -7.6741    0.0103   27.2761 C   0  0  0  0  0  0  0  0  0  0  0  0
   -6.8932   -0.1229   28.4777 C   0  0  0  0  0  0  0  0  0  0  0  0
   -6.4883   -1.3649   28.9063 C   0  0  0  0  0  0  0  0  0  0  0  0
   -5.6834   -1.4951   30.0542 C   0  0  0  0  0  0  0  0  0  0  0  0
   -5.6209   -2.5525   30.8686 C   0  0  0  0  0  0  0  0  0  0  0  0
  3  7  1  0
  7  8  1  0
  8  9  2  3
  9 10  1  0
 10 11  2  3
 11 12  1  0
 12 13  2  3
 13 14  1  0
  1  2  2  0
  2  5  1  0
  5  6  2  0
  6  4  1  0
  4  3  2  0
  3  1  1  0
M  END
$$$$
