No_7173-complexes_sdf/6BKW-FPZ/2024-09-17-14-21-01/
     RDKit          3D

 19 20  0  0  0  0  0  0  0  0999 V2000
   -7.7129    4.2099   27.0854 C   0  0  0  0  0  0  0  0  0  0  0  0
   -8.2112    3.0637   26.9225 C   0  0  0  0  0  0  0  0  0  0  0  0
   -8.5108    5.3904   26.9436 C   0  0  0  0  0  0  0  0  0  0  0  0
   -9.7256    5.1955   26.3518 C   0  0  0  0  0  0  0  0  0  0  0  0
   -9.4995    2.8258   26.4878 C   0  0  0  0  0  0  0  0  0  0  0  0
  -10.2542    3.9691   26.2055 C   0  0  0  0  0  0  0  0  0  0  0  0
   -7.9168    6.7086   27.1908 C   0  0  0  0  0  0  0  0  0  0  0  0
   -7.3556    1.8215   27.2519 C   0  0  0  0  0  0  0  0  0  0  0  0
   -6.0323    2.0206   27.7220 C   0  0  0  0  0  0  0  0  0  0  0  0
   -5.2440    0.8598   28.0571 C   0  0  0  0  0  0  0  0  0  0  0  0
   -5.7554   -0.3974   27.9469 C   0  0  0  0  0  0  0  0  0  0  0  0
   -7.9134    0.5326   27.1881 C   0  0  0  0  0  0  0  0  0  0  0  0
   -7.1229   -0.5455   27.6003 C   0  0  0  0  0  0  0  0  0  0  0  0
   -8.6019    7.8173   26.8281 N   0  0  0  0  0  0  0  0  0  0  0  0
   -3.6234    1.0237   28.6373 Cl  0  0  0  0  0  0  0  0  0  0  0  0
   -7.0223    6.8578   28.1090 O   0  0  0  0  0  0  0  0  0  0  0  0
  -11.5815    3.7983   25.5946 C   0  0  0  0  0  0  0  0  0  0  0  0
  -12.6885    3.5991   26.3703 C   0  0  0  0  0  0  0  0  0  0  0  0
  -13.9670    3.5104   25.8200 C   0  0  0  0  0  0  0  0  0  0  0  0
  3  7  1  0
  2  8  1  0
  7 14  1  0
 10 15  1  0
  7 16  2  0
  6 17  1  0
 17 18  2  3
 18 19  1  0
  1  2  2  0
  2  5  1  0
  5  6  2  0
  6  4  1  0
  4  3  2  0
  3  1  1  0
  8  9  2  0
  9 10  1  0
 10 11  2  0
 11 13  1  0
 13 12  2  0
 12  8  1  0
M  END
$$$$
