No_7096-complexes_sdf/6BKW-FPZ/2024-09-17-14-21-01/
     RDKit          3D

 15 16  0  0  0  0  0  0  0  0999 V2000
   -7.7129    4.2099   27.0854 C   0  0  0  0  0  0  0  0  0  0  0  0
   -8.9133    4.4736   27.0998 C   0  0  0  0  0  0  0  0  0  0  0  0
   -9.7937    3.7368   26.2091 C   0  0  0  0  0  0  0  0  0  0  0  0
   -7.2496    2.8647   26.8496 C   0  0  0  0  0  0  0  0  0  0  0  0
   -8.1891    1.9790   26.3454 C   0  0  0  0  0  0  0  0  0  0  0  0
   -9.4252    2.4603   26.0121 C   0  0  0  0  0  0  0  0  0  0  0  0
   -9.3199    5.9662   27.2512 C   0  0  0  0  0  0  0  0  0  0  0  0
   -7.7626    0.5908   26.1375 C   0  0  0  0  0  0  0  0  0  0  0  0
   -7.0239   -0.1054   27.1144 C   0  0  0  0  0  0  0  0  0  0  0  0
   -6.6672   -1.4342   26.9400 C   0  0  0  0  0  0  0  0  0  0  0  0
   -7.1926   -2.0719   25.8290 C   0  0  0  0  0  0  0  0  0  0  0  0
   -8.2089   -0.1857   25.1273 C   0  0  0  0  0  0  0  0  0  0  0  0
   -7.8993   -1.4369   24.9134 C   0  0  0  0  0  0  0  0  0  0  0  0
   -8.3995    7.0367   26.9320 C   0  0  0  0  0  0  0  0  0  0  0  0
   -7.0122    6.7697   27.0686 C   0  0  0  0  0  0  0  0  0  0  0  0
  2  7  1  0
  5  8  1  0
  7 14  1  0
 14 15  1  0
  1  2  2  0
  2  3  1  0
  3  6  2  0
  6  5  1  0
  5  4  2  0
  4  1  1  0
  8  9  2  0
  9 10  1  0
 10 11  2  0
 11 13  1  0
 13 12  2  0
 12  8  1  0
M  END
$$$$
