No_772-complexes_sdf/6BKW-FPZ/2024-09-17-14-21-01/
     RDKit          3D

 32 36  0  0  0  0  0  0  0  0999 V2000
   -7.9040    3.9820   27.1177 C   0  0  0  0  0  0  0  0  0  0  0  0
   -7.8663    4.8694   27.9238 C   0  0  0  0  0  0  0  0  0  0  0  0
   -9.0806    3.1428   27.1220 C   0  0  2  0  0  0  0  0  0  0  0  0
   -8.9544    1.8782   26.5468 C   0  0  0  0  0  0  0  0  0  0  0  0
   -6.7151    5.8072   27.9111 C   0  0  0  0  0  0  0  0  0  0  0  0
   -9.6830    1.5813   25.4472 C   0  0  0  0  0  0  0  0  0  0  0  0
   -9.1866    0.6737   24.5821 C   0  0  0  0  0  0  0  0  0  0  0  0
   -8.0460   -0.1395   24.8466 C   0  0  0  0  0  0  0  0  0  0  0  0
   -7.7648    1.0307   26.8225 C   0  0  0  0  0  0  0  0  0  0  0  0
   -7.3023    0.0949   26.0308 C   0  0  0  0  0  0  0  0  0  0  0  0
  -10.3179    3.7761   27.0354 C   0  0  1  0  0  0  0  0  0  0  0  0
  -10.7290    4.1063   28.5096 C   0  0  0  0  0  0  0  0  0  0  0  0
  -10.4923    5.0478   26.3040 C   0  0  0  0  0  0  0  0  0  0  0  0
  -11.5242    2.7849   26.7645 C   0  0  2  0  0  0  0  0  0  0  0  0
  -12.0743    2.3541   27.9787 C   0  0  0  0  0  0  0  0  0  0  0  0
  -11.8149    3.3554   29.0075 C   0  0  0  0  0  0  0  0  0  0  0  0
  -10.9388    1.7920   25.7780 C   0  0  1  0  0  0  0  0  0  0  0  0
  -12.6127    3.6385   25.9548 C   0  0  0  0  0  0  0  0  0  0  0  0
  -12.0586    1.0335   25.1026 C   0  0  0  0  0  0  0  0  0  0  0  0
  -12.5702    0.0746   25.8917 C   0  0  0  0  0  0  0  0  0  0  0  0
  -12.4106    1.2673   23.8426 C   0  0  0  0  0  0  0  0  0  0  0  0
  -13.5085   -0.7793   25.3621 C   0  0  0  0  0  0  0  0  0  0  0  0
  -13.3706    0.4203   23.2778 C   0  0  0  0  0  0  0  0  0  0  0  0
  -13.9183   -0.5903   24.0290 C   0  0  0  0  0  0  0  0  0  0  0  0
   -7.5669   -1.1004   23.8754 C   0  0  0  0  0  0  0  0  0  0  0  0
   -6.3492   -1.0109   23.6770 F   0  0  0  0  0  0  0  0  0  0  0  0
   -7.7764   -2.3600   24.3263 F   0  0  0  0  0  0  0  0  0  0  0  0
   -8.1703   -0.9893   22.6654 F   0  0  0  0  0  0  0  0  0  0  0  0
  -13.9243    3.3955   25.8328 C   0  0  0  0  0  0  0  0  0  0  0  0
  -14.7510    4.2299   25.1860 C   0  0  0  0  0  0  0  0  0  0  0  0
  -15.8637    4.6161   25.7781 C   0  0  0  0  0  0  0  0  0  0  0  0
  -12.0484    4.9925   25.4758 C   0  0  0  0  0  0  0  0  0  0  0  0
  1  2  1  0
  3  1  1  6
  3  4  1  0
  2  5  1  0
  3 11  1  0
 11 12  1  1
 11 13  1  0
 11 14  1  0
 14 15  1  1
 12 16  1  0
 15 16  1  0
  6 17  1  0
 14 17  1  0
 14 18  1  0
 17 19  1  6
  8 25  1  0
 25 26  1  0
 25 27  1  0
 25 28  1  0
 18 29  2  3
 29 30  1  0
 30 31  2  0
 13 32  1  0
 18 32  1  0
 19 20  2  0
 20 22  1  0
 22 24  2  0
 24 23  1  0
 23 21  2  0
 21 19  1  0
  4  6  2  0
  6  7  1  0
  7  8  2  0
  8 10  1  0
 10  9  2  0
  9  4  1  0
M  END
$$$$
