No_7118-complexes_sdf/6BKW-FPZ/2024-09-17-14-21-01/
     RDKit          3D

 29 32  0  0  0  0  0  0  0  0999 V2000
   -7.2496    3.8871   27.4508 C   0  0  0  0  0  0  0  0  0  0  0  0
   -7.6161    2.7143   27.1523 C   0  0  0  0  0  0  0  0  0  0  0  0
   -8.8302    2.4659   26.5056 C   0  0  0  0  0  0  0  0  0  0  0  0
   -8.1584    5.0090   27.3234 C   0  0  0  0  0  0  0  0  0  0  0  0
   -9.3788    4.7965   26.7695 C   0  0  0  0  0  0  0  0  0  0  0  0
   -9.7028    3.5649   26.3276 C   0  0  0  0  0  0  0  0  0  0  0  0
   -6.7182    1.5519   27.3631 C   0  0  0  0  0  0  0  0  0  0  0  0
   -5.4694    1.7365   28.0694 C   0  0  0  0  0  0  0  0  0  0  0  0
   -4.5986    0.6519   28.2611 C   0  0  0  0  0  0  0  0  0  0  0  0
   -5.0102   -0.6262   27.9715 C   0  0  0  0  0  0  0  0  0  0  0  0
   -7.0481    0.2248   27.1396 C   0  0  0  0  0  0  0  0  0  0  0  0
   -6.2697   -0.8020   27.4256 C   0  0  0  0  0  0  0  0  0  0  0  0
   -7.6122    6.5782   27.8658 Cl  0  0  0  0  0  0  0  0  0  0  0  0
  -10.9838    3.1753   25.7075 C   0  0  2  0  0  0  0  0  0  0  0  0
  -11.4213    4.1012   24.7150 C   0  0  0  0  0  0  0  0  0  0  0  0
  -11.1742    3.6504   23.4569 C   0  0  0  0  0  0  0  0  0  0  0  0
  -11.3626    4.6094   22.4079 C   0  0  0  0  0  0  0  0  0  0  0  0
  -10.7176    2.4140   23.0400 C   0  0  0  0  0  0  0  0  0  0  0  0
  -10.4237    2.0967   21.7053 C   0  0  0  0  0  0  0  0  0  0  0  0
  -11.0516    4.3383   21.0600 C   0  0  0  0  0  0  0  0  0  0  0  0
  -10.5777    3.0769   20.7048 C   0  0  0  0  0  0  0  0  0  0  0  0
  -12.0394    3.0069   26.8031 C   0  0  0  0  0  0  0  0  0  0  0  0
  -12.6302    1.8899   27.0551 C   0  0  0  0  0  0  0  0  0  0  0  0
  -13.5285    1.6926   28.1457 C   0  0  0  0  0  0  0  0  0  0  0  0
  -13.8891    2.8659   28.9219 C   0  0  0  0  0  0  0  0  0  0  0  0
  -13.2906    4.0789   28.6302 C   0  0  0  0  0  0  0  0  0  0  0  0
  -12.3800    4.2257   27.6263 C   0  0  0  0  0  0  0  0  0  0  0  0
   -3.4313    0.9382   28.8411 F   0  0  0  0  0  0  0  0  0  0  0  0
  -10.9701    1.9183   25.1941 F   0  0  0  0  0  0  0  0  0  0  0  0
  2  7  1  0
  4 13  1  0
  6 14  1  0
 14 15  1  0
 15 16  1  0
 14 22  1  0
  9 28  1  0
 14 29  1  6
  7  8  2  0
  8  9  1  0
  9 10  2  0
 10 12  1  0
 12 11  2  0
 11  7  1  0
 16 17  2  0
 17 20  1  0
 20 21  2  0
 21 19  1  0
 19 18  2  0
 18 16  1  0
  1  2  2  0
  2  3  1  0
  3  6  2  0
  6  5  1  0
  5  4  2  0
  4  1  1  0
 22 23  2  0
 23 24  1  0
 24 25  2  0
 25 26  1  0
 26 27  2  0
 27 22  1  0
M  END
$$$$
