No_7024-complexes_sdf/6BKW-FPZ/2024-09-17-14-21-01/
     RDKit          3D

 11 11  0  0  0  0  0  0  0  0999 V2000
   -7.9040    3.9820   27.1177 C   0  0  0  0  0  0  0  0  0  0  0  0
   -8.2057    2.8231   26.8733 C   0  0  0  0  0  0  0  0  0  0  0  0
   -9.2962    2.4021   26.1155 C   0  0  0  0  0  0  0  0  0  0  0  0
   -6.8682    4.5169   28.0704 C   0  0  0  0  0  0  0  0  0  0  0  0
  -10.0578    3.3688   25.5520 C   0  0  0  0  0  0  0  0  0  0  0  0
  -11.0896    3.0810   24.6680 C   0  0  1  0  0  0  0  0  0  0  0  0
   -8.7093    5.1095   26.6050 C   0  0  0  0  0  0  0  0  0  0  0  0
   -9.7814    4.7440   25.7733 C   0  0  0  0  0  0  0  0  0  0  0  0
  -12.3098    2.8618   25.0718 C   0  0  0  0  0  0  0  0  0  0  0  0
  -10.8793    3.0928   23.2315 C   0  0  0  0  0  0  0  0  0  0  0  0
  -10.0483    3.2682   22.5798 C   0  0  0  0  0  0  0  0  0  0  0  0
  1  4  1  0
  5  6  1  0
  6  9  1  6
  6 10  1  0
 10 11  2  0
  1  2  2  0
  2  3  1  0
  3  5  2  0
  5  8  1  0
  8  7  2  0
  7  1  1  0
M  END
$$$$
