No_7109-complexes_sdf/6BKW-FPZ/2024-09-17-14-21-01/
     RDKit          3D

 16 18  0  0  0  0  0  0  0  0999 V2000
   -7.9040    3.9820   27.1177 C   0  0  0  0  0  0  0  0  0  0  0  0
   -8.2057    2.8231   26.8733 C   0  0  2  0  0  0  0  0  0  0  0  0
   -7.0130    4.3706   28.1140 C   0  0  0  0  0  0  0  0  0  0  0  0
   -9.3829    2.4374   26.1668 C   0  0  0  0  0  0  0  0  0  0  0  0
  -10.0975    3.4171   25.5988 C   0  0  0  0  0  0  0  0  0  0  0  0
   -9.7335    4.7745   25.7705 C   0  0  0  0  0  0  0  0  0  0  0  0
   -8.7317    5.1107   26.5933 C   0  0  0  0  0  0  0  0  0  0  0  0
   -8.4135    6.3902   26.8705 N   0  0  0  0  0  0  0  0  0  0  0  0
   -7.3736    6.7658   27.6705 C   0  0  0  0  0  0  0  0  0  0  0  0
   -6.8019    5.7922   28.3756 C   0  0  0  0  0  0  0  0  0  0  0  0
   -7.4281    1.6411   27.4628 C   0  0  0  0  0  0  0  0  0  0  0  0
   -6.0346    1.7581   27.5908 C   0  0  0  0  0  0  0  0  0  0  0  0
   -5.2895    0.6762   28.1283 C   0  0  0  0  0  0  0  0  0  0  0  0
   -5.8766   -0.5720   28.3453 C   0  0  0  0  0  0  0  0  0  0  0  0
   -7.2714   -0.6694   28.0728 C   0  0  0  0  0  0  0  0  0  0  0  0
   -8.0027    0.3986   27.5890 C   0  0  0  0  0  0  0  0  0  0  0  0
  1  2  1  0
  2  4  1  0
  4  5  1  0
  5  6  1  0
  6  7  1  0
  2 11  1  1
 11 12  2  0
 12 13  1  0
 13 14  2  0
 14 15  1  0
 15 16  2  0
 16 11  1  0
  1  3  2  0
  3 10  1  0
 10  9  2  0
  9  8  1  0
  8  7  2  0
  7  1  1  0
M  END
$$$$
