No_7550-complexes_sdf/6BKW-FPZ/2024-09-17-14-21-01/
     RDKit          3D

 26 29  0  0  0  0  0  0  0  0999 V2000
   -7.9040    3.9820   27.1177 C   0  0  0  0  0  0  0  0  0  0  0  0
   -8.2057    2.8231   26.8733 C   0  0  0  0  0  0  0  0  0  0  0  0
   -8.7695    5.0740   26.7916 C   0  0  0  0  0  0  0  0  0  0  0  0
   -8.4337    6.4678   27.0913 C   0  0  0  0  0  0  0  0  0  0  0  0
   -9.3742    2.4311   26.2346 C   0  0  0  0  0  0  0  0  0  0  0  0
  -10.2395    3.4267   25.8887 C   0  0  0  0  0  0  0  0  0  0  0  0
   -9.9567    4.7548   26.1374 C   0  0  0  0  0  0  0  0  0  0  0  0
   -8.5581    6.7982   28.2290 F   0  0  0  0  0  0  0  0  0  0  0  0
   -7.1198    6.7558   26.7218 F   0  0  0  0  0  0  0  0  0  0  0  0
   -9.1461    7.3254   26.2867 F   0  0  0  0  0  0  0  0  0  0  0  0
   -7.2384    1.6922   27.3204 C   0  0  0  0  0  0  0  0  0  0  0  0
   -5.9416    1.9749   27.7749 C   0  0  0  0  0  0  0  0  0  0  0  0
   -5.0921    0.9196   28.1897 C   0  0  0  0  0  0  0  0  0  0  0  0
   -5.5390   -0.3585   28.1389 C   0  0  0  0  0  0  0  0  0  0  0  0
   -7.5877    0.3348   27.3040 C   0  0  0  0  0  0  0  0  0  0  0  0
   -6.8426   -0.6265   27.7667 C   0  0  0  0  0  0  0  0  0  0  0  0
   -4.4801   -1.2835   28.6763 C   0  0  0  0  0  0  0  0  0  0  0  0
   -3.3705   -1.1344   28.6429 C   0  0  0  0  0  0  0  0  0  0  0  0
   -2.8139    0.2173   28.5542 C   0  0  0  0  0  0  0  0  0  0  0  0
   -3.6577    1.2710   28.2056 C   0  0  0  0  0  0  0  0  0  0  0  0
  -11.4580    3.1708   25.1248 C   0  0  0  0  0  0  0  0  0  0  0  0
  -12.5843    2.7871   25.7783 C   0  0  0  0  0  0  0  0  0  0  0  0
  -11.4782    3.2831   23.7061 C   0  0  0  0  0  0  0  0  0  0  0  0
  -12.5749    3.1296   22.9735 C   0  0  0  0  0  0  0  0  0  0  0  0
  -13.7949    2.6325   25.0370 C   0  0  0  0  0  0  0  0  0  0  0  0
  -13.7641    2.8025   23.6500 C   0  0  0  0  0  0  0  0  0  0  0  0
  3  4  1  0
  4  8  1  0
  4  9  1  0
  4 10  1  0
  2 11  1  0
  6 21  1  0
 11 12  2  0
 12 13  1  0
 14 16  1  0
 16 15  2  0
 15 11  1  0
 21 22  2  0
 22 25  1  0
 25 26  2  0
 26 24  1  0
 24 23  2  0
 23 21  1  0
  1  2  2  0
  2  5  1  0
  5  6  2  0
  6  7  1  0
  7  3  2  0
  3  1  1  0
 13 14  2  0
 14 17  1  0
 17 18  2  0
 18 19  1  0
 19 20  2  0
 20 13  1  0
M  END
$$$$
