No_7408-complexes_sdf/6BKW-FPZ/2024-09-17-14-21-01/
     RDKit          3D

 28 30  0  0  0  0  0  0  0  0999 V2000
   -7.9040    3.9820   27.1177 C   0  0  0  0  0  0  0  0  0  0  0  0
   -9.0711    4.3164   27.0630 C   0  0  0  0  0  0  0  0  0  0  0  0
   -9.8698    3.9665   25.9494 C   0  0  0  0  0  0  0  0  0  0  0  0
   -7.4046    2.7946   26.4568 C   0  0  0  0  0  0  0  0  0  0  0  0
   -8.3659    2.1310   25.6816 C   0  0  0  0  0  0  0  0  0  0  0  0
   -9.5390    2.7825   25.4030 C   0  0  0  0  0  0  0  0  0  0  0  0
   -6.7759    4.6875   28.2951 Cl  0  0  0  0  0  0  0  0  0  0  0  0
  -10.4535    2.1810   24.3729 C   0  0  0  0  0  0  0  0  0  0  0  0
  -11.0628    2.7218   23.4985 C   0  0  0  0  0  0  0  0  0  0  0  0
  -11.9229    2.1371   22.4891 C   0  0  0  0  0  0  0  0  0  0  0  0
  -11.9331    0.7326   22.4781 C   0  0  0  0  0  0  0  0  0  0  0  0
  -10.5115    0.7185   24.1721 C   0  0  0  0  0  0  0  0  0  0  0  0
   -9.6709   -0.0343   25.1972 C   0  0  0  0  0  0  0  0  0  0  0  0
  -11.2517    0.0858   23.2842 C   0  0  0  0  0  0  0  0  0  0  0  0
   -8.4755    0.6287   25.7545 C   0  0  0  0  0  0  0  0  0  0  0  0
   -7.4230   -0.1588   26.3577 C   0  0  1  0  0  0  0  0  0  0  0  0
   -7.5918   -0.4008   27.6929 C   0  0  0  0  0  0  0  0  0  0  0  0
   -6.4291   -0.6647   25.5624 C   0  0  0  0  0  0  0  0  0  0  0  0
   -6.4953   -1.0492   28.4168 C   0  0  0  0  0  0  0  0  0  0  0  0
   -5.3175   -1.3274   26.2144 C   0  0  0  0  0  0  0  0  0  0  0  0
   -5.3642   -1.5307   27.6401 C   0  0  1  0  0  0  0  0  0  0  0  0
   -4.1845   -1.8424   25.4630 C   0  0  0  0  0  0  0  0  0  0  0  0
   -4.5393   -0.5970   26.0388 C   0  0  0  0  0  0  0  0  0  0  0  0
   -4.3395   -2.1756   28.3667 C   0  0  0  0  0  0  0  0  0  0  0  0
   -5.8206   -2.7655   27.5744 F   0  0  0  0  0  0  0  0  0  0  0  0
   -4.3338    0.5428   26.6163 N   0  0  0  0  0  0  0  0  0  0  0  0
   -3.4310   -0.7475   25.2343 O   0  0  0  0  0  0  0  0  0  0  0  0
   -4.6723    0.3003   26.4801 N   0  0  0  0  0  0  0  0  0  0  0  0
  1  7  1  0
 16 15  1  6
 16 17  1  0
 16 18  1  0
 17 19  2  3
 18 20  2  3
 19 21  1  0
 20 22  1  0
 20 23  1  0
 21 24  1  1
 21 25  1  0
 23 26  1  0
 22 27  1  0
 26 28  1  0
  8  9  2  0
  9 10  1  0
 10 11  2  0
 11 14  1  0
 14 12  2  0
  6  8  1  0
  8 12  1  0
 12 13  1  0
 13 15  2  0
 15  5  1  0
  1  2  2  0
  2  3  1  0
  3  6  2  0
  6  5  1  0
  5  4  2  0
  4  1  1  0
M  END
$$$$
