No_7373-complexes_sdf/6BKW-FPZ/2024-09-17-14-21-01/
     RDKit          3D

 21 23  0  0  0  0  0  0  0  0999 V2000
   -7.9040    3.9820   27.1177 C   0  0  0  0  0  0  0  0  0  0  0  0
   -7.8663    4.8694   27.9238 C   0  0  0  0  0  0  0  0  0  0  0  0
   -7.4698    2.6989   27.4277 C   0  0  0  0  0  0  0  0  0  0  0  0
   -7.9683    1.5964   26.8266 C   0  0  1  0  0  0  0  0  0  0  0  0
   -8.9447    1.7923   25.8533 C   0  0  0  0  0  0  0  0  0  0  0  0
   -9.4405    2.9988   25.5757 C   0  0  0  0  0  0  0  0  0  0  0  0
  -10.4397    3.2630   24.6146 C   0  0  0  0  0  0  0  0  0  0  0  0
   -8.9100    4.1245   26.1959 C   0  0  0  0  0  0  0  0  0  0  0  0
   -8.1498    6.2592   27.6587 N   0  0  0  0  0  0  0  0  0  0  0  0
   -9.1628    6.6323   26.8618 C   0  0  0  0  0  0  0  0  0  0  0  0
   -9.5241    5.4416   25.9620 C   0  0  0  0  0  0  0  0  0  0  0  0
  -10.9223    2.4193   23.7983 C   0  0  0  0  0  0  0  0  0  0  0  0
  -10.5368    1.0844   24.0679 C   0  0  0  0  0  0  0  0  0  0  0  0
   -9.5084    0.7297   25.0246 C   0  0  0  0  0  0  0  0  0  0  0  0
   -7.3979    0.2237   26.9909 C   0  0  2  0  0  0  0  0  0  0  0  0
   -7.9973   -0.9227   27.7815 Cl  0  0  0  0  0  0  0  0  0  0  0  0
   -6.0819    0.0052   26.4710 C   0  0  0  0  0  0  0  0  0  0  0  0
   -5.8708   -1.1483   25.7702 C   0  0  0  0  0  0  0  0  0  0  0  0
   -4.4537   -1.5565   25.6731 C   0  0  0  0  0  0  0  0  0  0  0  0
   -3.6791   -0.7298   26.0821 O   0  0  0  0  0  0  0  0  0  0  0  0
   -4.1259   -2.4746   24.8574 O   0  0  0  0  0  0  0  0  0  0  0  0
  1  3  1  0
  4  3  1  6
  4  5  1  0
  6  8  1  0
  4 15  1  0
 15 16  1  1
 15 17  1  0
 17 18  1  0
 18 19  1  0
 19 20  2  0
 19 21  1  0
  1  2  2  0
  2  9  1  0
  9 10  2  0
 10 11  1  0
 11  8  2  0
  8  1  1  0
  5  6  2  0
  6  7  1  0
  7 12  2  0
 12 13  1  0
 13 14  2  0
 14  5  1  0
M  END
$$$$
