No_7701-complexes_sdf/6BKW-FPZ/2024-09-17-14-21-01/
     RDKit          3D

 40 43  0  0  0  0  0  0  0  0999 V2000
   -7.7129    4.2099   27.0854 C   0  0  0  0  0  0  0  0  0  0  0  0
   -8.9133    4.4736   27.0998 C   0  0  0  0  0  0  0  0  0  0  0  0
   -9.7135    3.9633   26.0300 C   0  0  0  0  0  0  0  0  0  0  0  0
   -7.2585    2.8371   26.9278 C   0  0  0  0  0  0  0  0  0  0  0  0
   -9.4798    2.6045   25.7571 C   0  0  0  0  0  0  0  0  0  0  0  0
   -8.2172    2.0710   26.1389 C   0  0  0  0  0  0  0  0  0  0  0  0
   -9.2292    5.9823   27.3379 C   0  0  0  0  0  0  0  0  0  0  0  0
  -10.3750    1.8544   24.9713 C   0  0  0  0  0  0  0  0  0  0  0  0
  -11.1385    2.2027   24.2888 C   0  0  0  0  0  0  0  0  0  0  0  0
  -12.1153    1.4502   23.4272 C   0  0  0  0  0  0  0  0  0  0  0  0
  -11.9005    0.0801   23.5072 C   0  0  0  0  0  0  0  0  0  0  0  0
  -10.2492    0.3255   24.8689 C   0  0  0  0  0  0  0  0  0  0  0  0
  -10.9833   -0.4405   24.2257 C   0  0  0  0  0  0  0  0  0  0  0  0
   -6.8063    4.9028   28.1762 C   0  0  0  0  0  0  0  0  0  0  0  0
   -6.1138    2.1638   27.4783 C   0  0  0  0  0  0  0  0  0  0  0  0
   -6.0367    0.9504   27.8928 N   0  0  0  0  0  0  0  0  0  0  0  0
   -4.8787    0.4332   28.4328 C   0  0  0  0  0  0  0  0  0  0  0  0
   -4.2455   -0.4236   28.1026 C   0  0  0  0  0  0  0  0  0  0  0  0
   -3.0419   -0.8050   28.8466 C   0  0  0  0  0  0  0  0  0  0  0  0
   -2.8595   -0.3238   30.1416 C   0  0  0  0  0  0  0  0  0  0  0  0
   -4.5587    0.9973   29.8543 C   0  0  0  0  0  0  0  0  0  0  0  0
   -3.5902    0.5850   30.5744 C   0  0  0  0  0  0  0  0  0  0  0  0
   -7.0675    0.0026   27.6560 C   0  0  0  0  0  0  0  0  0  0  0  0
   -6.6526   -1.1648   26.9643 C   0  0  0  0  0  0  0  0  0  0  0  0
   -7.6811   -2.1110   26.9308 C   0  0  0  0  0  0  0  0  0  0  0  0
   -8.9469   -1.7413   27.4032 C   0  0  0  0  0  0  0  0  0  0  0  0
   -9.2447   -0.6143   28.0832 C   0  0  0  0  0  0  0  0  0  0  0  0
   -8.2525    0.2843   28.1939 C   0  0  0  0  0  0  0  0  0  0  0  0
   -2.1173   -1.8756   28.2788 C   0  0  0  0  0  0  0  0  0  0  0  0
   -1.9573   -1.9683   27.2418 O   0  0  0  0  0  0  0  0  0  0  0  0
   -1.8025   -2.8158   29.1774 O   0  0  0  0  0  0  0  0  0  0  0  0
   -7.4979   -3.3569   26.2139 C   0  0  0  0  0  0  0  0  0  0  0  0
   -7.0405   -4.3661   26.8469 C   0  0  0  0  0  0  0  0  0  0  0  0
   -6.5778   -5.2864   26.8627 C   0  0  0  0  0  0  0  0  0  0  0  0
   -5.9576   -6.4987   27.1600 C   0  0  0  0  0  0  0  0  0  0  0  0
   -5.2320   -7.0871   27.5635 N   0  0  0  0  0  0  0  0  0  0  0  0
   -7.9097   -3.3519   24.8322 C   0  0  0  0  0  0  0  0  0  0  0  0
   -8.9139   -4.2277   24.4653 C   0  0  0  0  0  0  0  0  0  0  0  0
   -9.2992   -4.2667   23.1128 C   0  0  0  0  0  0  0  0  0  0  0  0
   -8.6730   -3.3931   22.2393 C   0  0  0  0  0  0  0  0  0  0  0  0
  2  7  1  0
  5  8  1  0
  1 14  1  0
  4 15  1  0
 15 16  1  0
 16 17  1  0
 16 23  1  0
 19 29  1  0
 29 30  2  0
 29 31  1  0
 25 32  1  0
 32 33  2  3
 33 34  1  0
 34 35  1  0
 35 36  3  0
 32 37  1  0
 37 38  2  3
 38 39  1  0
 39 40  2  0
 17 18  2  0
 18 19  1  0
 19 20  2  0
 20 22  1  0
 22 21  2  0
 21 17  1  0
  1  2  2  0
  2  3  1  0
  3  5  2  0
  5  6  1  0
  6  4  2  0
  4  1  1  0
 23 24  2  0
 24 25  1  0
 25 26  2  0
 26 27  1  0
 27 28  2  0
 28 23  1  0
  8  9  2  0
  9 10  1  0
 10 11  2  0
 11 13  1  0
 13 12  2  0
 12  8  1  0
M  END
$$$$
