No_7315-complexes_sdf/6BKW-FPZ/2024-09-17-14-21-01/
     RDKit          3D

 15 17  0  0  0  0  0  0  0  0999 V2000
   -7.2496    3.8871   27.4508 C   0  0  0  0  0  0  0  0  0  0  0  0
   -7.9379    4.9063   27.8518 C   0  0  0  0  0  0  0  0  0  0  0  0
   -9.3376    4.8647   27.7795 C   0  0  0  0  0  0  0  0  0  0  0  0
   -7.8544    2.6294   27.0414 C   0  0  0  0  0  0  0  0  0  0  0  0
   -9.2852    2.6570   27.0666 C   0  0  0  0  0  0  0  0  0  0  0  0
  -10.0126    3.7528   27.4890 C   0  0  0  0  0  0  0  0  0  0  0  0
  -11.4946    3.6924   27.5201 C   0  0  0  0  0  0  0  0  0  0  0  0
  -12.0181    2.6419   28.0792 C   0  0  0  0  0  0  0  0  0  0  0  0
  -13.4558    2.4682   28.2693 C   0  0  0  0  0  0  0  0  0  0  0  0
  -13.9950    1.3402   28.8603 C   0  0  0  0  0  0  0  0  0  0  0  0
  -13.1152    0.2632   29.1806 C   0  0  0  0  0  0  0  0  0  0  0  0
  -11.7640    0.3355   28.9218 C   0  0  0  0  0  0  0  0  0  0  0  0
  -11.2060    1.5619   28.4108 C   0  0  0  0  0  0  0  0  0  0  0  0
   -9.7765    1.5155   28.0307 C   0  0  0  0  0  0  0  0  0  0  0  0
   -7.2858    6.1039   28.0211 O   0  0  0  0  0  0  0  0  0  0  0  0
  2 15  1  0
  1  2  2  0
  2  3  1  0
  3  6  2  0
  5  4  2  0
  4  1  1  0
  8  9  1  0
  9 10  2  0
 10 11  1  0
 11 12  2  0
 12 13  1  0
  5  6  1  0
  6  7  1  0
  7  8  2  0
  8 13  1  0
 13 14  2  0
 14  5  1  0
M  END
$$$$
