No_7418-complexes_sdf/6BKW-FPZ/2024-09-17-14-21-01/
     RDKit          3D

 26 28  0  0  0  0  0  0  0  0999 V2000
   -7.9040    3.9820   27.1177 C   0  0  0  0  0  0  0  0  0  0  0  0
   -7.8663    4.8694   27.9238 C   0  0  0  0  0  0  0  0  0  0  0  0
   -9.0491    3.8523   26.2542 C   0  0  0  0  0  0  0  0  0  0  0  0
   -8.7661    5.9491   27.9690 C   0  0  0  0  0  0  0  0  0  0  0  0
   -9.9295    4.8502   26.2323 C   0  0  0  0  0  0  0  0  0  0  0  0
   -9.8077    5.9288   27.0933 C   0  0  0  0  0  0  0  0  0  0  0  0
   -7.0146    2.9513   27.1368 F   0  0  0  0  0  0  0  0  0  0  0  0
   -9.1015    2.7190   25.2776 C   0  0  0  0  0  0  0  0  0  0  0  0
   -8.7417    1.5910   25.6089 N   0  0  0  0  0  0  0  0  0  0  0  0
   -9.8125    2.8824   24.2577 O   0  0  0  0  0  0  0  0  0  0  0  0
   -8.7575    0.4189   24.7737 C   0  0  0  0  0  0  0  0  0  0  0  0
   -7.7135   -0.3922   24.8269 C   0  0  0  0  0  0  0  0  0  0  0  0
   -7.6056   -1.4942   23.8603 C   0  0  0  0  0  0  0  0  0  0  0  0
   -8.6423   -1.6192   22.8819 C   0  0  0  0  0  0  0  0  0  0  0  0
   -9.6548   -0.6374   22.8652 C   0  0  0  0  0  0  0  0  0  0  0  0
   -9.6766    0.3773   23.7396 C   0  0  0  0  0  0  0  0  0  0  0  0
   -8.5864   -2.9051   21.7719 Cl  0  0  0  0  0  0  0  0  0  0  0  0
   -6.6300   -0.3468   25.8410 C   0  0  0  0  0  0  0  0  0  0  0  0
   -6.8433    0.0647   26.9569 O   0  0  0  0  0  0  0  0  0  0  0  0
   -5.5541   -0.9292   25.6133 O   0  0  0  0  0  0  0  0  0  0  0  0
   -5.8574   -0.1208   27.9957 C   0  0  0  0  0  0  0  0  0  0  0  0
   -6.0879   -0.9937   29.0627 C   0  0  0  0  0  0  0  0  0  0  0  0
   -5.1948   -1.1270   30.0594 C   0  0  0  0  0  0  0  0  0  0  0  0
   -4.7482    0.7397   28.1533 C   0  0  0  0  0  0  0  0  0  0  0  0
   -3.8855    0.7264   29.1917 C   0  0  0  0  0  0  0  0  0  0  0  0
   -4.0650   -0.1982   30.1813 C   0  0  0  0  0  0  0  0  0  0  0  0
  1  7  1  0
  3  8  1  0
  8  9  1  0
  8 10  2  0
  9 11  1  0
 14 17  1  0
 12 18  1  0
 18 19  1  0
 18 20  2  0
 19 21  1  0
 11 12  1  0
 12 13  2  0
 13 14  1  0
 14 15  2  0
 15 16  1  0
 16 11  2  0
  1  2  2  0
  2  4  1  0
  4  6  2  0
  6  5  1  0
  5  3  2  0
  3  1  1  0
 21 22  2  0
 22 23  1  0
 23 26  2  0
 26 25  1  0
 25 24  2  0
 24 21  1  0
M  END
$$$$
