No_7431-complexes_sdf/6BKW-FPZ/2024-09-17-14-21-01/
     RDKit          3D

 21 24  0  0  0  0  0  0  0  0999 V2000
   -7.7129    4.2099   27.0854 C   0  0  0  0  0  0  0  0  0  0  0  0
   -8.9133    4.4736   27.0998 C   0  0  0  0  0  0  0  0  0  0  0  0
   -9.7135    3.9633   26.0300 C   0  0  0  0  0  0  0  0  0  0  0  0
   -6.8420    4.9760   28.0851 C   0  0  0  0  0  0  0  0  0  0  0  0
  -10.9164    3.4776   26.1172 C   0  0  0  0  0  0  0  0  0  0  0  0
  -11.6897    3.8137   27.2914 C   0  0  0  0  0  0  0  0  0  0  0  0
  -10.9876    4.2901   28.4232 C   0  0  0  0  0  0  0  0  0  0  0  0
   -9.6492    4.5388   28.3533 C   0  0  0  0  0  0  0  0  0  0  0  0
  -13.1233    3.4856   27.4111 C   0  0  0  0  0  0  0  0  0  0  0  0
  -13.7486    3.2723   26.6066 C   0  0  0  0  0  0  0  0  0  0  0  0
  -13.2556    3.4332   25.1989 C   0  0  0  0  0  0  0  0  0  0  0  0
  -11.8229    3.4521   24.9121 C   0  0  0  0  0  0  0  0  0  0  0  0
  -11.3454    3.4684   23.5966 C   0  0  0  0  0  0  0  0  0  0  0  0
  -11.8485    4.0574   22.6553 C   0  0  0  0  0  0  0  0  0  0  0  0
  -11.2694    4.0134   21.3287 C   0  0  0  0  0  0  0  0  0  0  0  0
  -10.1094    3.2694   21.1203 C   0  0  0  0  0  0  0  0  0  0  0  0
   -9.5708    2.5308   22.2404 C   0  0  0  0  0  0  0  0  0  0  0  0
  -10.1420    2.5867   23.4622 C   0  0  0  0  0  0  0  0  0  0  0  0
   -7.4981    6.0821   28.5841 C   0  0  0  0  0  0  0  0  0  0  0  0
   -8.9597    5.7673   28.8358 C   0  0  0  0  0  0  0  0  0  0  0  0
  -13.9797    3.6606   24.3019 F   0  0  0  0  0  0  0  0  0  0  0  0
  1  2  1  0
  1  4  1  0
 12 13  1  0
  4 19  1  0
  8 20  1  0
 19 20  1  0
 11 21  1  0
 13 14  2  0
 14 15  1  0
 15 16  2  0
 16 17  1  0
 17 18  2  0
 18 13  1  0
  2  3  2  0
  3  5  1  0
  6  7  1  0
  7  8  2  0
  8  2  1  0
  5  6  2  0
  6  9  1  0
  9 10  2  0
 10 11  1  0
 11 12  2  0
 12  5  1  0
M  END
$$$$
