No_7769-complexes_sdf/6BKW-FPZ/2024-09-17-14-21-01/
     RDKit          3D

 27 28  0  0  0  0  0  0  0  0999 V2000
   -7.7129    4.2099   27.0854 C   0  0  0  0  0  0  0  0  0  0  0  0
   -8.2112    3.0637   26.9225 C   0  0  0  0  0  0  0  0  0  0  0  0
   -7.5138    1.9223   27.4249 C   0  0  0  0  0  0  0  0  0  0  0  0
   -8.5309    5.4147   26.8151 C   0  0  0  0  0  0  0  0  0  0  0  0
   -9.6817    5.2393   26.1100 C   0  0  0  0  0  0  0  0  0  0  0  0
  -10.1032    3.9957   25.8534 C   0  0  0  0  0  0  0  0  0  0  0  0
   -9.4035    2.8430   26.2573 C   0  0  0  0  0  0  0  0  0  0  0  0
   -6.2445    2.0060   27.8662 N   0  0  0  0  0  0  0  0  0  0  0  0
   -7.8354    0.5699   27.0866 C   0  0  0  0  0  0  0  0  0  0  0  0
   -6.9702   -0.3894   27.5197 C   0  0  0  0  0  0  0  0  0  0  0  0
   -5.4121    1.0445   28.2256 C   0  0  0  0  0  0  0  0  0  0  0  0
   -5.7611   -0.2224   28.0807 C   0  0  0  0  0  0  0  0  0  0  0  0
   -7.9893    6.7622   27.0961 C   0  0  1  0  0  0  0  0  0  0  0  0
   -7.0649    6.8399   27.9273 O   0  0  0  0  0  0  0  0  0  0  0  0
   -8.2977    7.8742   26.4071 N   0  0  0  0  0  0  0  0  0  0  0  0
   -4.1592    1.4231   28.7515 N   0  0  0  0  0  0  0  0  0  0  0  0
  -11.3630    3.8406   25.0655 C   0  0  0  0  0  0  0  0  0  0  0  0
  -11.4683    3.9195   23.8609 O   0  0  0  0  0  0  0  0  0  0  0  0
  -12.5111    3.4820   25.7414 N   0  0  0  0  0  0  0  0  0  0  0  0
  -13.7934    3.3839   25.1179 C   0  0  0  0  0  0  0  0  0  0  0  0
  -12.5401    3.3837   27.2276 C   0  0  0  0  0  0  0  0  0  0  0  0
  -13.0450    2.3428   27.7478 C   0  0  0  0  0  0  0  0  0  0  0  0
  -12.5539    1.2151   27.6060 C   0  0  0  0  0  0  0  0  0  0  0  0
  -13.0128   -0.0472   28.2548 C   0  0  0  0  0  0  0  0  0  0  0  0
  -12.3840   -1.2982   28.0645 C   0  0  0  0  0  0  0  0  0  0  0  0
  -11.3358   -1.3112   27.1386 C   0  0  0  0  0  0  0  0  0  0  0  0
  -10.9697   -0.2631   26.4157 C   0  0  0  0  0  0  0  0  0  0  0  0
  2  3  1  0
  4 13  1  0
 13 14  1  0
 13 15  1  6
 11 16  1  0
  6 17  1  0
 17 18  2  0
 17 19  1  0
 19 20  1  0
 19 21  1  0
 21 22  2  3
 22 23  1  0
 23 24  2  3
 24 25  1  0
 25 26  2  3
 26 27  1  0
  1  2  2  0
  2  7  1  0
  7  6  2  0
  6  5  1  0
  5  4  2  0
  4  1  1  0
  3  8  2  0
  8 11  1  0
 11 12  2  0
 12 10  1  0
 10  9  2  0
  9  3  1  0
M  END
$$$$
