No_7265-complexes_sdf/6BKW-FPZ/2024-09-17-14-21-01/
     RDKit          3D

 20 22  0  0  0  0  0  0  0  0999 V2000
   -7.2496    3.8871   27.4508 C   0  0  0  0  0  0  0  0  0  0  0  0
   -7.6161    2.7143   27.1523 C   0  0  0  0  0  0  0  0  0  0  0  0
   -8.8302    2.4659   26.5056 C   0  0  0  0  0  0  0  0  0  0  0  0
   -8.1584    5.0090   27.3234 C   0  0  0  0  0  0  0  0  0  0  0  0
   -7.8138    6.3406   27.7108 C   0  0  0  0  0  0  0  0  0  0  0  0
   -9.7360    3.4989   26.3531 C   0  0  0  0  0  0  0  0  0  0  0  0
   -9.3942    4.8432   26.7521 C   0  0  0  0  0  0  0  0  0  0  0  0
   -9.1857    1.0968   26.1448 C   0  0  0  0  0  0  0  0  0  0  0  0
   -9.1439    0.7658   24.9721 C   0  0  0  0  0  0  0  0  0  0  0  0
   -9.4250   -0.5928   24.5035 C   0  0  0  0  0  0  0  0  0  0  0  0
  -10.3353    0.5566   26.8801 C   0  0  0  0  0  0  0  0  0  0  0  0
  -10.6860    0.9445   28.1320 C   0  0  0  0  0  0  0  0  0  0  0  0
  -10.8627   -0.7489   26.5209 C   0  0  0  0  0  0  0  0  0  0  0  0
  -10.5108   -1.2214   25.2318 C   0  0  0  0  0  0  0  0  0  0  0  0
   -7.9328    7.3871   27.0953 N   0  0  0  0  0  0  0  0  0  0  0  0
  -10.9694    2.3483   28.3151 C   0  0  0  0  0  0  0  0  0  0  0  0
  -12.0837    2.6808   29.3340 C   0  0  0  0  0  0  0  0  0  0  0  0
  -12.9058    1.8632   29.7753 C   0  0  0  0  0  0  0  0  0  0  0  0
  -12.7043    0.4481   29.4025 C   0  0  0  0  0  0  0  0  0  0  0  0
  -11.9742    0.0722   28.4982 C   0  0  0  0  0  0  0  0  0  0  0  0
  4  5  1  0
  3  8  1  0
 11 12  1  0
  5 15  1  0
  1  2  2  0
  2  3  1  0
  3  6  2  0
  6  7  1  0
  7  4  2  0
  4  1  1  0
 12 16  2  0
 16 17  1  0
 17 18  2  0
 18 19  1  0
 19 20  2  0
 20 12  1  0
  8  9  2  0
  9 10  1  0
 10 14  2  0
 14 13  1  0
 13 11  2  0
 11  8  1  0
M  END
$$$$
