No_7216-complexes_sdf/6BKW-FPZ/2024-09-17-14-21-01/
     RDKit          3D

 21 21  0  0  0  0  0  0  0  0999 V2000
   -7.7129    4.2099   27.0854 C   0  0  0  0  0  0  0  0  0  0  0  0
   -8.2112    3.0637   26.9225 C   0  0  0  0  0  0  0  0  0  0  0  0
   -8.4224    5.2106   27.8516 C   0  0  0  0  0  0  0  0  0  0  0  0
   -7.4917    1.9381   26.3986 C   0  0  0  0  0  0  0  0  0  0  0  0
   -7.9130    6.5729   27.8420 C   0  0  0  0  0  0  0  0  0  0  0  0
   -9.6536    2.7665   27.1018 C   0  0  0  0  0  0  0  0  0  0  0  0
  -10.4300    3.6826   27.0756 C   0  0  0  0  0  0  0  0  0  0  0  0
   -9.9361    4.9829   27.9458 C   0  0  0  0  0  0  0  0  0  0  0  0
   -7.7885    1.3726   25.3851 F   0  0  0  0  0  0  0  0  0  0  0  0
   -7.3821    0.9180   27.4606 F   0  0  0  0  0  0  0  0  0  0  0  0
   -6.2166    2.2534   26.4994 F   0  0  0  0  0  0  0  0  0  0  0  0
   -6.6686    6.7047   27.6426 N   0  0  0  0  0  0  0  0  0  0  0  0
   -8.7534    7.4779   26.8072 C   0  0  0  0  0  0  0  0  0  0  0  0
  -11.8888    3.7339   26.9378 C   0  0  1  0  0  0  0  0  0  0  0  0
  -12.6504    3.8401   25.3617 Br  0  0  0  0  0  0  0  0  0  0  0  0
  -12.7620    3.5505   28.0841 C   0  0  0  0  0  0  0  0  0  0  0  0
  -12.4097    2.8319   29.1215 C   0  0  0  0  0  0  0  0  0  0  0  0
  -13.2696    2.7469   30.2913 C   0  0  0  0  0  0  0  0  0  0  0  0
  -13.0107    2.0145   31.3490 C   0  0  0  0  0  0  0  0  0  0  0  0
  -14.5002    3.4161   30.0299 C   0  0  0  0  0  0  0  0  0  0  0  0
  -14.7313    4.0150   29.1624 C   0  0  0  0  0  0  0  0  0  0  0  0
  2  4  1  0
  3  5  1  0
  4  9  1  0
  4 10  1  0
  4 11  1  0
  5 12  2  0
  5 13  1  0
  7 14  1  0
 14 15  1  6
 14 16  1  0
 16 17  2  3
 17 18  1  0
 18 19  2  0
 18 20  1  0
 20 21  2  0
  1  2  2  0
  2  6  1  0
  6  7  2  0
  7  8  1  0
  8  3  2  0
  3  1  1  0
M  END
$$$$
