No_7593-complexes_sdf/6BKW-FPZ/2024-09-17-14-21-01/
     RDKit          3D

 27 29  0  0  0  0  0  0  0  0999 V2000
   -7.9040    3.9820   27.1177 C   0  0  0  0  0  0  0  0  0  0  0  0
   -7.8663    4.8694   27.9238 C   0  0  0  0  0  0  0  0  0  0  0  0
   -9.0491    3.8523   26.2542 C   0  0  0  0  0  0  0  0  0  0  0  0
   -8.7661    5.9491   27.9690 C   0  0  0  0  0  0  0  0  0  0  0  0
   -9.9295    4.8502   26.2323 C   0  0  0  0  0  0  0  0  0  0  0  0
   -9.8077    5.9288   27.0933 C   0  0  0  0  0  0  0  0  0  0  0  0
   -7.0120    2.8934   27.1747 N   0  0  0  0  0  0  0  0  0  0  0  0
   -7.1739    1.6450   27.5593 C   0  0  1  0  0  0  0  0  0  0  0  0
   -8.7578    0.8450   27.8158 Br  0  0  0  0  0  0  0  0  0  0  0  0
   -5.9737    0.7987   27.5714 C   0  0  0  0  0  0  0  0  0  0  0  0
   -4.8497    1.3766   28.1594 C   0  0  0  0  0  0  0  0  0  0  0  0
   -3.6852    0.5992   28.2204 C   0  0  0  0  0  0  0  0  0  0  0  0
   -3.6842   -0.7041   27.8039 C   0  0  0  0  0  0  0  0  0  0  0  0
   -4.8091   -1.2213   27.1810 C   0  0  0  0  0  0  0  0  0  0  0  0
   -5.9766   -0.4771   27.0821 C   0  0  0  0  0  0  0  0  0  0  0  0
   -9.1059    2.7528   25.2577 C   0  0  0  0  0  0  0  0  0  0  0  0
   -9.9802    2.9068   24.1627 C   0  0  0  0  0  0  0  0  0  0  0  0
  -10.2510    1.8053   23.4517 C   0  0  0  0  0  0  0  0  0  0  0  0
   -9.4956    0.5983   23.6090 C   0  0  0  0  0  0  0  0  0  0  0  0
   -8.5543    0.5313   24.6394 C   0  0  2  0  0  0  0  0  0  0  0  0
   -8.3928    1.5842   25.4610 C   0  0  2  0  0  0  0  0  0  0  0  0
   -8.6873    1.1762   26.4467 O   0  0  0  0  0  0  0  0  0  0  0  0
  -10.0764    0.3569   26.1264 C   0  0  0  0  0  0  0  0  0  0  0  0
   -7.2259    0.3650   23.8549 O   0  0  0  0  0  0  0  0  0  0  0  0
   -8.8539   -0.7483   25.3901 C   0  0  0  0  0  0  0  0  0  0  0  0
   -7.0198    2.0971   25.2008 O   0  0  0  0  0  0  0  0  0  0  0  0
   -8.2859   -0.1028   23.7667 F   0  0  0  0  0  0  0  0  0  0  0  0
  1  7  1  0
  7  8  1  0
  8  9  1  6
  8 10  1  0
  3 16  1  0
 16 17  2  3
 17 18  1  0
 18 19  2  3
 19 20  1  0
 16 21  1  0
 21 22  1  0
 22 23  1  0
 20 24  1  6
 20 25  1  0
 23 25  1  0
 21 26  1  1
 24 27  1  0
  1  2  2  0
  2  4  1  0
  4  6  2  0
  6  5  1  0
  5  3  2  0
  3  1  1  0
 10 11  2  0
 11 12  1  0
 12 13  2  0
 13 14  1  0
 14 15  2  0
 15 10  1  0
M  END
$$$$
