No_7892-complexes_sdf/6BKW-FPZ/2024-09-17-14-21-01/
     RDKit          3D

  8  8  0  0  0  0  0  0  0  0999 V2000
   -7.7129    4.2099   27.0854 C   0  0  0  0  0  0  0  0  0  0  0  0
   -7.7814    5.1722   27.8972 C   0  0  0  0  0  0  0  0  0  0  0  0
   -8.7889    3.2468   27.2220 C   0  0  0  0  0  0  0  0  0  0  0  0
   -9.8927    3.4443   27.8449 C   0  0  0  0  0  0  0  0  0  0  0  0
  -10.8361    2.4277   28.1862 C   0  0  0  0  0  0  0  0  0  0  0  0
   -8.9982    5.6862   28.4918 C   0  0  0  0  0  0  0  0  0  0  0  0
  -10.0005    4.6811   28.6207 C   0  0  0  0  0  0  0  0  0  0  0  0
  -12.0396    2.7255   28.7528 C   0  0  0  0  0  0  0  0  0  0  0  0
  1  2  1  0
  1  3  1  0
  3  4  1  0
  4  5  2  3
  2  6  1  0
  4  7  1  0
  6  7  1  0
  5  8  1  0
M  END
$$$$
