No_7867-complexes_sdf/6BKW-FPZ/2024-09-17-14-21-01/
     RDKit          3D

 40 44  0  0  0  0  0  0  0  0999 V2000
   -7.7129    4.2099   27.0854 C   0  0  0  0  0  0  0  0  0  0  0  0
   -8.2112    3.0637   26.9225 C   0  0  0  0  0  0  0  0  0  0  0  0
   -8.4224    5.2106   27.8516 C   0  0  0  0  0  0  0  0  0  0  0  0
   -9.5628    2.7160   27.4089 C   0  0  0  0  0  0  0  0  0  0  0  0
  -10.2428    3.7496   28.1155 C   0  0  0  0  0  0  0  0  0  0  0  0
   -7.8060    6.5538   27.9901 C   0  0  0  0  0  0  0  0  0  0  0  0
   -9.7056    4.9853   28.3055 C   0  0  0  0  0  0  0  0  0  0  0  0
  -10.0702    1.3726   27.2447 C   0  0  0  0  0  0  0  0  0  0  0  0
  -10.8798    1.0731   26.2573 C   0  0  0  0  0  0  0  0  0  0  0  0
  -11.3594   -0.2764   26.1198 C   0  0  0  0  0  0  0  0  0  0  0  0
  -11.0104   -1.2336   27.0998 C   0  0  0  0  0  0  0  0  0  0  0  0
  -10.2474   -0.8788   28.1870 C   0  0  0  0  0  0  0  0  0  0  0  0
   -9.7291    0.3852   28.3311 C   0  0  0  0  0  0  0  0  0  0  0  0
   -7.7550    7.2821   26.6777 C   0  0  0  0  0  0  0  0  0  0  0  0
  -11.4110    3.4568   28.6668 F   0  0  0  0  0  0  0  0  0  0  0  0
   -8.8746    7.2922   25.8858 C   0  0  0  0  0  0  0  0  0  0  0  0
   -9.9176   -1.8449   29.1175 O   0  0  0  0  0  0  0  0  0  0  0  0
  -10.8875   -2.3501   29.9597 C   0  0  0  0  0  0  0  0  0  0  0  0
  -10.3234   -2.9437   31.1118 C   0  0  0  0  0  0  0  0  0  0  0  0
  -11.2446   -3.3333   32.1704 C   0  0  0  0  0  0  0  0  0  0  0  0
  -12.6168   -3.1658   31.9365 C   0  0  0  0  0  0  0  0  0  0  0  0
  -13.0640   -2.5698   30.7834 C   0  0  0  0  0  0  0  0  0  0  0  0
  -12.1990   -2.0898   29.8418 C   0  0  0  0  0  0  0  0  0  0  0  0
  -14.5354   -2.3224   30.5845 C   0  0  0  0  0  0  0  0  0  0  0  0
  -15.2158   -1.6391   30.8862 N   0  0  0  0  0  0  0  0  0  0  0  0
  -14.8977   -0.7337   31.7805 C   0  0  0  0  0  0  0  0  0  0  0  0
  -15.9010    0.3785   32.1223 C   0  0  0  0  0  0  0  0  0  0  0  0
  -14.9624   -3.4230   29.8844 O   0  0  0  0  0  0  0  0  0  0  0  0
  -15.6106    1.2179   33.1133 C   0  0  0  0  0  0  0  0  0  0  0  0
  -14.3372    1.2270   33.8077 C   0  0  0  0  0  0  0  0  0  0  0  0
  -13.9999    2.1628   34.8458 C   0  0  0  0  0  0  0  0  0  0  0  0
  -12.7380    2.1000   35.5089 C   0  0  0  0  0  0  0  0  0  0  0  0
  -12.3362    3.0994   36.3946 C   0  0  0  0  0  0  0  0  0  0  0  0
  -13.2162    4.2387   36.5956 C   0  0  0  0  0  0  0  0  0  0  0  0
  -12.7986    5.2602   37.5005 C   0  0  0  0  0  0  0  0  0  0  0  0
  -13.5719    6.4285   37.7044 C   0  0  0  0  0  0  0  0  0  0  0  0
  -14.7630    6.5047   36.9093 C   0  0  0  0  0  0  0  0  0  0  0  0
  -15.0932    5.5505   36.0281 C   0  0  0  0  0  0  0  0  0  0  0  0
  -14.3122    4.4503   35.8062 C   0  0  0  0  0  0  0  0  0  0  0  0
  -14.6935    3.4048   34.9572 C   0  0  0  0  0  0  0  0  0  0  0  0
  3  6  1  0
  4  8  1  0
  6 14  1  0
  5 15  1  0
 14 16  1  0
 12 17  1  0
 17 18  1  0
 22 24  1  0
 24 25  1  0
 25 26  1  0
 26 27  2  3
 24 28  2  0
 27 29  1  0
 29 30  2  3
 30 31  1  0
 18 19  2  0
 19 20  1  0
 20 21  2  0
 21 22  1  0
 22 23  2  0
 23 18  1  0
  1  2  2  0
  2  4  1  0
  4  5  2  0
  5  7  1  0
  7  3  2  0
  3  1  1  0
 34 35  1  0
 35 36  2  0
 36 37  1  0
 37 38  2  0
 38 39  1  0
 31 32  2  0
 32 33  1  0
 33 34  2  0
 34 39  1  0
 39 40  2  0
 40 31  1  0
  8  9  2  0
  9 10  1  0
 10 11  2  0
 11 12  1  0
 12 13  2  0
 13  8  1  0
M  END
$$$$
