No_7200-complexes_sdf/6BKW-FPZ/2024-09-17-14-21-01/
     RDKit          3D

 18 19  0  0  0  0  0  0  0  0999 V2000
   -7.9040    3.9820   27.1177 C   0  0  0  0  0  0  0  0  0  0  0  0
   -9.0711    4.3164   27.0630 C   0  0  0  0  0  0  0  0  0  0  0  0
   -9.5294    5.4517   27.7215 C   0  0  0  0  0  0  0  0  0  0  0  0
   -7.4336    2.7132   26.5681 C   0  0  0  0  0  0  0  0  0  0  0  0
   -8.3353    1.8569   26.0442 C   0  0  0  0  0  0  0  0  0  0  0  0
   -9.6477    2.2853   25.9146 C   0  0  0  0  0  0  0  0  0  0  0  0
  -10.0346    3.4497   26.4483 C   0  0  0  0  0  0  0  0  0  0  0  0
   -7.8750    0.5509   25.5918 C   0  0  0  0  0  0  0  0  0  0  0  0
   -8.3910   -0.3457   26.0351 N   0  0  0  0  0  0  0  0  0  0  0  0
   -8.1398   -1.5850   25.9277 C   0  0  0  0  0  0  0  0  0  0  0  0
   -8.8473   -2.6051   26.6328 C   0  0  0  0  0  0  0  0  0  0  0  0
   -9.8235   -1.8266   27.3825 C   0  0  0  0  0  0  0  0  0  0  0  0
   -9.5477   -0.4278   27.0847 C   0  0  0  0  0  0  0  0  0  0  0  0
  -10.8594   -2.2528   28.2274 C   0  0  0  0  0  0  0  0  0  0  0  0
  -11.6595   -1.3557   28.7525 C   0  0  0  0  0  0  0  0  0  0  0  0
  -12.7203   -1.7123   29.5923 C   0  0  0  0  0  0  0  0  0  0  0  0
  -12.8348   -3.0356   29.8963 C   0  0  0  0  0  0  0  0  0  0  0  0
  -11.9799   -3.9517   29.3951 C   0  0  0  0  0  0  0  0  0  0  0  0
  1  2  1  0
  2  3  2  0
  1  4  1  0
  4  5  1  0
  5  6  1  0
  2  7  1  0
  6  7  1  0
  5  8  1  0
  8  9  1  0
  9 10  1  0
 10 11  2  0
 11 12  1  0
  9 13  1  0
 12 13  1  0
 12 14  1  0
 14 15  2  3
 15 16  1  0
 16 17  2  3
 17 18  1  0
M  END
$$$$
