No_724-complexes_sdf/6BKW-FPZ/2024-09-17-14-21-01/
     RDKit          3D

 32 35  0  0  0  0  0  0  0  0999 V2000
   -7.2496    3.8871   27.4508 C   0  0  0  0  0  0  0  0  0  0  0  0
   -7.9379    4.9063   27.8518 C   0  0  0  0  0  0  0  0  0  0  0  0
   -7.5112    6.1898   27.6280 C   0  0  0  0  0  0  0  0  0  0  0  0
   -7.8078    2.6331   27.2522 C   0  0  2  0  0  0  0  0  0  0  0  0
   -9.1846    2.4724   27.5426 C   0  0  0  0  0  0  0  0  0  0  0  0
   -9.9168    3.5155   28.0405 C   0  0  0  0  0  0  0  0  0  0  0  0
   -9.3366    4.7963   28.1727 C   0  0  0  0  0  0  0  0  0  0  0  0
  -11.3251    3.2741   28.4031 C   0  0  0  0  0  0  0  0  0  0  0  0
  -12.2439    3.1527   27.5432 C   0  0  0  0  0  0  0  0  0  0  0  0
  -12.2036    3.1031   26.3532 C   0  0  0  0  0  0  0  0  0  0  0  0
  -13.2869    3.1076   25.4499 C   0  0  0  0  0  0  0  0  0  0  0  0
  -13.6664    3.0389   28.1005 C   0  0  0  0  0  0  0  0  0  0  0  0
  -13.8677    2.9975   29.5588 C   0  0  0  0  0  0  0  0  0  0  0  0
  -14.7015    3.4059   27.2310 C   0  0  0  0  0  0  0  0  0  0  0  0
  -14.5280    3.3752   25.8915 C   0  0  0  0  0  0  0  0  0  0  0  0
  -13.9770    4.1902   30.2253 C   0  0  0  0  0  0  0  0  0  0  0  0
  -14.6162    1.8362   29.9954 C   0  0  0  0  0  0  0  0  0  0  0  0
   -7.0572    1.4410   26.8573 C   0  0  0  0  0  0  0  0  0  0  0  0
   -6.0013    0.9356   27.7323 C   0  0  0  0  0  0  0  0  0  0  0  0
   -5.5362   -0.0111   27.9078 C   0  0  0  0  0  0  0  0  0  0  0  0
   -4.4223   -0.1458   28.8547 C   0  0  0  0  0  0  0  0  0  0  0  0
   -3.9830    1.0555   29.4205 C   0  0  0  0  0  0  0  0  0  0  0  0
   -5.1512    2.0282   28.5239 C   0  0  0  0  0  0  0  0  0  0  0  0
   -3.7969   -1.4165   29.2906 C   0  0  0  0  0  0  0  0  0  0  0  0
   -2.8572   -1.9036   28.5347 C   0  0  0  0  0  0  0  0  0  0  0  0
  -14.7627    1.6742   31.2415 C   0  0  0  0  0  0  0  0  0  0  0  0
  -14.2189    4.0889   31.7328 C   0  0  0  0  0  0  0  0  0  0  0  0
  -14.7001    2.8496   32.2107 C   0  0  0  0  0  0  0  0  0  0  0  0
   -4.2752   -2.0622   30.4527 C   0  0  0  0  0  0  0  0  0  0  0  0
   -4.6982   -1.5368   31.4632 C   0  0  0  0  0  0  0  0  0  0  0  0
   -5.3596   -1.4040   32.2580 C   0  0  0  0  0  0  0  0  0  0  0  0
   -5.9686   -1.3562   33.4755 C   0  0  0  0  0  0  0  0  0  0  0  0
  1  2  1  0
  2  3  2  0
  1  4  1  0
  4  5  1  0
  5  6  1  0
  2  7  1  0
  6  7  1  0
  6  8  1  0
  8  9  1  0
 12 13  1  0
  4 18  1  1
 18 19  1  0
 19 20  2  0
 20 21  1  0
 21 22  2  0
 19 23  1  0
 22 23  1  0
 21 24  1  0
 24 25  1  0
 24 29  1  0
 29 30  1  0
 30 31  2  3
 31 32  1  0
  9 10  2  0
 10 11  1  0
 11 15  2  0
 15 14  1  0
 14 12  2  0
 12  9  1  0
 13 16  2  0
 16 27  1  0
 27 28  2  0
 28 26  1  0
 26 17  2  0
 17 13  1  0
M  END
$$$$
