No_7203-complexes_sdf/6BKW-FPZ/2024-09-17-14-21-01/
     RDKit          3D

 15 16  0  0  0  0  0  0  0  0999 V2000
   -7.9040    3.9820   27.1177 C   0  0  0  0  0  0  0  0  0  0  0  0
   -8.2057    2.8231   26.8733 C   0  0  0  0  0  0  0  0  0  0  0  0
   -9.2962    2.4021   26.1155 C   0  0  0  0  0  0  0  0  0  0  0  0
   -8.7358    5.0662   26.5917 C   0  0  0  0  0  0  0  0  0  0  0  0
   -9.7618    4.7023   25.7546 C   0  0  0  0  0  0  0  0  0  0  0  0
  -10.0066    3.4105   25.4922 C   0  0  0  0  0  0  0  0  0  0  0  0
   -8.4388    6.3309   26.8587 F   0  0  0  0  0  0  0  0  0  0  0  0
   -9.5336    0.9771   25.8274 C   0  0  1  0  0  0  0  0  0  0  0  0
   -8.9949    0.3689   24.9423 C   0  0  0  0  0  0  0  0  0  0  0  0
   -8.8779   -0.6450   24.4933 C   0  0  0  0  0  0  0  0  0  0  0  0
   -8.1244   -1.1415   23.2563 C   0  0  0  0  0  0  0  0  0  0  0  0
   -7.4702   -0.1309   22.5295 C   0  0  0  0  0  0  0  0  0  0  0  0
   -7.6885    1.1225   22.8941 C   0  0  0  0  0  0  0  0  0  0  0  0
   -8.3211    1.5185   23.9540 C   0  0  0  0  0  0  0  0  0  0  0  0
   -9.1023    0.4282   27.2438 C   0  0  0  0  0  0  0  0  0  0  0  0
  4  7  1  0
  3  8  1  0
  8 15  1  1
  8  9  1  0
  1  2  2  0
  2  3  1  0
  3  6  2  0
  6  5  1  0
  5  4  2  0
  4  1  1  0
  9 10  2  0
 10 11  1  0
 11 12  2  0
 12 13  1  0
 13 14  2  0
 14  9  1  0
M  END
$$$$
