No_7205-complexes_sdf/6BKW-FPZ/2024-09-17-14-21-01/
     RDKit          3D

 14 14  0  0  0  0  0  0  0  0999 V2000
   -7.7129    4.2099   27.0854 C   0  0  0  0  0  0  0  0  0  0  0  0
   -8.2112    3.0637   26.9225 C   0  0  0  0  0  0  0  0  0  0  0  0
   -7.5138    1.9223   27.4249 C   0  0  0  0  0  0  0  0  0  0  0  0
   -8.5309    5.4147   26.8151 C   0  0  0  0  0  0  0  0  0  0  0  0
   -9.6817    5.2393   26.1100 C   0  0  0  0  0  0  0  0  0  0  0  0
  -10.1032    3.9957   25.8534 C   0  0  0  0  0  0  0  0  0  0  0  0
   -9.4035    2.8430   26.2573 C   0  0  0  0  0  0  0  0  0  0  0  0
   -8.1521    0.8425   27.6629 F   0  0  0  0  0  0  0  0  0  0  0  0
   -6.7532    2.2008   28.5568 F   0  0  0  0  0  0  0  0  0  0  0  0
   -6.5182    1.5217   26.4502 F   0  0  0  0  0  0  0  0  0  0  0  0
   -7.8722    6.9567   27.1728 Cl  0  0  0  0  0  0  0  0  0  0  0  0
  -11.3451    3.8394   25.0647 C   0  0  0  0  0  0  0  0  0  0  0  0
  -12.4973    3.5833   25.6937 C   0  0  0  0  0  0  0  0  0  0  0  0
  -13.7445    3.5324   25.0099 C   0  0  0  0  0  0  0  0  0  0  0  0
  2  3  1  0
  3  8  1  0
  3  9  1  0
  3 10  1  0
  4 11  1  0
  6 12  1  0
 12 13  2  3
 13 14  1  0
  1  2  2  0
  2  7  1  0
  7  6  2  0
  6  5  1  0
  5  4  2  0
  4  1  1  0
M  END
$$$$
