No_7999-complexes_sdf/6BKW-FPZ/2024-09-17-14-21-01/
     RDKit          3D

 19 20  0  0  0  0  0  0  0  0999 V2000
   -7.9040    3.9820   27.1177 C   0  0  0  0  0  0  0  0  0  0  0  0
   -7.8663    4.8694   27.9238 C   0  0  0  0  0  0  0  0  0  0  0  0
   -7.4698    2.6989   27.4277 C   0  0  0  0  0  0  0  0  0  0  0  0
   -6.1691    2.6024   27.7920 C   0  0  0  0  0  0  0  0  0  0  0  0
   -6.4456    5.0521   28.3950 C   0  0  0  0  0  0  0  0  0  0  0  0
   -5.3282    1.5027   27.9510 C   0  0  0  0  0  0  0  0  0  0  0  0
   -5.6523    3.9209   28.4355 C   0  0  0  0  0  0  0  0  0  0  0  0
   -4.1302    1.6134   28.1444 F   0  0  0  0  0  0  0  0  0  0  0  0
   -5.9513    0.6012   28.8317 F   0  0  0  0  0  0  0  0  0  0  0  0
   -5.4327    0.7836   26.6973 F   0  0  0  0  0  0  0  0  0  0  0  0
   -9.2936    3.9159   26.3546 C   0  0  0  0  0  0  0  0  0  0  0  0
  -10.4718    3.9585   26.8229 C   0  0  0  0  0  0  0  0  0  0  0  0
  -11.1304    2.9279   27.1747 C   0  0  0  0  0  0  0  0  0  0  0  0
  -12.3002    2.9841   28.0937 C   0  0  0  0  0  0  0  0  0  0  0  0
  -12.9337    1.9113   28.7169 C   0  0  0  0  0  0  0  0  0  0  0  0
  -12.4325    0.6473   28.3377 C   0  0  0  0  0  0  0  0  0  0  0  0
  -11.3588    0.4858   27.5274 C   0  0  0  0  0  0  0  0  0  0  0  0
  -10.6935    1.5812   27.0720 C   0  0  0  0  0  0  0  0  0  0  0  0
   -9.1645    3.8339   24.8926 C   0  0  0  0  0  0  0  0  0  0  0  0
  4  6  1  0
  6  8  1  0
  6  9  1  0
  6 10  1  0
  1 11  1  0
 11 12  1  0
 12 13  1  0
 11 19  1  0
 13 14  2  0
 14 15  1  0
 15 16  2  0
 16 17  1  0
 17 18  2  0
 18 13  1  0
  1  2  2  0
  2  5  1  0
  5  7  2  0
  7  4  1  0
  4  3  2  0
  3  1  1  0
M  END
$$$$
