No_7565-complexes_sdf/6BKW-FPZ/2024-09-17-14-21-01/
     RDKit          3D

 20 23  0  0  0  0  0  0  0  0999 V2000
   -7.7129    4.2099   27.0854 C   0  0  0  0  0  0  0  0  0  0  0  0
   -7.7814    5.1722   27.8972 C   0  0  0  0  0  0  0  0  0  0  0  0
   -7.3155    2.9699   27.6145 C   0  0  0  0  0  0  0  0  0  0  0  0
   -7.6814    1.8188   26.9581 C   0  0  0  0  0  0  0  0  0  0  0  0
   -8.6377    1.9131   25.9324 C   0  0  0  0  0  0  0  0  0  0  0  0
   -9.1866    3.0673   25.6037 C   0  0  0  0  0  0  0  0  0  0  0  0
   -8.8394    4.1752   26.2513 C   0  0  2  0  0  0  0  0  0  0  0  0
   -8.2782    6.4669   27.5870 N   0  0  0  0  0  0  0  0  0  0  0  0
   -9.1782    6.6191   26.5818 C   0  0  0  0  0  0  0  0  0  0  0  0
   -9.4874    5.4604   25.8830 C   0  0  0  0  0  0  0  0  0  0  0  0
   -6.8690    0.6267   27.3689 C   0  0  1  0  0  0  0  0  0  0  0  0
   -5.5688    0.6679   27.8089 C   0  0  0  0  0  0  0  0  0  0  0  0
   -4.9209   -0.4489   28.3038 C   0  0  0  0  0  0  0  0  0  0  0  0
   -5.6171   -1.6360   28.3116 C   0  0  0  0  0  0  0  0  0  0  0  0
   -7.4275   -0.6800   27.4977 C   0  0  0  0  0  0  0  0  0  0  0  0
   -6.8807   -1.7238   27.9683 C   0  0  0  0  0  0  0  0  0  0  0  0
   -3.6506   -0.3311   28.7480 F   0  0  0  0  0  0  0  0  0  0  0  0
  -10.1444    3.0446   24.4696 C   0  0  0  0  0  0  0  0  0  0  0  0
  -11.2295    3.8975   24.4574 C   0  0  0  0  0  0  0  0  0  0  0  0
  -10.7437    5.3630   25.0355 C   0  0  0  0  0  0  0  0  0  0  0  0
  1  2  1  0
  1  3  2  0
  3  4  1  0
  4  5  2  0
  5  6  1  0
  1  7  1  0
  7  6  1  6
  2  8  2  0
  8  9  1  0
  7 10  1  0
  9 10  2  0
 11  4  1  1
 11 12  1  0
 12 13  2  0
 13 14  1  0
 11 15  1  0
 14 16  2  0
 15 16  2  0
 13 17  1  0
  6 18  1  0
 18 19  2  0
 10 20  1  0
 19 20  1  0
M  END
$$$$
