No_7614-complexes_sdf/6BKW-FPZ/2024-09-17-14-21-01/
     RDKit          3D

 38 44  0  0  0  0  0  0  0  0999 V2000
   -7.9040    3.9820   27.1177 C   0  0  0  0  0  0  0  0  0  0  0  0
   -7.8663    4.8694   27.9238 C   0  0  0  0  0  0  0  0  0  0  0  0
   -9.0953    3.1697   27.0532 C   0  0  0  0  0  0  0  0  0  0  0  0
   -9.1405    2.0104   26.1761 C   0  0  0  0  0  0  0  0  0  0  0  0
   -9.0299    5.5381   28.3948 C   0  0  0  0  0  0  0  0  0  0  0  0
  -10.2709    4.9222   28.1362 C   0  0  0  0  0  0  0  0  0  0  0  0
  -10.2487    3.7550   27.4045 C   0  0  0  0  0  0  0  0  0  0  0  0
   -8.6354    0.8334   26.7474 C   0  0  0  0  0  0  0  0  0  0  0  0
   -8.5551   -0.2362   26.3934 C   0  0  0  0  0  0  0  0  0  0  0  0
   -9.1937   -0.5214   25.1147 C   0  0  0  0  0  0  0  0  0  0  0  0
   -9.6856    1.8925   25.0055 C   0  0  0  0  0  0  0  0  0  0  0  0
   -9.6776    0.6432   24.3932 C   0  0  0  0  0  0  0  0  0  0  0  0
  -10.2003    3.0543   24.2422 C   0  0  0  0  0  0  0  0  0  0  0  0
  -10.3076    4.3543   24.7855 C   0  0  0  0  0  0  0  0  0  0  0  0
  -10.4860    2.8641   22.8576 C   0  0  0  0  0  0  0  0  0  0  0  0
  -10.9017    3.9618   22.0819 C   0  0  0  0  0  0  0  0  0  0  0  0
  -10.7249    5.3649   23.8116 C   0  0  0  0  0  0  0  0  0  0  0  0
  -10.9860    5.2131   22.5983 C   0  0  0  0  0  0  0  0  0  0  0  0
  -11.4257    3.1665   27.2687 O   0  0  0  0  0  0  0  0  0  0  0  0
  -11.9344    2.4346   28.2183 C   0  0  2  0  0  0  0  0  0  0  0  0
  -12.3142    1.0968   27.9537 C   0  0  2  0  0  0  0  0  0  0  0  0
  -13.6619    0.8613   28.0047 C   0  0  2  0  0  0  0  0  0  0  0  0
  -14.2921    1.0175   29.1367 C   0  0  0  0  0  0  0  0  0  0  0  0
  -14.0915    2.4525   29.6447 C   0  0  1  0  0  0  0  0  0  0  0  0
  -12.6779    2.9128   29.3830 C   0  0  0  0  0  0  0  0  0  0  0  0
  -13.9917   -0.6150   27.3513 C   0  0  0  0  0  0  0  0  0  0  0  0
  -13.4013   -1.5942   27.8166 C   0  0  0  0  0  0  0  0  0  0  0  0
  -11.9697   -1.5446   27.5470 C   0  0  0  0  0  0  0  0  0  0  0  0
  -11.4463   -0.1764   28.1997 C   0  0  0  0  0  0  0  0  0  0  0  0
  -15.0996    3.4014   29.1013 C   0  0  1  0  0  0  0  0  0  0  0  0
  -15.4811    4.1978   30.0003 C   0  0  2  0  0  0  0  0  0  0  0  0
  -15.5056    5.6294   29.5476 C   0  0  0  0  0  0  0  0  0  0  0  0
  -14.1835    2.3819   31.2654 C   0  0  0  0  0  0  0  0  0  0  0  0
  -14.6169    4.2068   31.3034 C   0  0  0  0  0  0  0  0  0  0  0  0
  -16.8965    3.8679   30.5480 C   0  0  0  0  0  0  0  0  0  0  0  0
  -15.3504    3.4062   27.7728 C   0  0  0  0  0  0  0  0  0  0  0  0
  -15.1910    4.7460   27.1617 C   0  0  0  0  0  0  0  0  0  0  0  0
  -15.7865    5.8441   28.0437 C   0  0  0  0  0  0  0  0  0  0  0  0
  3  4  1  0
 11 13  1  0
  7 19  1  0
 20 19  1  6
 20 21  1  0
 21 22  1  0
 22 23  1  1
 24 23  1  6
 20 25  1  0
 24 25  1  0
 22 26  1  0
 26 27  1  0
 27 28  1  0
 21 29  1  1
 28 29  1  0
 24 30  1  0
 30 31  1  0
 31 32  1  0
 24 33  1  0
 31 34  1  0
 33 34  1  0
 31 35  1  1
 30 36  1  6
 36 37  1  0
 32 38  1  0
 37 38  1  0
  1  2  2  0
  2  5  1  0
  5  6  2  0
  6  7  1  0
  7  3  2  0
  3  1  1  0
  4  8  2  0
  8  9  1  0
  9 10  2  0
 10 12  1  0
 12 11  2  0
 11  4  1  0
 13 14  2  0
 14 17  1  0
 17 18  2  0
 18 16  1  0
 16 15  2  0
 15 13  1  0
M  END
$$$$
