No_7601-complexes_sdf/6BKW-FPZ/2024-09-17-14-21-01/
     RDKit          3D

 14 15  0  0  0  0  0  0  0  0999 V2000
   -7.9040    3.9820   27.1177 C   0  0  0  0  0  0  0  0  0  0  0  0
   -7.8663    4.8694   27.9238 C   0  0  0  0  0  0  0  0  0  0  0  0
   -9.0501    3.8017   26.2617 C   0  0  0  0  0  0  0  0  0  0  0  0
  -10.0189    4.7608   26.3707 C   0  0  0  0  0  0  0  0  0  0  0  0
   -8.6973    5.9722   27.8968 C   0  0  0  0  0  0  0  0  0  0  0  0
   -9.8216    5.8946   27.1241 C   0  0  0  0  0  0  0  0  0  0  0  0
   -9.1445    2.6271   25.4265 C   0  0  0  0  0  0  0  0  0  0  0  0
   -8.6427    1.4143   25.8470 C   0  0  0  0  0  0  0  0  0  0  0  0
   -8.1604    1.2951   27.0878 C   0  0  0  0  0  0  0  0  0  0  0  0
   -7.6128    0.0412   27.4604 C   0  0  0  0  0  0  0  0  0  0  0  0
   -7.8429   -1.0491   26.7031 C   0  0  0  0  0  0  0  0  0  0  0  0
   -8.4509   -0.9118   25.4639 C   0  0  0  0  0  0  0  0  0  0  0  0
   -8.8758    0.3461   24.9985 C   0  0  0  0  0  0  0  0  0  0  0  0
   -9.7473    2.8063   24.2981 O   0  0  0  0  0  0  0  0  0  0  0  0
  3  7  1  0
  7  8  1  0
  7 14  2  0
  8  9  2  0
  9 10  1  0
 10 11  2  0
 11 12  1  0
 12 13  2  0
 13  8  1  0
  1  2  2  0
  2  5  1  0
  5  6  2  0
  6  4  1  0
  4  3  2  0
  3  1  1  0
M  END
$$$$
