No_7933-complexes_sdf/6BKW-FPZ/2024-09-17-14-21-01/
     RDKit          3D

 21 24  0  0  0  0  0  0  0  0999 V2000
   -7.2496    3.8871   27.4508 C   0  0  0  0  0  0  0  0  0  0  0  0
   -8.5096    4.0291   27.2770 C   0  0  0  0  0  0  0  0  0  0  0  0
   -9.3451    2.8786   26.9046 C   0  0  0  0  0  0  0  0  0  0  0  0
   -6.6065    2.5680   27.5073 C   0  0  0  0  0  0  0  0  0  0  0  0
   -7.4233    1.4858   27.2402 C   0  0  0  0  0  0  0  0  0  0  0  0
   -8.7362    1.6525   26.9989 C   0  0  0  0  0  0  0  0  0  0  0  0
   -8.9210    5.4790   27.2100 C   0  0  0  0  0  0  0  0  0  0  0  0
   -8.2013    6.4255   27.5038 N   0  0  0  0  0  0  0  0  0  0  0  0
   -7.0105    0.0865   27.3064 C   0  0  0  0  0  0  0  0  0  0  0  0
   -7.7589   -0.9170   27.3150 C   0  0  0  0  0  0  0  0  0  0  0  0
   -9.1882   -0.6507   27.0976 C   0  0  0  0  0  0  0  0  0  0  0  0
   -9.6784    0.5758   26.9644 C   0  0  0  0  0  0  0  0  0  0  0  0
  -10.0679    5.7035   26.6472 O   0  0  0  0  0  0  0  0  0  0  0  0
  -10.1450   -1.8387   27.1136 C   0  0  0  0  0  0  0  0  0  0  0  0
  -11.2985   -1.5626   27.4382 C   0  0  0  0  0  0  0  0  0  0  0  0
  -12.3169   -2.6050   27.4929 C   0  0  0  0  0  0  0  0  0  0  0  0
  -13.6602   -2.3086   27.8817 C   0  0  0  0  0  0  0  0  0  0  0  0
  -13.9878   -0.9824   28.2140 C   0  0  0  0  0  0  0  0  0  0  0  0
  -13.0821    0.0238   28.2228 C   0  0  0  0  0  0  0  0  0  0  0  0
  -11.7325   -0.2587   27.8904 C   0  0  0  0  0  0  0  0  0  0  0  0
  -10.8409    0.8330   27.6866 C   0  0  0  0  0  0  0  0  0  0  0  0
  2  7  1  0
  7  8  2  0
  7 13  1  0
 15 16  2  0
 16 17  1  0
 17 18  2  0
 18 19  1  0
 19 20  2  0
  1  2  2  0
  2  3  1  0
  3  6  2  0
  5  4  2  0
  4  1  1  0
 12 21  2  0
 21 20  1  0
 20 15  1  0
 15 14  1  0
 14 11  2  0
  5  6  1  0
  6 12  1  0
 12 11  1  0
 11 10  1  0
 10  9  2  0
  9  5  1  0
M  END
$$$$
