No_7728-complexes_sdf/6BKW-FPZ/2024-09-17-14-21-01/
     RDKit          3D

 36 40  0  0  0  0  0  0  0  0999 V2000
   -7.9040    3.9820   27.1177 C   0  0  0  0  0  0  0  0  0  0  0  0
   -7.8663    4.8694   27.9238 C   0  0  0  0  0  0  0  0  0  0  0  0
   -7.4698    2.6989   27.4277 C   0  0  0  0  0  0  0  0  0  0  0  0
   -7.9683    1.5964   26.8266 C   0  0  1  0  0  0  0  0  0  0  0  0
   -8.9447    1.7923   25.8533 C   0  0  0  0  0  0  0  0  0  0  0  0
   -9.4405    2.9988   25.5757 C   0  0  1  0  0  0  0  0  0  0  0  0
   -8.9424    4.1117   26.2388 C   0  0  0  0  0  0  0  0  0  0  0  0
   -8.2732    6.2141   27.6484 N   0  0  0  0  0  0  0  0  0  0  0  0
   -9.1540    6.5068   26.6734 C   0  0  0  0  0  0  0  0  0  0  0  0
   -9.5312    5.3927   25.9147 C   0  0  0  0  0  0  0  0  0  0  0  0
   -7.3887    0.2740   27.0971 C   0  0  0  0  0  0  0  0  0  0  0  0
   -8.1780   -0.7293   27.5473 C   0  0  0  0  0  0  0  0  0  0  0  0
   -6.0020    0.0628   26.9575 C   0  0  0  0  0  0  0  0  0  0  0  0
   -5.4425   -1.1698   27.0788 C   0  0  0  0  0  0  0  0  0  0  0  0
   -7.6473   -2.0021   27.8436 C   0  0  0  0  0  0  0  0  0  0  0  0
   -6.2746   -2.1975   27.6165 C   0  0  0  0  0  0  0  0  0  0  0  0
  -10.4026    3.0940   24.4671 C   0  0  0  0  0  0  0  0  0  0  0  0
  -11.4762    3.8096   24.5973 C   0  0  0  0  0  0  0  0  0  0  0  0
  -10.0963    2.4483   23.2813 C   0  0  0  0  0  0  0  0  0  0  0  0
  -12.4438    3.8400   23.5897 C   0  0  0  0  0  0  0  0  0  0  0  0
  -10.9641    2.5022   22.2235 C   0  0  0  0  0  0  0  0  0  0  0  0
  -12.1339    3.2224   22.3494 C   0  0  0  0  0  0  0  0  0  0  0  0
   -4.0099   -1.3039   26.9400 C   0  0  0  0  0  0  0  0  0  0  0  0
   -3.1783   -0.7046   27.9778 C   0  0  0  0  0  0  0  0  0  0  0  0
   -2.0171   -0.4081   27.7639 C   0  0  0  0  0  0  0  0  0  0  0  0
   -3.7967   -0.3680   29.2756 C   0  0  0  0  0  0  0  0  0  0  0  0
   -4.5175    0.2518   29.6434 C   0  0  0  0  0  0  0  0  0  0  0  0
   -3.0202   -1.2076   30.3119 C   0  0  0  0  0  0  0  0  0  0  0  0
   -1.6686   -1.5195   30.1791 C   0  0  0  0  0  0  0  0  0  0  0  0
   -1.0986   -1.1766   28.8369 C   0  0  0  0  0  0  0  0  0  0  0  0
   -5.0238    0.2630   30.9633 F   0  0  0  0  0  0  0  0  0  0  0  0
   -5.8117   -3.5071   28.0783 C   0  0  0  0  0  0  0  0  0  0  0  0
   -6.0793   -3.9697   29.0741 C   0  0  0  0  0  0  0  0  0  0  0  0
   -7.5005   -3.7621   29.5283 C   0  0  0  0  0  0  0  0  0  0  0  0
   -8.0081   -2.5794   29.2894 C   0  0  0  0  0  0  0  0  0  0  0  0
   -9.4261   -2.2890   29.6964 C   0  0  0  0  0  0  0  0  0  0  0  0
  1  3  1  0
  3  4  1  0
  4  5  1  0
  5  6  1  0
  6  7  1  0
  4 11  1  6
  6 17  1  6
 14 23  1  0
 23 24  1  0
 27 31  1  0
 16 32  1  0
 32 33  2  3
 33 34  1  0
 34 35  1  0
 35 36  2  0
 27 26  1  0
  1  2  2  0
  2  8  1  0
  8  9  2  0
  9 10  1  0
 10  7  2  0
  7  1  1  0
 17 18  2  0
 18 20  1  0
 20 22  2  0
 22 21  1  0
 21 19  2  0
 19 17  1  0
 24 25  2  0
 25 30  1  0
 30 29  2  0
 29 28  1  0
 28 26  2  0
 26 24  1  0
 11 12  2  0
 12 15  1  0
 15 16  2  0
 16 14  1  0
 14 13  2  0
 13 11  1  0
M  END
$$$$
