No_7360-complexes_sdf/6BKW-FPZ/2024-09-17-14-21-01/
     RDKit          3D

 40 44  0  0  0  0  0  0  0  0999 V2000
   -7.2496    3.8871   27.4508 C   0  0  0  0  0  0  0  0  0  0  0  0
   -7.6161    2.7143   27.1523 C   0  0  0  0  0  0  0  0  0  0  0  0
   -8.6212    2.2239   26.4073 C   0  0  0  0  0  0  0  0  0  0  0  0
   -8.2540    4.9237   27.1711 C   0  0  0  0  0  0  0  0  0  0  0  0
   -8.0299    6.2902   27.5026 C   0  0  0  0  0  0  0  0  0  0  0  0
   -9.3472    4.6891   26.3788 C   0  0  0  0  0  0  0  0  0  0  0  0
   -9.5530    3.3394   25.9925 C   0  0  0  0  0  0  0  0  0  0  0  0
   -8.8770    7.2802   27.1626 N   0  0  0  0  0  0  0  0  0  0  0  0
   -8.8880    0.9266   26.0014 C   0  0  0  0  0  0  0  0  0  0  0  0
   -8.9277    0.5955   24.9129 O   0  0  0  0  0  0  0  0  0  0  0  0
   -8.6360   -0.0223   26.8857 O   0  0  0  0  0  0  0  0  0  0  0  0
   -6.8999    6.5794   28.1448 O   0  0  0  0  0  0  0  0  0  0  0  0
   -9.1999   -1.2334   26.8777 C   0  0  0  0  0  0  0  0  0  0  0  0
   -8.8580   -2.1947   26.5484 C   0  0  0  0  0  0  0  0  0  0  0  0
  -10.6439   -1.0552   27.4743 C   0  0  0  0  0  0  0  0  0  0  0  0
  -11.4270   -2.1635   27.6193 C   0  0  0  0  0  0  0  0  0  0  0  0
   -9.6322   -3.4610   26.6345 C   0  0  0  0  0  0  0  0  0  0  0  0
  -10.9211   -3.3731   27.2342 C   0  0  0  0  0  0  0  0  0  0  0  0
  -11.1378    0.3103   27.9951 C   0  0  0  0  0  0  0  0  0  0  0  0
  -10.8683    1.4109   27.7974 C   0  0  0  0  0  0  0  0  0  0  0  0
  -11.6105    2.5537   28.4475 C   0  0  0  0  0  0  0  0  0  0  0  0
  -12.7372    2.6902   28.5562 C   0  0  0  0  0  0  0  0  0  0  0  0
  -13.4192    1.3115   28.7487 C   0  0  0  0  0  0  0  0  0  0  0  0
  -12.6818    0.1321   28.4572 C   0  0  0  0  0  0  0  0  0  0  0  0
  -13.4998    3.7803   29.1942 C   0  0  2  0  0  0  0  0  0  0  0  0
  -13.8389    3.9966   30.4648 C   0  0  0  0  0  0  0  0  0  0  0  0
  -13.3738    3.1333   31.5607 C   0  0  0  0  0  0  0  0  0  0  0  0
  -13.6334    3.4536   32.8869 C   0  0  0  0  0  0  0  0  0  0  0  0
  -14.4138    4.6369   33.1227 C   0  0  0  0  0  0  0  0  0  0  0  0
  -14.8820    5.4369   32.1194 C   0  0  0  0  0  0  0  0  0  0  0  0
  -14.5568    5.1578   30.8305 C   0  0  0  0  0  0  0  0  0  0  0  0
  -14.3486    4.4512   28.1735 C   0  0  0  0  0  0  0  0  0  0  0  0
  -15.5992    4.5284   28.0976 C   0  0  0  0  0  0  0  0  0  0  0  0
  -16.2033    5.2453   27.0411 C   0  0  0  0  0  0  0  0  0  0  0  0
  -15.3951    5.6613   25.9587 C   0  0  0  0  0  0  0  0  0  0  0  0
  -14.0203    5.3757   25.9486 C   0  0  0  0  0  0  0  0  0  0  0  0
  -13.4387    4.8122   27.0265 C   0  0  0  0  0  0  0  0  0  0  0  0
  -14.6378    4.9578   34.4189 F   0  0  0  0  0  0  0  0  0  0  0  0
  -15.9995    6.3435   24.7710 C   0  0  0  0  0  0  0  0  0  0  0  0
  -17.0755    5.7603   24.3045 F   0  0  0  0  0  0  0  0  0  0  0  0
  4  5  1  0
  5  8  1  0
  3  9  1  0
  9 10  2  0
  9 11  1  0
  5 12  2  0
 11 13  1  0
 15 19  1  0
 25 22  1  6
 25 32  1  0
 29 38  1  0
 35 39  1  0
 39 40  1  0
 25 26  1  0
 32 33  2  0
 33 34  1  0
 34 35  2  0
 35 36  1  0
 36 37  2  0
 37 32  1  0
 19 20  2  0
 20 21  1  0
 21 22  2  0
 22 23  1  0
 23 24  2  0
 24 19  1  0
 13 14  2  0
 14 17  1  0
 17 18  2  0
 18 16  1  0
 16 15  2  0
 15 13  1  0
  1  2  2  0
  2  3  1  0
  3  7  2  0
  7  6  1  0
  6  4  2  0
  4  1  1  0
 26 27  2  0
 27 28  1  0
 28 29  2  0
 29 30  1  0
 30 31  2  0
 31 26  1  0
M  END
$$$$
