No_7506-complexes_sdf/6BKW-FPZ/2024-09-17-14-21-01/
     RDKit          3D

 26 29  0  0  0  0  0  0  0  0999 V2000
   -7.2496    3.8871   27.4508 C   0  0  0  0  0  0  0  0  0  0  0  0
   -7.6161    2.7143   27.1523 C   0  0  0  0  0  0  0  0  0  0  0  0
   -8.6212    2.2239   26.4073 C   0  0  0  0  0  0  0  0  0  0  0  0
   -6.3183    4.3084   28.4558 C   0  0  0  0  0  0  0  0  0  0  0  0
   -8.8987    0.7880   26.3492 C   0  0  0  0  0  0  0  0  0  0  0  0
   -8.0067   -0.0328   26.9345 C   0  0  0  0  0  0  0  0  0  0  0  0
   -6.9608    0.3838   27.6767 C   0  0  0  0  0  0  0  0  0  0  0  0
   -6.6408    1.7370   27.8351 C   0  0  0  0  0  0  0  0  0  0  0  0
   -8.3083    4.9554   27.1100 C   0  0  2  0  0  0  0  0  0  0  0  0
   -9.3631    4.8006   26.3365 C   0  0  0  0  0  0  0  0  0  0  0  0
   -9.5276    3.3196   25.9166 C   0  0  1  0  0  0  0  0  0  0  0  0
  -10.4764    2.9865   24.8791 C   0  0  0  0  0  0  0  0  0  0  0  0
  -10.4344    3.7364   23.7339 C   0  0  0  0  0  0  0  0  0  0  0  0
  -11.3364    3.5058   22.6684 C   0  0  0  0  0  0  0  0  0  0  0  0
  -12.2461    2.5513   22.7729 C   0  0  0  0  0  0  0  0  0  0  0  0
  -11.5469    2.1027   24.9577 C   0  0  0  0  0  0  0  0  0  0  0  0
  -12.3537    1.8499   23.9293 C   0  0  0  0  0  0  0  0  0  0  0  0
   -7.9972    6.4121   27.4976 C   0  0  0  0  0  0  0  0  0  0  0  0
  -13.4107    0.8116   24.0049 C   0  0  0  0  0  0  0  0  0  0  0  0
  -14.0351    0.3799   23.2547 C   0  0  0  0  0  0  0  0  0  0  0  0
  -15.0537   -0.6629   23.4166 C   0  0  0  0  0  0  0  0  0  0  0  0
  -15.1947   -1.1488   24.6939 C   0  0  0  0  0  0  0  0  0  0  0  0
  -14.4554   -0.6823   25.7099 C   0  0  0  0  0  0  0  0  0  0  0  0
  -13.5099    0.3033   25.5112 C   0  0  0  0  0  0  0  0  0  0  0  0
  -14.6375   -1.2289   27.0877 C   0  0  0  0  0  0  0  0  0  0  0  0
  -15.4487   -1.1950   27.8006 N   0  0  0  0  0  0  0  0  0  0  0  0
  1  2  1  0
  1  4  2  0
  1  9  1  0
  9 10  1  0
  3 11  1  0
 10 11  1  0
 11 12  1  6
  9 18  1  6
 17 19  1  0
 23 25  1  0
 25 26  2  0
 12 13  2  0
 13 14  1  0
 14 15  2  0
 15 17  1  0
 17 16  2  0
 16 12  1  0
  2  3  2  0
  3  5  1  0
  5  6  2  0
  6  7  1  0
  7  8  2  0
  8  2  1  0
 19 20  2  0
 20 21  1  0
 21 22  2  0
 22 23  1  0
 23 24  2  0
 24 19  1  0
M  END
$$$$
