No_7660-complexes_sdf/6BKW-FPZ/2024-09-17-14-21-01/
     RDKit          3D

 26 27  0  0  0  0  0  0  0  0999 V2000
   -7.2496    3.8871   27.4508 C   0  0  0  0  0  0  0  0  0  0  0  0
   -8.5096    4.0291   27.2770 C   0  0  0  0  0  0  0  0  0  0  0  0
   -9.2677    5.1714   27.5773 C   0  0  0  0  0  0  0  0  0  0  0  0
   -9.2765    2.8248   26.8371 C   0  0  0  0  0  0  0  0  0  0  0  0
   -8.6731    1.7312   26.5464 C   0  0  0  0  0  0  0  0  0  0  0  0
   -6.5350    2.6522   27.3724 C   0  0  0  0  0  0  0  0  0  0  0  0
   -7.2308    1.5739   26.9609 C   0  0  0  0  0  0  0  0  0  0  0  0
   -8.5553    6.4127   27.5972 C   0  0  0  0  0  0  0  0  0  0  0  0
  -10.6394    5.1121   27.9063 C   0  0  0  0  0  0  0  0  0  0  0  0
   -6.5567    0.3140   26.7129 C   0  0  0  0  0  0  0  0  0  0  0  0
   -5.5416    0.0846   27.3498 O   0  0  0  0  0  0  0  0  0  0  0  0
   -4.7163   -0.8890   27.1418 C   0  0  0  0  0  0  0  0  0  0  0  0
   -3.4159   -0.6122   27.4620 C   0  0  0  0  0  0  0  0  0  0  0  0
   -3.0561   -0.3878   28.3817 O   0  0  0  0  0  0  0  0  0  0  0  0
   -2.4322   -0.5473   26.3682 N   0  0  0  0  0  0  0  0  0  0  0  0
   -8.2448    7.0000   26.3692 C   0  0  0  0  0  0  0  0  0  0  0  0
   -8.7737    8.1155   26.3855 C   0  0  0  0  0  0  0  0  0  0  0  0
   -9.3344    0.5614   26.0799 C   0  0  0  0  0  0  0  0  0  0  0  0
   -9.8802   -0.1943   27.0300 C   0  0  0  0  0  0  0  0  0  0  0  0
  -10.0911   -1.4514   26.9751 C   0  0  0  0  0  0  0  0  0  0  0  0
   -9.8848   -2.0441   25.8795 C   0  0  0  0  0  0  0  0  0  0  0  0
   -9.3918   -1.3446   24.7426 C   0  0  0  0  0  0  0  0  0  0  0  0
   -8.9620   -0.0239   24.8910 C   0  0  0  0  0  0  0  0  0  0  0  0
   -8.3144    0.6814   23.8164 C   0  0  0  0  0  0  0  0  0  0  0  0
   -7.8522    0.0619   22.6825 C   0  0  0  0  0  0  0  0  0  0  0  0
   -8.3675   -1.2666   22.4454 C   0  0  0  0  0  0  0  0  0  0  0  0
  2  3  1  0
  3  8  2  3
  3  9  1  0
  7 10  1  0
 10 11  1  0
 11 12  1  0
 12 13  1  0
 13 14  2  0
 13 15  1  0
  8 16  1  0
 16 17  1  0
  5 18  1  0
 23 24  1  0
 24 25  2  3
 25 26  1  0
  1  2  2  0
  2  4  1  0
  4  5  2  0
  5  7  1  0
  7  6  2  0
  6  1  1  0
 18 19  2  0
 19 20  1  0
 20 21  2  0
 21 22  1  0
 22 23  2  0
 23 18  1  0
M  END
$$$$
