No_7821-complexes_sdf/6BKW-FPZ/2024-09-17-14-21-01/
     RDKit          3D

 13 13  0  0  0  0  0  0  0  0999 V2000
   -7.7129    4.2099   27.0854 C   0  0  0  0  0  0  0  0  0  0  0  0
   -8.9133    4.4736   27.0998 C   0  0  0  0  0  0  0  0  0  0  0  0
   -9.7937    3.7367   26.2091 C   0  0  0  0  0  0  0  0  0  0  0  0
   -7.2496    2.8647   26.8496 C   0  0  0  0  0  0  0  0  0  0  0  0
   -8.1891    1.9790   26.3454 C   0  0  0  0  0  0  0  0  0  0  0  0
   -9.4252    2.4603   26.0121 C   0  0  0  0  0  0  0  0  0  0  0  0
   -9.3754    6.1887   27.2962 Cl  0  0  0  0  0  0  0  0  0  0  0  0
   -7.7649    0.5996   26.1298 C   0  0  0  0  0  0  0  0  0  0  0  0
   -7.0249   -0.0528   27.0117 N   0  0  0  0  0  0  0  0  0  0  0  0
   -6.5507    0.3225   27.9497 C   0  0  0  0  0  0  0  0  0  0  0  0
   -6.3542   -1.1850   26.4328 C   0  0  0  0  0  0  0  0  0  0  0  0
   -5.2080   -0.0936   28.3889 C   0  0  0  0  0  0  0  0  0  0  0  0
   -4.5300    0.5408   29.5412 C   0  0  0  0  0  0  0  0  0  0  0  0
  2  7  1  0
  5  8  1  0
  8  9  1  0
  9 10  1  0
  9 11  1  0
 10 12  2  3
 12 13  1  0
  1  2  2  0
  2  3  1  0
  3  6  2  0
  6  5  1  0
  5  4  2  0
  4  1  1  0
M  END
$$$$
