No_7430-complexes_sdf/6BKW-FPZ/2024-09-17-14-21-01/
     RDKit          3D

 28 31  0  0  0  0  0  0  0  0999 V2000
   -7.2496    3.8871   27.4508 C   0  0  0  0  0  0  0  0  0  0  0  0
   -7.6161    2.7143   27.1523 C   0  0  0  0  0  0  0  0  0  0  0  0
   -8.8302    2.4659   26.5056 C   0  0  0  0  0  0  0  0  0  0  0  0
   -8.1584    5.0090   27.3234 C   0  0  0  0  0  0  0  0  0  0  0  0
   -9.3788    4.7965   26.7695 C   0  0  0  0  0  0  0  0  0  0  0  0
   -9.7028    3.5649   26.3276 C   0  0  0  0  0  0  0  0  0  0  0  0
   -6.5552    1.6737   27.4428 C   0  0  0  0  0  0  0  0  0  0  0  0
   -5.2861    1.9043   27.6995 C   0  0  0  0  0  0  0  0  0  0  0  0
   -7.0040    0.2890   27.2556 C   0  0  0  0  0  0  0  0  0  0  0  0
   -6.0922   -0.7004   27.5414 C   0  0  0  0  0  0  0  0  0  0  0  0
   -4.3893    0.9155   28.0655 C   0  0  0  0  0  0  0  0  0  0  0  0
   -4.7474   -0.3977   28.0058 C   0  0  0  0  0  0  0  0  0  0  0  0
   -7.6275    6.5857   27.8581 Cl  0  0  0  0  0  0  0  0  0  0  0  0
  -10.9995    3.3513   25.6633 C   0  0  0  0  0  0  0  0  0  0  0  0
  -12.1167    3.3762   26.3519 C   0  0  0  0  0  0  0  0  0  0  0  0
  -12.1724    3.4280   27.6741 C   0  0  0  0  0  0  0  0  0  0  0  0
  -11.0003    3.2605   28.5091 C   0  0  0  0  0  0  0  0  0  0  0  0
  -13.5427    3.4905   28.3814 C   0  0  0  0  0  0  0  0  0  0  0  0
  -13.5773    3.2326   29.6889 C   0  0  0  0  0  0  0  0  0  0  0  0
  -11.3504    2.9839   30.0333 C   0  0  0  0  0  0  0  0  0  0  0  0
  -12.5000    3.0826   30.5177 C   0  0  0  0  0  0  0  0  0  0  0  0
  -10.9544    3.1260   24.2425 C   0  0  0  0  0  0  0  0  0  0  0  0
  -10.2887    3.0676   23.4930 C   0  0  0  0  0  0  0  0  0  0  0  0
  -10.2510    2.9105   22.0659 C   0  0  0  0  0  0  0  0  0  0  0  0
   -9.1890    2.7606   21.2405 C   0  0  0  0  0  0  0  0  0  0  0  0
  -11.5961    2.8538   21.5327 C   0  0  0  0  0  0  0  0  0  0  0  0
  -12.6776    2.9865   22.3501 C   0  0  0  0  0  0  0  0  0  0  0  0
  -12.4174    3.1749   23.7072 C   0  0  0  0  0  0  0  0  0  0  0  0
  2  7  1  0
  4 13  1  0
  6 14  1  0
 14 15  1  0
 14 22  1  0
 15 16  1  0
 25 24  1  0
  7  8  2  0
  8 11  1  0
 11 12  2  0
 12 10  1  0
 10  9  2  0
  9  7  1  0
  1  2  2  0
  2  3  1  0
  3  6  2  0
  6  5  1  0
  5  4  2  0
  4  1  1  0
 22 23  2  0
 23 24  1  0
 24 26  2  0
 26 27  1  0
 27 28  2  0
 28 22  1  0
 16 17  2  0
 17 20  1  0
 20 21  2  0
 21 19  1  0
 19 18  2  0
 18 16  1  0
M  END
$$$$
