No_7673-complexes_sdf/6BKW-FPZ/2024-09-17-14-21-01/
     RDKit          3D

 22 24  0  0  0  0  0  0  0  0999 V2000
   -7.9040    3.9820   27.1177 C   0  0  0  0  0  0  0  0  0  0  0  0
   -8.2057    2.8231   26.8733 C   0  0  0  0  0  0  0  0  0  0  0  0
   -7.4766    1.7477   27.4593 C   0  0  0  0  0  0  0  0  0  0  0  0
   -8.7468    5.1251   26.6967 C   0  0  0  0  0  0  0  0  0  0  0  0
   -9.7234    4.8589   25.8202 C   0  0  0  0  0  0  0  0  0  0  0  0
   -9.9711    3.5858   25.4266 C   0  0  0  0  0  0  0  0  0  0  0  0
   -9.2266    2.4957   25.9600 C   0  0  0  0  0  0  0  0  0  0  0  0
   -6.2367    1.9389   27.9276 N   0  0  0  0  0  0  0  0  0  0  0  0
   -7.9912    0.4613   27.7011 C   0  0  0  0  0  0  0  0  0  0  0  0
   -5.3141    0.8628   28.0788 C   0  0  0  0  0  0  0  0  0  0  0  0
   -5.8374   -0.3636   28.3593 C   0  0  0  0  0  0  0  0  0  0  0  0
   -7.1829   -0.5555   28.0967 C   0  0  0  0  0  0  0  0  0  0  0  0
   -8.4195    6.5155   27.0973 C   0  0  0  0  0  0  0  0  0  0  0  0
   -8.4985    7.4826   26.4395 O   0  0  0  0  0  0  0  0  0  0  0  0
   -8.0899    6.5249   28.4496 O   0  0  0  0  0  0  0  0  0  0  0  0
   -4.0313    1.2362   28.4125 N   0  0  0  0  0  0  0  0  0  0  0  0
  -11.0197    3.3317   24.4285 C   0  0  0  0  0  0  0  0  0  0  0  0
  -12.2092    3.1285   24.7033 N   0  0  0  0  0  0  0  0  0  0  0  0
  -13.2205    3.0791   23.9100 C   0  0  0  0  0  0  0  0  0  0  0  0
  -10.6570    3.4480   23.0559 C   0  0  0  0  0  0  0  0  0  0  0  0
  -11.5480    3.4039   22.0434 C   0  0  0  0  0  0  0  0  0  0  0  0
  -12.9140    3.2243   22.5180 C   0  0  0  0  0  0  0  0  0  0  0  0
  2  3  1  0
  4 13  1  0
 13 14  2  0
 13 15  1  0
 10 16  1  0
  6 17  1  0
 17 18  2  0
 18 19  1  0
 19 22  2  0
 22 21  1  0
 21 20  2  0
 20 17  1  0
  3  8  2  0
  8 10  1  0
 10 11  2  0
 11 12  1  0
 12  9  2  0
  9  3  1  0
  1  2  2  0
  2  7  1  0
  7  6  2  0
  6  5  1  0
  5  4  2  0
  4  1  1  0
M  END
$$$$
