No_7656-complexes_sdf/6BKW-FPZ/2024-09-17-14-21-01/
     RDKit          3D

 24 25  0  0  0  0  0  0  0  0999 V2000
   -7.2496    3.8871   27.4508 C   0  0  0  0  0  0  0  0  0  0  0  0
   -8.5096    4.0291   27.2770 C   0  0  0  0  0  0  0  0  0  0  0  0
   -9.2677    5.1714   27.5773 C   0  0  0  0  0  0  0  0  0  0  0  0
   -6.5550    4.9883   28.1029 C   0  0  0  0  0  0  0  0  0  0  0  0
   -8.5395    6.2425   28.0724 C   0  0  0  0  0  0  0  0  0  0  0  0
   -7.1794    6.1173   28.2629 C   0  0  0  0  0  0  0  0  0  0  0  0
   -9.2948    2.8101   26.7696 C   0  0  0  0  0  0  0  0  0  0  0  0
   -8.8951    2.3118   25.5551 C   0  0  0  0  0  0  0  0  0  0  0  0
   -9.5279    1.2443   24.9230 C   0  0  0  0  0  0  0  0  0  0  0  0
  -10.6308    0.6833   25.5657 C   0  0  0  0  0  0  0  0  0  0  0  0
  -10.3563    2.1956   27.3925 C   0  0  0  0  0  0  0  0  0  0  0  0
  -10.9918    1.1229   26.8820 C   0  0  0  0  0  0  0  0  0  0  0  0
   -9.0494    0.7642   23.3878 Cl  0  0  0  0  0  0  0  0  0  0  0  0
  -12.0936    0.4247   27.5733 C   0  0  0  0  0  0  0  0  0  0  0  0
  -12.0068    0.2866   28.6589 N   0  0  0  0  0  0  0  0  0  0  0  0
  -13.0034   -0.0721   26.8563 O   0  0  0  0  0  0  0  0  0  0  0  0
  -13.0043   -0.4084   29.6188 C   0  0  0  0  0  0  0  0  0  0  0  0
  -12.7449   -1.7673   29.8791 C   0  0  0  0  0  0  0  0  0  0  0  0
  -11.4781   -2.1919   29.6875 C   0  0  0  0  0  0  0  0  0  0  0  0
  -10.8601   -2.0459   28.5641 C   0  0  0  0  0  0  0  0  0  0  0  0
   -9.4543   -2.6267   28.4251 C   0  0  0  0  0  0  0  0  0  0  0  0
   -8.6367   -2.3316   27.2989 C   0  0  0  0  0  0  0  0  0  0  0  0
  -10.8424   -3.1947   30.6726 C   0  0  0  0  0  0  0  0  0  0  0  0
   -9.5883   -3.6817   30.5603 C   0  0  0  0  0  0  0  0  0  0  0  0
  2  7  1  0
  9 13  1  0
 12 14  1  0
 14 15  1  0
 14 16  2  0
 15 17  1  0
 17 18  1  0
 18 19  1  0
 19 20  2  3
 20 21  1  0
 21 22  2  0
 19 23  1  0
 23 24  1  0
  7  8  2  0
  8  9  1  0
  9 10  2  0
 10 12  1  0
 12 11  2  0
 11  7  1  0
  1  2  2  0
  2  3  1  0
  3  5  2  0
  5  6  1  0
  6  4  2  0
  4  1  1  0
M  END
$$$$
