No_7827-complexes_sdf/6BKW-FPZ/2024-09-17-14-21-01/
     RDKit          3D

 13 14  0  0  0  0  0  0  0  0999 V2000
   -7.2496    3.8871   27.4508 C   0  0  0  0  0  0  0  0  0  0  0  0
   -7.6161    2.7143   27.1523 C   0  0  0  0  0  0  0  0  0  0  0  0
   -6.9719    1.5838   27.5324 C   0  0  0  0  0  0  0  0  0  0  0  0
   -7.4590    0.2827   27.2615 C   0  0  0  0  0  0  0  0  0  0  0  0
   -8.6787    2.5578   26.1663 C   0  0  0  0  0  0  0  0  0  0  0  0
   -9.4717    3.6665   25.8354 C   0  0  0  0  0  0  0  0  0  0  0  0
   -8.0188    5.1137   27.1696 C   0  0  0  0  0  0  0  0  0  0  0  0
   -7.6555    6.4410   27.7373 C   0  0  0  0  0  0  0  0  0  0  0  0
   -9.1148    4.9824   26.3097 C   0  0  0  0  0  0  0  0  0  0  0  0
   -6.7295   -0.8264   27.6596 C   0  0  0  0  0  0  0  0  0  0  0  0
   -5.4865   -0.6213   28.2738 C   0  0  0  0  0  0  0  0  0  0  0  0
   -4.9162    0.6214   28.4484 C   0  0  0  0  0  0  0  0  0  0  0  0
   -5.6284    1.6683   28.0863 C   0  0  0  0  0  0  0  0  0  0  0  0
  2  3  1  0
  7  8  1  0
  3  4  2  0
  4 10  1  0
 10 11  2  0
 11 12  1  0
 12 13  2  0
 13  3  1  0
  1  2  2  0
  2  5  1  0
  5  6  2  0
  6  9  1  0
  9  7  2  0
  7  1  1  0
M  END
$$$$
