No_7432-complexes_sdf/6BKW-FPZ/2024-09-17-14-21-01/
     RDKit          3D

 19 20  0  0  0  0  0  0  0  0999 V2000
   -7.2496    3.8871   27.4508 C   0  0  0  0  0  0  0  0  0  0  0  0
   -7.9379    4.9063   27.8518 C   0  0  0  0  0  0  0  0  0  0  0  0
   -9.3460    4.8223   27.8695 C   0  0  0  0  0  0  0  0  0  0  0  0
   -7.8628    2.6163   27.1065 C   0  0  0  0  0  0  0  0  0  0  0  0
   -9.2787    2.5744   27.1970 C   0  0  0  0  0  0  0  0  0  0  0  0
  -10.0108    3.6770   27.6340 C   0  0  0  0  0  0  0  0  0  0  0  0
  -11.4855    3.5731   27.7420 C   0  0  0  0  0  0  0  0  0  0  0  0
  -11.9299    2.8562   28.8221 C   0  0  0  0  0  0  0  0  0  0  0  0
  -13.2794    2.8349   29.2460 C   0  0  0  0  0  0  0  0  0  0  0  0
  -14.1511    3.6034   28.4508 C   0  0  0  0  0  0  0  0  0  0  0  0
  -13.7255    4.3534   27.3764 C   0  0  0  0  0  0  0  0  0  0  0  0
  -12.3282    4.4505   27.0679 C   0  0  0  0  0  0  0  0  0  0  0  0
   -6.9820    1.2677   26.7325 Cl  0  0  0  0  0  0  0  0  0  0  0  0
   -7.3131    6.0847   28.0702 O   0  0  0  0  0  0  0  0  0  0  0  0
  -13.7655    1.9778   30.3360 C   0  0  0  0  0  0  0  0  0  0  0  0
  -14.0099    0.7877   30.1333 O   0  0  0  0  0  0  0  0  0  0  0  0
  -13.8862    2.5663   31.6169 O   0  0  0  0  0  0  0  0  0  0  0  0
  -14.4093    1.8810   32.6638 C   0  0  0  0  0  0  0  0  0  0  0  0
  -15.0525    1.0575   32.5206 C   0  0  0  0  0  0  0  0  0  0  0  0
  6  7  1  0
  4 13  1  0
  2 14  1  0
  9 15  1  0
 15 16  2  0
 15 17  1  0
 17 18  1  0
 18 19  2  0
  1  2  2  0
  2  3  1  0
  3  6  2  0
  6  5  1  0
  5  4  2  0
  4  1  1  0
  7  8  2  0
  8  9  1  0
  9 10  2  0
 10 11  1  0
 11 12  2  0
 12  7  1  0
M  END
$$$$
