No_7318-complexes_sdf/6BKW-FPZ/2024-09-17-14-21-01/
     RDKit          3D

 13 14  0  0  0  0  0  0  0  0999 V2000
   -7.7129    4.2099   27.0854 C   0  0  0  0  0  0  0  0  0  0  0  0
   -7.7814    5.1722   27.8972 C   0  0  0  0  0  0  0  0  0  0  0  0
   -8.8776    3.8408   26.3416 C   0  0  0  0  0  0  0  0  0  0  0  0
   -9.9844    4.6492   26.4743 C   0  0  0  0  0  0  0  0  0  0  0  0
   -8.8033    6.1375   27.8728 C   0  0  0  0  0  0  0  0  0  0  0  0
   -9.9554    5.8280   27.1736 C   0  0  0  0  0  0  0  0  0  0  0  0
   -8.8740    2.6184   25.5584 C   0  0  0  0  0  0  0  0  0  0  0  0
   -9.7040    1.6620   26.0098 C   0  0  0  0  0  0  0  0  0  0  0  0
  -10.6058    1.5778   26.6497 C   0  0  0  0  0  0  0  0  0  0  0  0
  -11.3105    0.3234   27.1394 C   0  0  0  0  0  0  0  0  0  0  0  0
  -10.7595   -0.8123   26.6501 C   0  0  0  0  0  0  0  0  0  0  0  0
   -9.2853    0.1731   25.6295 C   0  0  0  0  0  0  0  0  0  0  0  0
   -9.8179   -0.8961   25.9421 C   0  0  0  0  0  0  0  0  0  0  0  0
  3  7  1  0
  7  8  1  0
  1  2  2  0
  2  5  1  0
  5  6  2  0
  6  4  1  0
  4  3  2  0
  3  1  1  0
  8  9  2  0
  9 10  1  0
 10 11  2  0
 11 13  1  0
 13 12  2  0
 12  8  1  0
M  END
$$$$
