No_7377-complexes_sdf/6BKW-FPZ/2024-09-17-14-21-01/
     RDKit          3D

 40 43  0  0  0  0  0  0  0  0999 V2000
   -7.2496    3.8871   27.4508 C   0  0  0  0  0  0  0  0  0  0  0  0
   -7.9379    4.9063   27.8518 C   0  0  0  0  0  0  0  0  0  0  0  0
   -9.3376    4.8647   27.7795 C   0  0  0  0  0  0  0  0  0  0  0  0
   -7.8544    2.6294   27.0414 C   0  0  0  0  0  0  0  0  0  0  0  0
   -9.2665    2.6175   27.0340 C   0  0  0  0  0  0  0  0  0  0  0  0
   -9.9111    1.3868   26.6335 C   0  0  0  0  0  0  0  0  0  0  0  0
   -9.9845    3.7153   27.4660 C   0  0  0  0  0  0  0  0  0  0  0  0
   -9.4986    0.5199   25.9592 C   0  0  0  0  0  0  0  0  0  0  0  0
   -8.1526    0.8053   25.3364 C   0  0  0  0  0  0  0  0  0  0  0  0
   -7.2226    1.7403   26.2193 N   0  0  0  0  0  0  0  0  0  0  0  0
  -11.3477    3.7805   27.5293 N   0  0  0  0  0  0  0  0  0  0  0  0
  -12.3807    4.2612   27.3939 C   0  0  0  0  0  0  0  0  0  0  0  0
  -13.6684    3.9656   27.6836 C   0  0  0  0  0  0  0  0  0  0  0  0
  -14.6501    4.8733   27.3653 C   0  0  0  0  0  0  0  0  0  0  0  0
  -15.3271    5.4598   26.9065 C   0  0  0  0  0  0  0  0  0  0  0  0
  -15.6035    6.2412   25.8374 C   0  0  0  0  0  0  0  0  0  0  0  0
   -7.2694    6.0489   28.2934 N   0  0  0  0  0  0  0  0  0  0  0  0
  -16.2615    6.6338   24.8322 C   0  0  0  0  0  0  0  0  0  0  0  0
  -16.4998    6.9076   23.5682 C   0  0  0  0  0  0  0  0  0  0  0  0
  -15.6800    6.7355   22.6810 C   0  0  0  0  0  0  0  0  0  0  0  0
  -14.0569    2.9651   28.6014 C   0  0  0  0  0  0  0  0  0  0  0  0
  -13.6149    3.0768   29.8747 C   0  0  0  0  0  0  0  0  0  0  0  0
  -14.5313    3.2783   31.0112 C   0  0  0  0  0  0  0  0  0  0  0  0
  -13.9668    3.4396   32.3036 C   0  0  0  0  0  0  0  0  0  0  0  0
  -13.9694    4.1896   33.1989 C   0  0  2  0  0  0  0  0  0  0  0  0
  -14.8468    5.3371   33.2037 C   0  0  0  0  0  0  0  0  0  0  0  0
  -15.9546    5.1036   33.0817 C   0  0  0  0  0  0  0  0  0  0  0  0
  -16.4800    4.3214   32.1217 C   0  0  0  0  0  0  0  0  0  0  0  0
  -15.8616    3.7744   30.9166 C   0  0  0  0  0  0  0  0  0  0  0  0
  -12.6853    4.3328   34.0372 C   0  0  0  0  0  0  0  0  0  0  0  0
  -12.4961    3.2220   34.9697 C   0  0  0  0  0  0  0  0  0  0  0  0
  -13.1160    2.3423   35.0503 C   0  0  0  0  0  0  0  0  0  0  0  0
  -12.8667    1.1935   35.9728 C   0  0  0  0  0  0  0  0  0  0  0  0
  -12.6300    1.4960   37.2497 C   0  0  0  0  0  0  0  0  0  0  0  0
  -12.0539    2.8442   37.4339 C   0  0  0  0  0  0  0  0  0  0  0  0
  -11.9912    3.7909   36.3676 C   0  0  0  0  0  0  0  0  0  0  0  0
  -10.2718   -0.0474   24.8459 C   0  0  0  0  0  0  0  0  0  0  0  0
   -9.9773   -0.9661   24.2976 O   0  0  0  0  0  0  0  0  0  0  0  0
  -11.5598    0.4712   24.6711 N   0  0  0  0  0  0  0  0  0  0  0  0
  -12.4030    0.4038   23.9504 C   0  0  0  0  0  0  0  0  0  0  0  0
  7 11  1  0
 11 12  1  0
 12 13  2  3
 13 14  1  0
 14 15  3  0
 15 16  1  0
  2 17  1  0
 16 18  2  3
 18 19  1  0
 19 20  1  0
 13 21  1  0
 21 22  1  0
 22 23  2  3
 23 24  1  0
 24 25  1  0
 25 26  1  0
 26 27  2  0
 27 28  1  0
 23 29  1  0
 28 29  2  0
 25 30  1  6
 30 31  1  0
  8 37  1  0
 37 38  2  0
 37 39  1  0
 39 40  1  0
 31 32  2  0
 32 33  1  0
 33 34  2  0
 34 35  1  0
 35 36  2  0
 36 31  1  0
  1  2  2  0
  2  3  1  0
  3  7  2  0
  7  5  1  0
  4  1  1  0
  4  5  2  0
  5  6  1  0
  6  8  2  0
  8  9  1  0
  9 10  2  0
 10  4  1  0
M  END
$$$$
