No_7185-complexes_sdf/6BKW-FPZ/2024-09-17-14-21-01/
     RDKit          3D

 27 31  0  0  0  0  0  0  0  0999 V2000
   -7.2496    3.8871   27.4508 C   0  0  0  0  0  0  0  0  0  0  0  0
   -8.5096    4.0291   27.2770 C   0  0  0  0  0  0  0  0  0  0  0  0
   -9.2669    5.1645   27.5845 C   0  0  0  0  0  0  0  0  0  0  0  0
   -8.6549    6.1494   27.2495 C   0  0  0  0  0  0  0  0  0  0  0  0
   -7.3258    6.4654   27.5655 C   0  0  0  0  0  0  0  0  0  0  0  0
   -6.6063    5.2474   27.6124 C   0  0  0  0  0  0  0  0  0  0  0  0
   -9.2512    2.6551   27.2539 C   0  0  0  0  0  0  0  0  0  0  0  0
   -8.5322    1.5687   26.9227 C   0  0  0  0  0  0  0  0  0  0  0  0
   -7.5049    1.6502   26.2276 C   0  0  0  0  0  0  0  0  0  0  0  0
   -6.5269    2.8263   27.0130 N   0  0  0  0  0  0  0  0  0  0  0  0
  -10.6827    2.5968   27.6063 C   0  0  0  0  0  0  0  0  0  0  0  0
  -11.0967    1.4717   28.2767 C   0  0  0  0  0  0  0  0  0  0  0  0
  -12.4107    1.4357   28.6819 C   0  0  0  0  0  0  0  0  0  0  0  0
  -13.2291    2.5702   28.5899 C   0  0  0  0  0  0  0  0  0  0  0  0
  -12.7606    3.7075   28.0201 C   0  0  0  0  0  0  0  0  0  0  0  0
  -11.4479    3.7734   27.5970 C   0  0  0  0  0  0  0  0  0  0  0  0
  -10.7798    4.9875   27.5776 C   0  0  0  0  0  0  0  0  0  0  0  0
  -14.6547    2.4301   29.0274 C   0  0  0  0  0  0  0  0  0  0  0  0
  -15.4842    3.2574   28.9993 C   0  0  0  0  0  0  0  0  0  0  0  0
  -16.8471    3.1696   29.4780 C   0  0  0  0  0  0  0  0  0  0  0  0
  -17.1833    1.9399   29.9917 C   0  0  0  0  0  0  0  0  0  0  0  0
  -16.2966    0.9415   30.0797 C   0  0  0  0  0  0  0  0  0  0  0  0
  -14.9908    1.1144   29.6909 C   0  0  0  0  0  0  0  0  0  0  0  0
  -18.4769    1.7350   30.4725 O   0  0  0  0  0  0  0  0  0  0  0  0
  -18.7824    2.1871   31.6435 C   0  0  0  0  0  0  0  0  0  0  0  0
  -19.8899    2.1478   32.1756 C   0  0  0  0  0  0  0  0  0  0  0  0
  -20.2132    2.6656   33.4957 C   0  0  0  0  0  0  0  0  0  0  0  0
  7 11  1  0
  3 17  1  0
 16 17  1  0
 14 18  1  0
 21 24  1  0
 24 25  1  0
 25 26  2  3
 26 27  1  0
 18 19  2  0
 19 20  1  0
 20 21  2  0
 21 22  1  0
 22 23  2  0
 23 18  1  0
  2  3  1  0
  3  4  2  0
  4  5  1  0
  5  6  2  0
  6  1  1  0
  1  2  2  0
  2  7  1  0
  7  8  2  0
  8  9  1  0
  9 10  2  0
 10  1  1  0
 11 12  2  0
 12 13  1  0
 13 14  2  0
 14 15  1  0
 15 16  2  0
 16 11  1  0
M  END
$$$$
