No_7746-complexes_sdf/6BKW-FPZ/2024-09-17-14-21-01/
     RDKit          3D

  9  9  0  0  0  0  0  0  0  0999 V2000
   -7.2496    3.8871   27.4508 C   0  0  0  0  0  0  0  0  0  0  0  0
   -7.9379    4.9063   27.8518 C   0  0  0  0  0  0  0  0  0  0  0  0
   -9.3376    4.8647   27.7795 C   0  0  0  0  0  0  0  0  0  0  0  0
   -5.9948    3.5429   28.0894 C   0  0  0  0  0  0  0  0  0  0  0  0
  -10.0480    3.6739   27.7159 C   0  0  0  0  0  0  0  0  0  0  0  0
   -9.3013    2.5085   27.4453 C   0  0  0  0  0  0  0  0  0  0  0  0
   -7.9643    2.6559   27.3024 C   0  0  0  0  0  0  0  0  0  0  0  0
   -5.4302    2.3451   27.6465 N   0  0  0  0  0  0  0  0  0  0  0  0
   -6.1095    1.2691   27.4445 C   0  0  0  0  0  0  0  0  0  0  0  0
  1  4  1  0
  4  8  1  0
  8  9  2  0
  1  2  2  0
  2  3  1  0
  3  5  2  0
  5  6  1  0
  6  7  2  0
  7  1  1  0
M  END
$$$$
