No_7726-complexes_sdf/6BKW-FPZ/2024-09-17-14-21-01/
     RDKit          3D

 29 31  0  0  0  0  0  0  0  0999 V2000
   -7.9040    3.9820   27.1177 C   0  0  0  0  0  0  0  0  0  0  0  0
   -7.8663    4.8694   27.9238 C   0  0  0  0  0  0  0  0  0  0  0  0
   -7.4547    2.7080   27.4594 C   0  0  0  0  0  0  0  0  0  0  0  0
   -8.0927    6.2909   27.5184 C   0  0  0  0  0  0  0  0  0  0  0  0
   -9.0048    6.5903   26.4798 C   0  0  0  0  0  0  0  0  0  0  0  0
   -7.2183    1.6452   26.8744 C   0  0  0  0  0  0  0  0  0  0  0  0
   -6.6639    0.4792   27.3848 C   0  0  0  0  0  0  0  0  0  0  0  0
   -9.2453    5.4389   25.6479 C   0  0  0  0  0  0  0  0  0  0  0  0
   -8.7502    4.1243   25.9455 C   0  0  0  0  0  0  0  0  0  0  0  0
   -5.5107    0.6305   28.1551 C   0  0  0  0  0  0  0  0  0  0  0  0
   -4.8999   -0.4857   28.7912 C   0  0  0  0  0  0  0  0  0  0  0  0
   -5.3826   -1.7036   28.5120 C   0  0  0  0  0  0  0  0  0  0  0  0
   -7.0665   -0.8138   27.1052 C   0  0  0  0  0  0  0  0  0  0  0  0
   -6.4785   -1.9030   27.6953 C   0  0  0  0  0  0  0  0  0  0  0  0
   -3.8463   -0.2942   29.6101 F   0  0  0  0  0  0  0  0  0  0  0  0
   -8.2138    1.3472   25.9178 O   0  0  0  0  0  0  0  0  0  0  0  0
   -7.9440    0.5166   24.8839 C   0  0  0  0  0  0  0  0  0  0  0  0
   -9.0341    0.4515   23.9520 C   0  0  1  0  0  0  0  0  0  0  0  0
  -10.1061    1.1313   24.1317 C   0  0  0  0  0  0  0  0  0  0  0  0
  -10.7461    1.6166   23.3263 C   0  0  0  0  0  0  0  0  0  0  0  0
  -11.9215    2.5317   23.4567 C   0  0  0  0  0  0  0  0  0  0  0  0
  -12.2988    2.7721   24.7907 C   0  0  0  0  0  0  0  0  0  0  0  0
  -11.6049    2.2030   25.8431 C   0  0  0  0  0  0  0  0  0  0  0  0
  -10.5374    1.4754   25.5920 C   0  0  0  0  0  0  0  0  0  0  0  0
   -8.8978   -0.3065   22.7764 C   0  0  0  0  0  0  0  0  0  0  0  0
   -9.2684   -1.5349   22.7096 C   0  0  0  0  0  0  0  0  0  0  0  0
   -9.1841   -2.2560   21.4480 C   0  0  0  0  0  0  0  0  0  0  0  0
   -8.5401   -1.5645   20.3883 C   0  0  0  0  0  0  0  0  0  0  0  0
   -8.1973   -0.2579   20.5449 C   0  0  0  0  0  0  0  0  0  0  0  0
  1  3  1  0
  3  6  2  3
  6  7  1  0
 11 15  1  0
  6 16  1  0
 16 17  1  0
 18 17  1  6
 18 19  1  0
 18 25  1  0
 25 26  2  3
 26 27  1  0
 27 28  2  3
 28 29  1  0
  1  2  2  0
  2  4  1  0
  4  5  2  0
  5  8  1  0
  8  9  2  0
  9  1  1  0
  7 10  2  0
 10 11  1  0
 11 12  2  0
 12 14  1  0
 14 13  2  0
 13  7  1  0
 19 20  2  0
 20 21  1  0
 21 22  2  0
 22 23  1  0
 23 24  2  0
 24 19  1  0
M  END
$$$$
