No_7268-complexes_sdf/6BKW-FPZ/2024-09-17-14-21-01/
     RDKit          3D

 22 25  0  0  0  0  0  0  0  0999 V2000
   -7.9040    3.9820   27.1177 C   0  0  0  0  0  0  0  0  0  0  0  0
   -8.2057    2.8231   26.8733 C   0  0  0  0  0  0  0  0  0  0  0  0
   -7.4766    1.7477   27.4593 C   0  0  0  0  0  0  0  0  0  0  0  0
   -8.7468    5.1251   26.6967 C   0  0  0  0  0  0  0  0  0  0  0  0
   -9.7234    4.8589   25.8202 C   0  0  0  0  0  0  0  0  0  0  0  0
   -9.9711    3.5858   25.4266 C   0  0  0  0  0  0  0  0  0  0  0  0
   -9.2266    2.4957   25.9600 C   0  0  0  0  0  0  0  0  0  0  0  0
   -7.8876    0.4499   27.3622 N   0  0  0  0  0  0  0  0  0  0  0  0
   -7.0850   -0.6038   27.6283 C   0  0  0  0  0  0  0  0  0  0  0  0
   -7.6480   -1.8673   27.7513 C   0  0  0  0  0  0  0  0  0  0  0  0
   -8.4382    6.5262   27.0812 C   0  0  0  0  0  0  0  0  0  0  0  0
   -7.9354    7.5973   26.9864 N   0  0  0  0  0  0  0  0  0  0  0  0
   -6.4507    2.0044   28.1348 O   0  0  0  0  0  0  0  0  0  0  0  0
   -8.7335   -2.1726   27.3689 C   0  0  0  0  0  0  0  0  0  0  0  0
   -9.6508   -1.0251   26.9164 C   0  0  2  0  0  0  0  0  0  0  0  0
   -9.2004    0.2050   27.0561 C   0  0  2  0  0  0  0  0  0  0  0  0
   -9.7816    1.1521   25.8867 C   0  0  0  0  0  0  0  0  0  0  0  0
  -11.0874   -1.4008   26.6795 C   0  0  0  0  0  0  0  0  0  0  0  0
  -11.8192   -0.7648   26.2338 C   0  0  0  0  0  0  0  0  0  0  0  0
  -13.2456   -1.0622   25.9755 C   0  0  0  0  0  0  0  0  0  0  0  0
  -13.5399   -2.3488   26.3416 C   0  0  0  0  0  0  0  0  0  0  0  0
  -11.7897   -2.6842   27.0679 C   0  0  0  0  0  0  0  0  0  0  0  0
  2  3  1  0
  3  8  1  0
  8  9  1  0
  9 10  1  0
  4 11  1  0
 11 12  3  0
  3 13  2  0
 14 15  1  0
  8 16  1  0
 15 16  1  0
  7 17  1  0
 16 17  1  6
 15 18  1  1
 18 19  2  0
 19 20  1  0
 20 21  2  0
 18 22  1  0
 21 22  1  0
 10 14  1  0
  1  2  2  0
  2  7  1  0
  7  6  2  0
  6  5  1  0
  5  4  2  0
  4  1  1  0
M  END
$$$$
