No_736-complexes_sdf/6BKW-FPZ/2024-09-17-14-21-01/
     RDKit          3D

 35 38  0  0  0  0  0  0  0  0999 V2000
   -7.9040    3.9820   27.1177 C   0  0  0  0  0  0  0  0  0  0  0  0
   -8.2057    2.8231   26.8733 C   0  0  0  0  0  0  0  0  0  0  0  0
   -7.0130    4.3706   28.1140 C   0  0  0  0  0  0  0  0  0  0  0  0
   -9.4741    2.4344   26.3718 C   0  0  0  0  0  0  0  0  0  0  0  0
  -10.2009    3.3542   25.7490 C   0  0  0  0  0  0  0  0  0  0  0  0
   -9.8070    4.7433   25.8809 C   0  0  0  0  0  0  0  0  0  0  0  0
   -8.7506    5.0992   26.6368 C   0  0  0  0  0  0  0  0  0  0  0  0
   -7.0351    5.5798   28.6454 N   0  0  0  0  0  0  0  0  0  0  0  0
   -8.4929    6.3686   27.0928 C   0  0  0  0  0  0  0  0  0  0  0  0
   -9.0935    7.5242   26.6052 N   0  0  0  0  0  0  0  0  0  0  0  0
   -7.5218    6.5239   28.1535 C   0  0  0  0  0  0  0  0  0  0  0  0
   -7.3892    1.6476   27.4266 C   0  0  0  0  0  0  0  0  0  0  0  0
   -6.0097    1.8026   27.6066 C   0  0  0  0  0  0  0  0  0  0  0  0
   -5.2107    0.7257   28.0718 C   0  0  0  0  0  0  0  0  0  0  0  0
   -5.7895   -0.5396   28.2835 C   0  0  0  0  0  0  0  0  0  0  0  0
   -7.1576   -0.6774   28.0038 C   0  0  0  0  0  0  0  0  0  0  0  0
   -7.9211    0.3714   27.5412 C   0  0  0  0  0  0  0  0  0  0  0  0
   -3.7633    0.9495   28.3440 C   0  0  0  0  0  0  0  0  0  0  0  0
   -2.9975    1.0679   27.3897 N   0  0  0  0  0  0  0  0  0  0  0  0
   -3.3033    0.4862   29.5469 O   0  0  0  0  0  0  0  0  0  0  0  0
  -11.3435    3.0953   24.9145 C   0  0  0  0  0  0  0  0  0  0  0  0
  -11.5353    2.1379   24.4272 C   0  0  0  0  0  0  0  0  0  0  0  0
  -12.6800    1.7737   23.5172 C   0  0  0  0  0  0  0  0  0  0  0  0
  -13.5831    2.7799   23.3291 C   0  0  0  0  0  0  0  0  0  0  0  0
  -13.3718    4.0461   23.8957 C   0  0  0  0  0  0  0  0  0  0  0  0
  -12.2639    4.3029   24.7057 C   0  0  0  0  0  0  0  0  0  0  0  0
  -12.9230    0.6138   22.9485 O   0  0  0  0  0  0  0  0  0  0  0  0
  -12.8281    0.3064   21.8293 C   0  0  0  0  0  0  0  0  0  0  0  0
  -11.9957   -0.1956   21.3989 C   0  0  0  0  0  0  0  0  0  0  0  0
  -10.8758   -0.6410   22.1912 C   0  0  0  0  0  0  0  0  0  0  0  0
  -10.8333   -0.8729   23.3336 C   0  0  0  0  0  0  0  0  0  0  0  0
  -10.1683   -1.6525   24.0849 C   0  0  0  0  0  0  0  0  0  0  0  0
  -10.3756   -1.9492   25.4638 C   0  0  0  0  0  0  0  0  0  0  0  0
  -11.4528   -1.2793   26.1112 C   0  0  0  0  0  0  0  0  0  0  0  0
  -12.2711   -0.4831   25.3774 C   0  0  0  0  0  0  0  0  0  0  0  0
  9 10  1  0
  2 12  1  0
 14 18  1  0
 18 19  1  0
 18 20  2  0
  5 21  1  0
 23 27  1  0
 27 28  1  0
 28 29  2  3
 29 30  1  0
 30 31  2  3
 31 32  1  0
 32 33  2  3
 33 34  1  0
 34 35  2  0
 12 13  2  0
 13 14  1  0
 14 15  2  0
 15 16  1  0
 16 17  2  0
 17 12  1  0
  1  3  2  0
  3  8  1  0
  8 11  2  0
 11  9  1  0
  9  7  2  0
  1  2  1  0
  2  4  2  0
  4  5  1  0
  5  6  2  0
  6  7  1  0
  7  1  1  0
 21 22  2  0
 22 23  1  0
 23 24  2  0
 24 25  1  0
 25 26  2  0
 26 21  1  0
M  END
$$$$
