No_7353-complexes_sdf/6BKW-FPZ/2024-09-17-14-21-01/
     RDKit          3D

 15 16  0  0  0  0  0  0  0  0999 V2000
   -7.7129    4.2099   27.0854 C   0  0  0  0  0  0  0  0  0  0  0  0
   -8.9133    4.4736   27.0998 C   0  0  0  0  0  0  0  0  0  0  0  0
   -9.4643    5.5426   27.7628 C   0  0  0  0  0  0  0  0  0  0  0  0
   -6.8373    4.9942   27.9785 C   0  0  0  0  0  0  0  0  0  0  0  0
   -7.3717    6.0428   28.6744 C   0  0  0  0  0  0  0  0  0  0  0  0
   -8.6869    6.3937   28.5345 C   0  0  0  0  0  0  0  0  0  0  0  0
   -9.6463    3.5300   26.1468 C   0  0  0  0  0  0  0  0  0  0  0  0
   -9.5359    2.2800   26.1550 C   0  0  0  0  0  0  0  0  0  0  0  0
  -10.1136    1.4288   25.1712 C   0  0  0  0  0  0  0  0  0  0  0  0
  -10.8520    2.0229   24.1590 C   0  0  0  0  0  0  0  0  0  0  0  0
  -11.0189    3.4300   24.1479 C   0  0  0  0  0  0  0  0  0  0  0  0
  -10.4015    4.2513   25.1071 C   0  0  0  0  0  0  0  0  0  0  0  0
  -11.8320    4.0864   23.0942 C   0  0  0  0  0  0  0  0  0  0  0  0
  -12.5583    3.3271   22.4010 C   0  0  0  0  0  0  0  0  0  0  0  0
  -12.3742    1.9300   22.3439 C   0  0  0  0  0  0  0  0  0  0  0  0
  2  7  1  0
 11 13  1  0
 13 14  2  3
 14 15  1  0
  1  2  2  0
  2  3  1  0
  3  6  2  0
  6  5  1  0
  5  4  2  0
  4  1  1  0
  7  8  2  0
  8  9  1  0
  9 10  2  0
 10 11  1  0
 11 12  2  0
 12  7  1  0
M  END
$$$$
