No_7875-complexes_sdf/6BKW-FPZ/2024-09-17-14-21-01/
     RDKit          3D

 19 20  0  0  0  0  0  0  0  0999 V2000
   -7.9040    3.9820   27.1177 C   0  0  0  0  0  0  0  0  0  0  0  0
   -7.8663    4.8694   27.9238 C   0  0  0  0  0  0  0  0  0  0  0  0
   -9.0491    3.8523   26.2542 C   0  0  0  0  0  0  0  0  0  0  0  0
   -8.7661    5.9491   27.9690 C   0  0  0  0  0  0  0  0  0  0  0  0
   -9.9295    4.8502   26.2323 C   0  0  0  0  0  0  0  0  0  0  0  0
   -9.8077    5.9288   27.0933 C   0  0  0  0  0  0  0  0  0  0  0  0
   -6.8002    2.6256   27.2024 Cl  0  0  0  0  0  0  0  0  0  0  0  0
   -8.9363    2.6143   25.3326 C   0  0  0  0  0  0  0  0  0  0  0  0
   -9.9427    1.8098   25.4618 N   0  0  0  0  0  0  0  0  0  0  0  0
   -9.9698    0.6939   24.9198 C   0  0  0  0  0  0  0  0  0  0  0  0
   -9.1297    0.2357   24.2377 C   0  0  0  0  0  0  0  0  0  0  0  0
   -9.0753   -1.0157   23.6129 C   0  0  0  0  0  0  0  0  0  0  0  0
  -10.1871   -1.8299   23.7658 C   0  0  0  0  0  0  0  0  0  0  0  0
  -11.2149   -1.3849   24.5223 C   0  0  0  0  0  0  0  0  0  0  0  0
  -11.1278   -0.1694   25.1282 C   0  0  0  0  0  0  0  0  0  0  0  0
  -11.3437    2.4572   25.4544 C   0  0  0  0  0  0  0  0  0  0  0  0
  -11.9631    2.2946   26.7856 C   0  0  0  0  0  0  0  0  0  0  0  0
  -13.1496    2.8567   27.0234 C   0  0  0  0  0  0  0  0  0  0  0  0
  -13.7248    2.8013   28.3154 C   0  0  0  0  0  0  0  0  0  0  0  0
  1  7  1  0
  3  8  1  0
  8  9  1  0
  9 10  1  0
  9 16  1  0
 16 17  1  0
 17 18  2  3
 18 19  1  0
  1  2  2  0
  2  4  1  0
  4  6  2  0
  6  5  1  0
  5  3  2  0
  3  1  1  0
 10 11  2  0
 11 12  1  0
 12 13  2  0
 13 14  1  0
 14 15  2  0
 15 10  1  0
M  END
$$$$
