No_7442-complexes_sdf/6BKW-FPZ/2024-09-17-14-21-01/
     RDKit          3D

 36 40  0  0  0  0  0  0  0  0999 V2000
   -7.2496    3.8871   27.4508 C   0  0  0  0  0  0  0  0  0  0  0  0
   -7.6161    2.7143   27.1523 C   0  0  0  0  0  0  0  0  0  0  0  0
   -8.6212    2.2239   26.4073 C   0  0  0  0  0  0  0  0  0  0  0  0
   -8.2540    4.9237   27.1711 C   0  0  0  0  0  0  0  0  0  0  0  0
   -9.3729    4.5806   26.4432 C   0  0  0  0  0  0  0  0  0  0  0  0
   -9.5830    3.2968   26.1025 C   0  0  0  0  0  0  0  0  0  0  0  0
   -7.9304    6.3207   27.5389 C   0  0  0  0  0  0  0  0  0  0  0  0
   -8.9179    7.1888   27.4444 F   0  0  0  0  0  0  0  0  0  0  0  0
   -7.5135    6.3591   28.8760 F   0  0  0  0  0  0  0  0  0  0  0  0
   -6.8844    6.8084   26.8553 F   0  0  0  0  0  0  0  0  0  0  0  0
   -6.6401    1.6523   27.5323 N   0  0  0  0  0  0  0  0  0  0  0  0
   -6.8518    0.2995   27.3932 C   0  0  0  0  0  0  0  0  0  0  0  0
   -5.8701   -0.5306   27.7496 C   0  0  0  0  0  0  0  0  0  0  0  0
   -5.3564    1.8575   28.0315 C   0  0  0  0  0  0  0  0  0  0  0  0
   -4.8222    0.6056   28.2259 N   0  0  0  0  0  0  0  0  0  0  0  0
   -3.5269    0.3378   28.7471 C   0  0  0  0  0  0  0  0  0  0  0  0
   -3.4941   -0.1315   30.1136 C   0  0  0  0  0  0  0  0  0  0  0  0
   -2.6551   -1.1574   30.5280 C   0  0  0  0  0  0  0  0  0  0  0  0
   -2.5849   -1.5055   31.9129 C   0  0  0  0  0  0  0  0  0  0  0  0
   -3.2411   -0.9395   32.6672 C   0  0  0  0  0  0  0  0  0  0  0  0
   -4.1932    0.4626   31.2463 C   0  0  0  0  0  0  0  0  0  0  0  0
   -4.1565    0.0670   32.4812 C   0  0  0  0  0  0  0  0  0  0  0  0
   -2.5631    0.4328   28.0010 O   0  0  0  0  0  0  0  0  0  0  0  0
  -10.7740    2.9735   25.2980 C   0  0  0  0  0  0  0  0  0  0  0  0
  -10.6544    2.3454   24.2076 C   0  0  0  0  0  0  0  0  0  0  0  0
  -10.0526    1.3753   23.9477 C   0  0  0  0  0  0  0  0  0  0  0  0
   -9.9522    0.6413   22.6452 C   0  0  0  0  0  0  0  0  0  0  0  0
  -10.5902    1.2795   21.5825 C   0  0  0  0  0  0  0  0  0  0  0  0
  -11.2333    2.4544   21.7773 C   0  0  0  0  0  0  0  0  0  0  0  0
  -11.2918    3.0353   22.9756 C   0  0  0  0  0  0  0  0  0  0  0  0
  -11.8099    2.3365   26.2303 C   0  0  0  0  0  0  0  0  0  0  0  0
  -12.9126    3.0545   26.5499 C   0  0  0  0  0  0  0  0  0  0  0  0
  -13.9136    2.5363   27.3554 C   0  0  0  0  0  0  0  0  0  0  0  0
  -13.6567    1.2905   27.9855 C   0  0  0  0  0  0  0  0  0  0  0  0
  -12.5314    0.5506   27.7035 C   0  0  0  0  0  0  0  0  0  0  0  0
  -11.5630    1.1022   26.8560 C   0  0  0  0  0  0  0  0  0  0  0  0
  4  7  1  0
  7  8  1  0
  7  9  1  0
  7 10  1  0
  2 11  1  0
 11 12  1  0
 12 13  2  0
 11 14  1  0
 13 15  1  0
 14 15  1  0
 15 16  1  0
 16 17  1  0
 16 23  2  0
  6 24  1  0
 24 25  1  0
 24 31  1  0
 31 32  2  0
 32 33  1  0
 33 34  2  0
 34 35  1  0
 35 36  2  0
 36 31  1  0
 17 18  2  0
 18 19  1  0
 19 20  2  0
 20 22  1  0
 22 21  2  0
 21 17  1  0
  1  2  2  0
  2  3  1  0
  3  6  2  0
  6  5  1  0
  5  4  2  0
  4  1  1  0
 25 26  2  0
 26 27  1  0
 27 28  2  0
 28 29  1  0
 29 30  2  0
 30 25  1  0
M  END
$$$$
