No_7138-complexes_sdf/6BKW-FPZ/2024-09-17-14-21-01/
     RDKit          3D

 18 18  0  0  0  0  0  0  0  0999 V2000
   -7.9040    3.9820   27.1177 C   0  0  0  0  0  0  0  0  0  0  0  0
   -7.8663    4.8694   27.9238 C   0  0  0  0  0  0  0  0  0  0  0  0
   -9.0491    3.8523   26.2542 C   0  0  0  0  0  0  0  0  0  0  0  0
   -8.7661    5.9491   27.9690 C   0  0  0  0  0  0  0  0  0  0  0  0
   -9.9295    4.8502   26.2323 C   0  0  0  0  0  0  0  0  0  0  0  0
   -9.8077    5.9288   27.0933 C   0  0  0  0  0  0  0  0  0  0  0  0
   -6.9606    2.7994   27.1981 C   0  0  0  0  0  0  0  0  0  0  0  0
   -5.8227    3.0945   27.6985 F   0  0  0  0  0  0  0  0  0  0  0  0
   -7.2690    1.6428   26.8355 F   0  0  0  0  0  0  0  0  0  0  0  0
   -9.4071    2.8469   25.2704 C   0  0  2  0  0  0  0  0  0  0  0  0
   -9.5366    1.5524   25.5792 C   0  0  0  0  0  0  0  0  0  0  0  0
   -9.5215    3.2316   23.9304 C   0  0  0  0  0  0  0  0  0  0  0  0
  -10.1814    4.3865   23.5791 C   0  0  0  0  0  0  0  0  0  0  0  0
   -9.2935    0.5720   24.7039 N   0  0  0  0  0  0  0  0  0  0  0  0
   -8.8596   -0.6199   24.9748 C   0  0  0  0  0  0  0  0  0  0  0  0
   -8.3591   -1.3750   23.8754 C   0  0  0  0  0  0  0  0  0  0  0  0
   -8.6584   -1.4124   22.8532 C   0  0  0  0  0  0  0  0  0  0  0  0
   -9.3757   -0.1101   22.3368 C   0  0  0  0  0  0  0  0  0  0  0  0
  1  7  1  0
  7  8  1  0
  7  9  1  0
  3 10  1  0
 10 11  1  0
 10 12  1  6
 12 13  1  0
 11 14  2  3
 14 15  1  0
 15 16  1  0
 16 17  2  3
 17 18  1  0
  1  2  2  0
  2  4  1  0
  4  6  2  0
  6  5  1  0
  5  3  2  0
  3  1  1  0
M  END
$$$$
