No_7341-complexes_sdf/6BKW-FPZ/2024-09-17-14-21-01/
     RDKit          3D

 10 11  0  0  0  0  0  0  0  0999 V2000
   -7.2496    3.8871   27.4508 C   0  0  0  0  0  0  0  0  0  0  0  0
   -8.5096    4.0291   27.2770 C   0  0  0  0  0  0  0  0  0  0  0  0
   -9.2669    5.1645   27.5845 C   0  0  0  0  0  0  0  0  0  0  0  0
  -10.6621    5.2321   27.4284 C   0  0  0  0  0  0  0  0  0  0  0  0
   -9.2831    2.8719   26.7564 C   0  0  0  0  0  0  0  0  0  0  0  0
  -10.6359    2.9721   26.5036 C   0  0  0  0  0  0  0  0  0  0  0  0
  -11.3085    4.1735   26.8979 C   0  0  0  0  0  0  0  0  0  0  0  0
   -6.6259    2.6589   27.3231 N   0  0  0  0  0  0  0  0  0  0  0  0
   -7.2406    1.5386   26.9968 C   0  0  0  0  0  0  0  0  0  0  0  0
   -8.5821    1.6369   26.6051 C   0  0  0  0  0  0  0  0  0  0  0  0
  1  2  2  0
  5 10  2  0
 10  9  1  0
  9  8  2  0
  8  1  1  0
  2  3  1  0
  3  4  2  0
  4  7  1  0
  7  6  2  0
  6  5  1  0
  5  2  1  0
M  END
$$$$
