No_7553-complexes_sdf/6BKW-FPZ/2024-09-17-14-21-01/
     RDKit          3D

 15 16  0  0  0  0  0  0  0  0999 V2000
   -7.9040    3.9820   27.1177 C   0  0  0  0  0  0  0  0  0  0  0  0
   -9.0711    4.3164   27.0630 C   0  0  0  0  0  0  0  0  0  0  0  0
   -9.5294    5.4517   27.7215 C   0  0  0  0  0  0  0  0  0  0  0  0
   -7.4336    2.7132   26.5681 C   0  0  0  0  0  0  0  0  0  0  0  0
   -8.3353    1.8569   26.0442 C   0  0  0  0  0  0  0  0  0  0  0  0
   -9.6477    2.2853   25.9146 C   0  0  0  0  0  0  0  0  0  0  0  0
  -10.0346    3.4497   26.4483 C   0  0  0  0  0  0  0  0  0  0  0  0
   -7.8750    0.5509   25.5918 C   0  0  0  0  0  0  0  0  0  0  0  0
   -7.0299   -0.1710   26.4003 C   0  0  0  0  0  0  0  0  0  0  0  0
   -6.3304   -1.1595   25.9413 C   0  0  0  0  0  0  0  0  0  0  0  0
   -6.5329   -1.5620   24.5884 C   0  0  0  0  0  0  0  0  0  0  0  0
   -8.7632   -0.2787   24.9151 C   0  0  0  0  0  0  0  0  0  0  0  0
   -9.7885    0.2463   24.1435 C   0  0  0  0  0  0  0  0  0  0  0  0
  -10.3810    1.4571   24.9225 C   0  0  0  0  0  0  0  0  0  0  0  0
   -7.5967   -0.9470   23.7722 C   0  0  0  0  0  0  0  0  0  0  0  0
  1  2  1  0
  2  3  2  0
  1  4  1  0
  4  5  1  0
  2  7  1  0
  6  7  1  0
  8  9  1  0
  9 10  2  3
 10 11  1  0
 11 15  1  0
  5  6  2  0
  6 14  1  0
 14 13  2  0
 13 12  1  0
 12  8  2  0
  8  5  1  0
M  END
$$$$
