No_7402-complexes_sdf/6BKW-FPZ/2024-09-17-14-21-01/
     RDKit          3D

 14 14  0  0  0  0  0  0  0  0999 V2000
   -7.9040    3.9820   27.1177 C   0  0  0  0  0  0  0  0  0  0  0  0
   -8.2057    2.8231   26.8733 C   0  0  0  0  0  0  0  0  0  0  0  0
   -8.7695    5.0740   26.7916 C   0  0  0  0  0  0  0  0  0  0  0  0
   -8.4337    6.4678   27.0913 C   0  0  0  0  0  0  0  0  0  0  0  0
   -9.3742    2.4311   26.2346 C   0  0  0  0  0  0  0  0  0  0  0  0
  -10.1002    3.3176   25.9526 C   0  0  0  0  0  0  0  0  0  0  0  0
   -9.9313    4.7084   26.1486 C   0  0  0  0  0  0  0  0  0  0  0  0
   -7.8470    6.8638   28.1451 N   0  0  0  0  0  0  0  0  0  0  0  0
   -8.9860    7.4130   26.3566 O   0  0  0  0  0  0  0  0  0  0  0  0
   -7.1897    1.6930   27.2955 C   0  0  0  0  0  0  0  0  0  0  0  0
   -6.2759    2.1210   28.0583 F   0  0  0  0  0  0  0  0  0  0  0  0
   -7.3188    0.3932   26.9134 C   0  0  0  0  0  0  0  0  0  0  0  0
   -8.0273   -0.2417   26.2053 C   0  0  0  0  0  0  0  0  0  0  0  0
   -7.9126   -1.6204   25.9325 C   0  0  0  0  0  0  0  0  0  0  0  0
  3  4  1  0
  4  8  2  0
  4  9  1  0
  2 10  1  0
 10 11  1  0
 10 12  1  0
 12 13  2  3
 13 14  1  0
  1  2  2  0
  2  5  1  0
  5  6  2  0
  6  7  1  0
  7  3  2  0
  3  1  1  0
M  END
$$$$
