No_7872-complexes_sdf/6BKW-FPZ/2024-09-17-14-21-01/
     RDKit          3D

 31 35  0  0  0  0  0  0  0  0999 V2000
   -7.7129    4.2099   27.0854 C   0  0  0  0  0  0  0  0  0  0  0  0
   -8.2112    3.0637   26.9225 C   0  0  0  0  0  0  0  0  0  0  0  0
   -9.4446    2.8304   26.1868 C   0  0  0  0  0  0  0  0  0  0  0  0
   -8.4697    5.3956   26.7238 C   0  0  0  0  0  0  0  0  0  0  0  0
   -9.6172    5.2111   25.9513 C   0  0  0  0  0  0  0  0  0  0  0  0
  -10.0424    3.9782   25.6873 C   0  0  0  0  0  0  0  0  0  0  0  0
   -7.9172    6.7181   27.0124 C   0  0  0  0  0  0  0  0  0  0  0  0
   -8.4157    7.7972   26.4523 N   0  0  0  0  0  0  0  0  0  0  0  0
   -7.0176    6.7381   27.9413 O   0  0  0  0  0  0  0  0  0  0  0  0
   -7.5047    1.8012   27.3770 C   0  0  0  0  0  0  0  0  0  0  0  0
   -6.1494    1.8792   27.7428 C   0  0  0  0  0  0  0  0  0  0  0  0
   -5.4393    0.7331   28.1893 C   0  0  0  0  0  0  0  0  0  0  0  0
   -6.0986   -0.4767   28.1374 C   0  0  0  0  0  0  0  0  0  0  0  0
   -8.1817    0.5566   27.4617 C   0  0  0  0  0  0  0  0  0  0  0  0
   -9.5053    0.5028   27.1313 C   0  0  1  0  0  0  0  0  0  0  0  0
   -7.4534   -0.5464   27.8998 C   0  0  0  0  0  0  0  0  0  0  0  0
  -10.1354    1.6398   26.3888 C   0  0  0  0  0  0  0  0  0  0  0  0
   -3.9996    0.8827   28.5169 C   0  0  0  0  0  0  0  0  0  0  0  0
   -3.4917   -0.0184   29.4657 C   0  0  0  0  0  0  0  0  0  0  0  0
   -4.1088   -1.2161   29.7367 C   0  0  0  0  0  0  0  0  0  0  0  0
   -5.4913   -1.3787   29.1976 C   0  0  0  0  0  0  0  0  0  0  0  0
   -3.5738   -2.2113   30.5869 C   0  0  0  0  0  0  0  0  0  0  0  0
   -3.1031   -2.1124   31.5392 C   0  0  0  0  0  0  0  0  0  0  0  0
   -2.4454   -3.1514   32.3989 C   0  0  0  0  0  0  0  0  0  0  0  0
   -2.5379   -4.3846   31.9327 C   0  0  0  0  0  0  0  0  0  0  0  0
   -3.6475   -3.5746   30.0759 C   0  0  0  0  0  0  0  0  0  0  0  0
   -3.1417   -4.5856   30.7502 C   0  0  0  0  0  0  0  0  0  0  0  0
  -10.2192   -0.5239   27.3813 F   0  0  0  0  0  0  0  0  0  0  0  0
   -3.2821   -5.8237   30.2295 O   0  0  0  0  0  0  0  0  0  0  0  0
   -3.5437   -6.3301   29.3925 C   0  0  0  0  0  0  0  0  0  0  0  0
   -2.8943   -6.2032   28.2118 C   0  0  0  0  0  0  0  0  0  0  0  0
  4  7  1  0
  7  8  1  0
  7  9  2  0
  2 10  1  0
 14 15  1  0
  3 17  1  0
 15 17  1  0
 20 22  1  0
 15 28  1  6
 27 29  1  0
 29 30  1  0
 30 31  2  0
 10 11  2  0
 11 12  1  0
 13 16  1  0
 16 14  2  0
 14 10  1  0
  1  2  2  0
  2  3  1  0
  3  6  2  0
  6  5  1  0
  5  4  2  0
  4  1  1  0
 22 23  2  0
 23 24  1  0
 24 25  2  0
 25 27  1  0
 27 26  2  0
 26 22  1  0
 12 13  2  0
 13 21  1  0
 21 20  2  0
 20 19  1  0
 19 18  2  0
 18 12  1  0
M  END
$$$$
