No_7182-complexes_sdf/6BKW-FPZ/2024-09-17-14-21-01/
     RDKit          3D

  6  5  0  0  0  0  0  0  0  0999 V2000
   -7.9040    3.9820   27.1177 C   0  0  0  0  0  0  0  0  0  0  0  0
   -8.2057    2.8231   26.8733 C   0  0  0  0  0  0  0  0  0  0  0  0
   -8.7695    5.0740   26.7916 C   0  0  0  0  0  0  0  0  0  0  0  0
   -8.4785    6.4289   27.2922 C   0  0  0  0  0  0  0  0  0  0  0  0
   -7.4254    1.6839   27.4940 C   0  0  0  0  0  0  0  0  0  0  0  0
   -7.7461    0.3504   27.2940 C   0  0  0  0  0  0  0  0  0  0  0  0
  1  2  1  0
  1  3  1  0
  3  4  1  0
  2  5  2  3
  5  6  1  0
M  END
$$$$
