No_7114-complexes_sdf/6BKW-FPZ/2024-09-17-14-21-01/
     RDKit          3D

 38 41  0  0  0  0  0  0  0  0999 V2000
   -7.7129    4.2099   27.0854 C   0  0  0  0  0  0  0  0  0  0  0  0
   -8.2112    3.0637   26.9225 C   0  0  0  0  0  0  0  0  0  0  0  0
   -9.4446    2.8304   26.1868 C   0  0  0  0  0  0  0  0  0  0  0  0
   -8.4697    5.3956   26.7238 C   0  0  0  0  0  0  0  0  0  0  0  0
   -9.6172    5.2111   25.9513 C   0  0  0  0  0  0  0  0  0  0  0  0
  -10.0424    3.9782   25.6873 C   0  0  0  0  0  0  0  0  0  0  0  0
   -7.9172    6.7181   27.0124 C   0  0  0  0  0  0  0  0  0  0  0  0
   -7.2016    6.7379   28.0490 F   0  0  0  0  0  0  0  0  0  0  0  0
   -9.0277    7.5536   27.3596 F   0  0  0  0  0  0  0  0  0  0  0  0
   -7.5007    1.8114   27.4117 C   0  0  0  0  0  0  0  0  0  0  0  0
   -6.1103    1.8465   27.6859 C   0  0  0  0  0  0  0  0  0  0  0  0
   -5.4209    0.7168   28.1862 C   0  0  0  0  0  0  0  0  0  0  0  0
   -6.0927   -0.5053   28.1796 C   0  0  0  0  0  0  0  0  0  0  0  0
   -8.0620    0.5363   27.4105 C   0  0  0  0  0  0  0  0  0  0  0  0
   -7.4025   -0.5525   27.8583 C   0  0  0  0  0  0  0  0  0  0  0  0
   -3.9910    0.8572   28.5197 C   0  0  0  0  0  0  0  0  0  0  0  0
   -3.3476    0.1050   28.2449 O   0  0  0  0  0  0  0  0  0  0  0  0
   -3.7352    1.9469   29.2835 O   0  0  0  0  0  0  0  0  0  0  0  0
   -7.3012    7.2903   26.0496 F   0  0  0  0  0  0  0  0  0  0  0  0
  -11.2574    3.8749   24.8626 C   0  0  0  0  0  0  0  0  0  0  0  0
  -11.1230    3.5210   23.5826 C   0  0  0  0  0  0  0  0  0  0  0  0
  -12.2745    3.4138   22.7033 C   0  0  0  0  0  0  0  0  0  0  0  0
  -13.5307    3.6476   23.2808 C   0  0  0  0  0  0  0  0  0  0  0  0
  -13.6422    4.0152   24.6245 C   0  0  0  0  0  0  0  0  0  0  0  0
  -12.5335    4.1697   25.4492 C   0  0  0  0  0  0  0  0  0  0  0  0
   -8.2182   -2.0478   27.9748 Cl  0  0  0  0  0  0  0  0  0  0  0  0
  -14.9988    4.3299   25.1822 C   0  0  0  0  0  0  0  0  0  0  0  0
  -15.3129    4.0921   26.3355 F   0  0  0  0  0  0  0  0  0  0  0  0
  -15.2178    5.7292   24.9714 F   0  0  0  0  0  0  0  0  0  0  0  0
  -15.9822    3.8300   24.3124 F   0  0  0  0  0  0  0  0  0  0  0  0
  -12.1217    3.0810   21.3202 C   0  0  0  0  0  0  0  0  0  0  0  0
  -12.1948    2.1505   20.8457 C   0  0  0  0  0  0  0  0  0  0  0  0
  -11.9318    1.8879   19.4078 C   0  0  0  0  0  0  0  0  0  0  0  0
  -11.3894    2.9759   18.6773 C   0  0  0  0  0  0  0  0  0  0  0  0
  -11.1114    4.1352   19.3459 C   0  0  0  0  0  0  0  0  0  0  0  0
  -11.4061    4.3096   20.6668 C   0  0  0  0  0  0  0  0  0  0  0  0
  -12.2296    0.4689   18.5608 Cl  0  0  0  0  0  0  0  0  0  0  0  0
  -12.9044    0.6862   21.5790 Cl  0  0  0  0  0  0  0  0  0  0  0  0
  4  7  1  0
  7  8  1  0
  7  9  1  0
  2 10  1  0
 12 16  1  0
 16 17  1  0
 16 18  2  0
  7 19  1  0
  6 20  1  0
 15 26  1  0
 24 27  1  0
 27 28  1  0
 27 29  1  0
 27 30  1  0
 22 31  1  0
 33 37  1  0
 32 38  1  0
 31 32  2  0
 32 33  1  0
 33 34  2  0
 34 35  1  0
 35 36  2  0
 36 31  1  0
  1  2  2  0
  2  3  1  0
  3  6  2  0
  6  5  1  0
  5  4  2  0
  4  1  1  0
 10 11  2  0
 11 12  1  0
 12 13  2  0
 13 15  1  0
 15 14  2  0
 14 10  1  0
 20 21  2  0
 21 22  1  0
 22 23  2  0
 23 24  1  0
 24 25  2  0
 25 20  1  0
M  END
$$$$
