No_7330-complexes_sdf/6BKW-FPZ/2024-09-17-14-21-01/
     RDKit          3D

 18 19  0  0  0  0  0  0  0  0999 V2000
   -7.9040    3.9820   27.1177 C   0  0  0  0  0  0  0  0  0  0  0  0
   -8.2057    2.8231   26.8733 C   0  0  0  0  0  0  0  0  0  0  0  0
   -7.4766    1.7477   27.4593 C   0  0  0  0  0  0  0  0  0  0  0  0
   -8.7468    5.1251   26.6967 C   0  0  0  0  0  0  0  0  0  0  0  0
   -9.6471    4.9075   26.0510 C   0  0  0  0  0  0  0  0  0  0  0  0
  -10.0309    3.6580   25.5399 C   0  0  0  0  0  0  0  0  0  0  0  0
   -9.2845    2.5302   26.0222 C   0  0  0  0  0  0  0  0  0  0  0  0
   -6.6958    0.8774   26.7291 C   0  0  0  0  0  0  0  0  0  0  0  0
   -6.5849   -0.1546   27.2346 C   0  0  2  0  0  0  0  0  0  0  0  0
   -5.3945   -0.8652   27.1416 C   0  0  0  0  0  0  0  0  0  0  0  0
   -4.5565   -0.9188   27.9481 C   0  0  0  0  0  0  0  0  0  0  0  0
   -4.9708   -0.7761   29.4034 C   0  0  0  0  0  0  0  0  0  0  0  0
   -6.2360   -1.0373   29.6844 C   0  0  0  0  0  0  0  0  0  0  0  0
   -7.6549   -0.9790   27.7485 C   0  0  0  0  0  0  0  0  0  0  0  0
   -7.4141   -1.1160   29.2441 C   0  0  0  0  0  0  0  0  0  0  0  0
   -8.3318    6.5303   27.1714 C   0  0  0  0  0  0  0  0  0  0  0  0
   -7.4494    6.6861   28.0251 O   0  0  0  0  0  0  0  0  0  0  0  0
   -8.7911    7.5956   26.5785 O   0  0  0  0  0  0  0  0  0  0  0  0
  2  3  1  0
  3  8  1  0
  9  8  1  6
  9 10  1  0
 10 11  2  0
 11 12  1  0
 12 13  2  0
  9 14  1  0
 13 15  1  0
 14 15  1  0
  4 16  1  0
 16 17  2  0
 16 18  1  0
  1  2  2  0
  2  7  1  0
  7  6  2  0
  6  5  1  0
  5  4  2  0
  4  1  1  0
M  END
$$$$
