No_7962-complexes_sdf/6BKW-FPZ/2024-09-17-14-21-01/
     RDKit          3D

 23 26  0  0  0  0  0  0  0  0999 V2000
   -7.2496    3.8871   27.4508 C   0  0  0  0  0  0  0  0  0  0  0  0
   -7.9379    4.9063   27.8518 C   0  0  0  0  0  0  0  0  0  0  0  0
   -9.3376    4.8647   27.7795 C   0  0  0  0  0  0  0  0  0  0  0  0
   -7.8544    2.6294   27.0414 C   0  0  0  0  0  0  0  0  0  0  0  0
   -9.2852    2.6570   27.0666 C   0  0  0  0  0  0  0  0  0  0  0  0
  -10.0126    3.7528   27.4890 C   0  0  0  0  0  0  0  0  0  0  0  0
   -9.9609    1.3640   26.7239 C   0  0  0  0  0  0  0  0  0  0  0  0
  -10.7586    0.8639   27.5578 C   0  0  0  0  0  0  0  0  0  0  0  0
  -11.2814   -0.4340   27.5091 C   0  0  0  0  0  0  0  0  0  0  0  0
  -10.9059   -1.1595   26.4078 C   0  0  0  0  0  0  0  0  0  0  0  0
   -9.4071    0.5835   25.6899 C   0  0  0  0  0  0  0  0  0  0  0  0
   -8.5073    1.1748   24.6984 C   0  0  0  0  0  0  0  0  0  0  0  0
   -9.9911   -0.6778   25.4897 C   0  0  0  0  0  0  0  0  0  0  0  0
   -7.3296    6.0396   28.1714 F   0  0  0  0  0  0  0  0  0  0  0  0
   -8.9922    1.0019   23.3729 C   0  0  0  0  0  0  0  0  0  0  0  0
   -9.1000    1.9999   22.4600 C   0  0  0  0  0  0  0  0  0  0  0  0
   -9.6508    1.7487   21.1453 C   0  0  0  0  0  0  0  0  0  0  0  0
   -9.9823    0.4719   20.7768 C   0  0  0  0  0  0  0  0  0  0  0  0
   -9.8267   -0.5773   21.6843 C   0  0  0  0  0  0  0  0  0  0  0  0
   -9.3330   -0.3357   22.9969 C   0  0  0  0  0  0  0  0  0  0  0  0
   -9.9182   -1.2029   24.0793 C   0  0  0  0  0  0  0  0  0  0  0  0
  -10.1866   -2.3672   23.8450 F   0  0  0  0  0  0  0  0  0  0  0  0
  -11.2987    3.6896   27.5705 F   0  0  0  0  0  0  0  0  0  0  0  0
  5  7  1  0
  2 14  1  0
 21 22  1  0
  6 23  1  0
 15 16  2  0
 16 17  1  0
 17 18  2  0
 18 19  1  0
 19 20  2  0
 11 12  2  0
 12 15  1  0
 15 20  1  0
 20 21  1  0
 21 13  2  0
  1  2  2  0
  2  3  1  0
  3  6  2  0
  6  5  1  0
  5  4  2  0
  4  1  1  0
  7  8  2  0
  8  9  1  0
  9 10  2  0
 10 13  1  0
 13 11  1  0
 11  7  1  0
M  END
$$$$
