No_7529-complexes_sdf/6BKW-FPZ/2024-09-17-14-21-01/
     RDKit          3D

 18 18  0  0  0  0  0  0  0  0999 V2000
   -7.7129    4.2099   27.0854 C   0  0  0  0  0  0  0  0  0  0  0  0
   -8.2112    3.0637   26.9225 C   0  0  0  0  0  0  0  0  0  0  0  0
   -8.5108    5.3904   26.9436 C   0  0  0  0  0  0  0  0  0  0  0  0
   -7.9752    6.6981   27.2112 C   0  0  0  0  0  0  0  0  0  0  0  0
   -9.5213    2.8208   26.4688 C   0  0  0  0  0  0  0  0  0  0  0  0
  -10.2979    3.9327   26.2378 C   0  0  0  0  0  0  0  0  0  0  0  0
   -9.7894    5.2123   26.4395 C   0  0  0  0  0  0  0  0  0  0  0  0
   -7.4103    1.9359   27.1791 F   0  0  0  0  0  0  0  0  0  0  0  0
   -8.6508    7.7893   26.8104 N   0  0  0  0  0  0  0  0  0  0  0  0
   -6.8464    6.7834   27.7893 O   0  0  0  0  0  0  0  0  0  0  0  0
   -9.9669    1.4289   26.2589 C   0  0  0  0  0  0  0  0  0  0  0  0
  -10.5233    0.7517   27.2440 C   0  0  0  0  0  0  0  0  0  0  0  0
  -11.3268    1.4010   28.1978 C   0  0  0  0  0  0  0  0  0  0  0  0
  -10.3878   -0.6898   27.4526 C   0  0  0  0  0  0  0  0  0  0  0  0
  -11.0736   -1.4496   27.0508 C   0  0  0  0  0  0  0  0  0  0  0  0
  -12.3807    0.5563   28.8748 C   0  0  0  0  0  0  0  0  0  0  0  0
  -10.6464   -2.8312   26.9916 C   0  0  0  0  0  0  0  0  0  0  0  0
   -9.4316   -3.1377   27.5020 C   0  0  0  0  0  0  0  0  0  0  0  0
  3  4  1  0
  2  8  1  0
  4  9  1  0
  4 10  2  0
  5 11  1  0
 11 12  1  0
 12 13  1  0
 12 14  1  0
 14 15  2  3
 13 16  1  0
 15 17  1  0
 17 18  2  0
  1  2  2  0
  2  5  1  0
  5  6  2  0
  6  7  1  0
  7  3  2  0
  3  1  1  0
M  END
$$$$
