No_7637-complexes_sdf/6BKW-FPZ/2024-09-17-14-21-01/
     RDKit          3D

 17 18  0  0  0  0  0  0  0  0999 V2000
   -7.9040    3.9820   27.1177 C   0  0  0  0  0  0  0  0  0  0  0  0
   -9.0711    4.3164   27.0630 C   0  0  0  0  0  0  0  0  0  0  0  0
   -9.9692    3.7224   26.1073 C   0  0  0  0  0  0  0  0  0  0  0  0
   -7.4776    2.6994   26.6283 C   0  0  0  0  0  0  0  0  0  0  0  0
   -8.4406    1.9440   25.9776 C   0  0  0  0  0  0  0  0  0  0  0  0
   -9.6379    2.5001   25.6881 C   0  0  0  0  0  0  0  0  0  0  0  0
   -7.0137    4.6011   27.9177 F   0  0  0  0  0  0  0  0  0  0  0  0
  -10.6139    1.7222   24.8408 C   0  0  0  0  0  0  0  0  0  0  0  0
  -11.3973    0.8837   25.2760 C   0  0  0  0  0  0  0  0  0  0  0  0
  -10.6004    2.0419   23.4283 C   0  0  0  0  0  0  0  0  0  0  0  0
  -11.4202    1.3247   22.5447 C   0  0  0  0  0  0  0  0  0  0  0  0
  -12.3025    0.1249   24.4461 C   0  0  0  0  0  0  0  0  0  0  0  0
  -12.2894    0.4104   23.0615 C   0  0  0  0  0  0  0  0  0  0  0  0
   -9.4727    5.7612   27.5097 C   0  0  0  0  0  0  0  0  0  0  0  0
  -13.3658   -1.0303   25.0103 Cl  0  0  0  0  0  0  0  0  0  0  0  0
   -8.6063    6.7249   27.6894 N   0  0  0  0  0  0  0  0  0  0  0  0
   -7.3321    6.5373   27.2668 C   0  0  0  0  0  0  0  0  0  0  0  0
  1  7  1  0
  6  8  1  0
  2 14  1  0
 12 15  1  0
 14 16  1  0
 16 17  1  0
  1  2  2  0
  2  3  1  0
  3  6  2  0
  6  5  1  0
  5  4  2  0
  4  1  1  0
  8  9  2  0
  9 12  1  0
 12 13  2  0
 13 11  1  0
 11 10  2  0
 10  8  1  0
M  END
$$$$
