No_7236-complexes_sdf/6BKW-FPZ/2024-09-17-14-21-01/
     RDKit          3D

 32 36  0  0  0  0  0  0  0  0999 V2000
   -7.9040    3.9820   27.1177 C   0  0  0  0  0  0  0  0  0  0  0  0
   -7.8663    4.8694   27.9238 C   0  0  0  0  0  0  0  0  0  0  0  0
   -7.4698    2.6989   27.4277 C   0  0  0  0  0  0  0  0  0  0  0  0
   -6.1691    2.6024   27.7920 C   0  0  0  0  0  0  0  0  0  0  0  0
   -8.5251    6.1376   27.6596 C   0  0  0  0  0  0  0  0  0  0  0  0
   -8.9050    4.1209   26.0890 C   0  0  0  0  0  0  0  0  0  0  0  0
   -9.5368    5.3333   25.8064 C   0  0  0  0  0  0  0  0  0  0  0  0
   -9.3004    6.4089   26.6607 C   0  0  0  0  0  0  0  0  0  0  0  0
   -5.4865    1.3254   27.9983 C   0  0  0  0  0  0  0  0  0  0  0  0
   -6.2028    0.1582   27.8377 C   0  0  0  0  0  0  0  0  0  0  0  0
   -8.1076    1.4872   27.1217 C   0  0  0  0  0  0  0  0  0  0  0  0
   -9.4561    1.5338   26.7062 C   0  0  1  0  0  0  0  0  0  0  0  0
   -7.5129    0.2469   27.3724 C   0  0  0  0  0  0  0  0  0  0  0  0
   -9.8620    1.1882   25.4468 C   0  0  0  0  0  0  0  0  0  0  0  0
  -10.4222    0.0948   25.2848 C   0  0  0  0  0  0  0  0  0  0  0  0
  -10.8431   -0.3925   23.9452 C   0  0  0  0  0  0  0  0  0  0  0  0
  -10.4873    0.4129   22.8396 C   0  0  0  0  0  0  0  0  0  0  0  0
   -9.7623    1.6281   23.0143 C   0  0  0  0  0  0  0  0  0  0  0  0
   -9.4134    2.0402   24.3020 C   0  0  0  0  0  0  0  0  0  0  0  0
  -10.5554    1.8035   27.6567 C   0  0  0  0  0  0  0  0  0  0  0  0
   -4.0875    1.3093   28.4905 C   0  0  0  0  0  0  0  0  0  0  0  0
   -3.7479    0.5754   29.4134 O   0  0  0  0  0  0  0  0  0  0  0  0
   -3.1530    1.7735   27.6251 O   0  0  0  0  0  0  0  0  0  0  0  0
  -10.8174    2.9910   28.3169 C   0  0  0  0  0  0  0  0  0  0  0  0
  -12.1140    3.2527   28.8763 C   0  0  0  0  0  0  0  0  0  0  0  0
  -13.0003    2.2222   29.1348 C   0  0  0  0  0  0  0  0  0  0  0  0
  -12.6917    0.9687   28.5397 C   0  0  0  0  0  0  0  0  0  0  0  0
  -11.5438    0.7694   27.7653 C   0  0  0  0  0  0  0  0  0  0  0  0
  -14.1870    2.4504   29.9113 C   0  0  0  0  0  0  0  0  0  0  0  0
  -14.5356    3.4640   30.2889 C   0  0  0  0  0  0  0  0  0  0  0  0
  -13.7157    4.6995   29.8904 C   0  0  0  0  0  0  0  0  0  0  0  0
  -12.5555    4.5437   29.2513 C   0  0  0  0  0  0  0  0  0  0  0  0
  1  3  1  0
 12 11  1  1
 12 14  1  0
 12 20  1  0
  9 21  1  0
 21 22  2  0
 21 23  1  0
 26 29  2  0
 29 30  1  0
 30 31  2  0
 31 32  1  0
 32 25  2  0
 14 15  2  0
 15 16  1  0
 16 17  2  0
 17 18  1  0
 18 19  2  0
 19 14  1  0
  3  4  2  0
  4  9  1  0
  9 10  2  0
 10 13  1  0
 13 11  2  0
 11  3  1  0
  1  2  2  0
  2  5  1  0
  5  8  2  0
  8  7  1  0
  7  6  2  0
  6  1  1  0
 20 24  2  0
 24 25  1  0
 25 26  1  0
 26 27  1  0
 27 28  2  0
 28 20  1  0
M  END
$$$$
