No_7057-complexes_sdf/6BKW-FPZ/2024-09-17-14-21-01/
     RDKit          3D

 24 27  0  0  0  0  0  0  0  0999 V2000
   -7.9040    3.9820   27.1177 C   0  0  0  0  0  0  0  0  0  0  0  0
   -8.2057    2.8231   26.8733 C   0  0  0  0  0  0  0  0  0  0  0  0
   -8.7463    4.9537   27.6708 C   0  0  0  0  0  0  0  0  0  0  0  0
  -10.0901    4.5164   28.0293 C   0  0  0  0  0  0  0  0  0  0  0  0
   -9.5729    2.3483   27.2382 C   0  0  0  0  0  0  0  0  0  0  0  0
  -10.4170    3.2421   27.8237 C   0  0  0  0  0  0  0  0  0  0  0  0
   -8.2923    6.3426   27.8895 C   0  0  0  0  0  0  0  0  0  0  0  0
   -9.8564    0.9123   27.0141 C   0  0  0  0  0  0  0  0  0  0  0  0
   -8.9190    0.0508   26.8695 C   0  0  0  0  0  0  0  0  0  0  0  0
   -9.2222   -1.3202   26.7176 C   0  0  0  0  0  0  0  0  0  0  0  0
  -10.5698   -1.6938   26.8440 C   0  0  0  0  0  0  0  0  0  0  0  0
  -11.1694    0.3167   27.4212 C   0  0  0  0  0  0  0  0  0  0  0  0
  -11.4825   -0.8854   27.2787 C   0  0  0  0  0  0  0  0  0  0  0  0
   -8.0129    7.0836   26.5663 C   0  0  0  0  0  0  0  0  0  0  0  0
   -8.7534    7.1032   25.7546 F   0  0  0  0  0  0  0  0  0  0  0  0
   -7.0084    7.8546   26.6675 F   0  0  0  0  0  0  0  0  0  0  0  0
  -10.8602   -3.2149   26.6998 C   0  0  0  0  0  0  0  0  0  0  0  0
  -11.8664   -3.5722   26.3481 C   0  0  0  0  0  0  0  0  0  0  0  0
  -12.9358   -2.6440   26.0188 C   0  0  0  0  0  0  0  0  0  0  0  0
  -14.2556   -3.0449   25.5980 C   0  0  0  0  0  0  0  0  0  0  0  0
  -15.1685   -2.1067   25.2527 C   0  0  0  0  0  0  0  0  0  0  0  0
  -14.8320   -0.7411   25.4017 C   0  0  0  0  0  0  0  0  0  0  0  0
  -13.6131   -0.3309   25.7668 C   0  0  0  0  0  0  0  0  0  0  0  0
  -12.6548   -1.2264   26.0771 C   0  0  0  0  0  0  0  0  0  0  0  0
  3  7  1  0
  5  8  1  0
  7 14  1  0
 14 15  1  0
 14 16  1  0
 13 24  1  0
 19 18  1  0
 18 17  2  0
 17 11  1  0
  1  2  2  0
  2  5  1  0
  5  6  2  0
  6  4  1  0
  4  3  2  0
  3  1  1  0
 19 20  2  0
 20 21  1  0
 21 22  2  0
 22 23  1  0
 23 24  2  0
 24 19  1  0
  8  9  2  0
  9 10  1  0
 10 11  2  0
 11 13  1  0
 13 12  2  0
 12  8  1  0
M  END
$$$$
