No_7791-complexes_sdf/6BKW-FPZ/2024-09-17-14-21-01/
     RDKit          3D

 40 45  0  0  0  0  0  0  0  0999 V2000
   -7.7129    4.2099   27.0854 C   0  0  0  0  0  0  0  0  0  0  0  0
   -7.7814    5.1722   27.8972 C   0  0  0  0  0  0  0  0  0  0  0  0
   -7.2983    2.9533   27.5684 C   0  0  0  0  0  0  0  0  0  0  0  0
   -7.6908    1.8111   26.9553 C   0  0  0  0  0  0  0  0  0  0  0  0
   -8.7568    1.8300   26.4037 C   0  0  0  0  0  0  0  0  0  0  0  0
   -9.4528    2.9585   25.9703 C   0  0  0  0  0  0  0  0  0  0  0  0
   -8.9888    4.1622   26.4901 C   0  0  0  0  0  0  0  0  0  0  0  0
   -8.3916    6.4084   27.5803 N   0  0  0  0  0  0  0  0  0  0  0  0
   -6.9697    0.5483   27.3953 C   0  0  0  0  0  0  0  0  0  0  0  0
   -6.3316    0.0050   26.8044 C   0  0  0  0  0  0  0  0  0  0  0  0
   -5.5655   -1.2133   27.2606 C   0  0  0  0  0  0  0  0  0  0  0  0
   -4.6305   -1.7756   26.5643 C   0  0  0  0  0  0  0  0  0  0  0  0
   -3.7903   -2.7869   27.0397 C   0  0  0  0  0  0  0  0  0  0  0  0
   -9.4193    6.4835   26.6877 C   0  0  0  0  0  0  0  0  0  0  0  0
   -9.7141    5.3418   26.1497 C   0  0  0  0  0  0  0  0  0  0  0  0
   -3.9925   -3.2778   28.3243 C   0  0  0  0  0  0  0  0  0  0  0  0
   -4.9496   -2.6775   29.1058 C   0  0  0  0  0  0  0  0  0  0  0  0
   -5.7013   -1.5824   28.6564 C   0  0  0  0  0  0  0  0  0  0  0  0
  -10.5373    2.8449   25.0426 C   0  0  0  0  0  0  0  0  0  0  0  0
  -11.8026    2.9901   25.4583 C   0  0  0  0  0  0  0  0  0  0  0  0
  -10.2715    2.6238   23.6806 C   0  0  0  0  0  0  0  0  0  0  0  0
  -11.1018    2.8695   22.6690 C   0  0  0  0  0  0  0  0  0  0  0  0
  -12.8501    3.2004   24.4412 C   0  0  0  0  0  0  0  0  0  0  0  0
  -12.4781    3.0745   23.0854 C   0  0  0  0  0  0  0  0  0  0  0  0
   -5.1160   -3.0649   30.5496 C   0  0  1  0  0  0  0  0  0  0  0  0
   -4.4846   -2.2754   31.4555 C   0  0  0  0  0  0  0  0  0  0  0  0
   -3.7233   -1.2551   31.1789 C   0  0  0  0  0  0  0  0  0  0  0  0
   -3.2797   -0.2654   32.1427 C   0  0  0  0  0  0  0  0  0  0  0  0
   -3.5242   -0.5394   33.4905 C   0  0  0  0  0  0  0  0  0  0  0  0
   -4.3092   -1.6156   33.8498 C   0  0  0  0  0  0  0  0  0  0  0  0
   -4.8629   -2.4269   32.8795 C   0  0  0  0  0  0  0  0  0  0  0  0
   -6.6456   -3.3070   30.7603 C   0  0  0  0  0  0  0  0  0  0  0  0
   -7.2660   -4.1783   30.4057 C   0  0  0  0  0  0  0  0  0  0  0  0
   -6.6548   -5.2280   29.5878 C   0  0  0  0  0  0  0  0  0  0  0  0
   -7.3813   -5.9728   28.7525 C   0  0  0  0  0  0  0  0  0  0  0  0
   -6.7756   -7.0531   28.1753 C   0  0  0  0  0  0  0  0  0  0  0  0
   -5.4228   -7.3175   28.3795 C   0  0  0  0  0  0  0  0  0  0  0  0
   -4.7067   -6.5983   29.2452 C   0  0  0  0  0  0  0  0  0  0  0  0
   -5.2896   -5.6114   29.9133 C   0  0  0  0  0  0  0  0  0  0  0  0
   -8.7039   -4.3150   30.4863 C   0  0  0  0  0  0  0  0  0  0  0  0
  4  9  1  0
  9 10  2  3
 10 11  1  0
  6 19  1  0
 25 17  1  6
 25 26  1  0
 25 32  1  0
 32 33  2  3
 33 34  1  0
 33 40  1  0
  1  3  1  0
  3  4  2  0
  4  5  1  0
  5  6  2  0
  6  7  1  0
 19 20  2  0
 20 23  1  0
 23 24  2  0
 24 22  1  0
 22 21  2  0
 21 19  1  0
 11 12  2  0
 12 13  1  0
 13 16  2  0
 16 17  1  0
 17 18  2  0
 18 11  1  0
 34 35  2  0
 35 36  1  0
 36 37  2  0
 37 38  1  0
 38 39  2  0
 39 34  1  0
  1  2  2  0
  2  8  1  0
  8 14  2  0
 14 15  1  0
 15  7  2  0
  7  1  1  0
 26 27  2  0
 27 28  1  0
 28 29  2  0
 29 30  1  0
 30 31  2  0
 31 26  1  0
M  END
$$$$
