No_7503-complexes_sdf/6BKW-FPZ/2024-09-17-14-21-01/
     RDKit          3D

 33 37  0  0  0  0  0  0  0  0999 V2000
   -7.7129    4.2099   27.0854 C   0  0  0  0  0  0  0  0  0  0  0  0
   -8.2112    3.0637   26.9225 C   0  0  0  0  0  0  0  0  0  0  0  0
   -7.5138    1.9223   27.4249 C   0  0  0  0  0  0  0  0  0  0  0  0
   -8.5309    5.4147   26.8151 C   0  0  0  0  0  0  0  0  0  0  0  0
   -9.6817    5.2393   26.1100 C   0  0  0  0  0  0  0  0  0  0  0  0
  -10.1032    3.9957   25.8534 C   0  0  0  0  0  0  0  0  0  0  0  0
   -9.4035    2.8430   26.2573 C   0  0  0  0  0  0  0  0  0  0  0  0
   -6.8643    1.0176   26.6720 C   0  0  0  0  0  0  0  0  0  0  0  0
   -6.1576   -0.0541   27.2672 C   0  0  0  0  0  0  0  0  0  0  0  0
   -6.3896   -1.2702   27.0708 C   0  0  0  0  0  0  0  0  0  0  0  0
   -7.1032   -1.5909   25.8319 C   0  0  0  0  0  0  0  0  0  0  0  0
   -7.7745   -0.5941   25.1643 C   0  0  0  0  0  0  0  0  0  0  0  0
   -7.6864    0.7061   25.6210 C   0  0  0  0  0  0  0  0  0  0  0  0
   -8.0052    6.7715   27.1063 C   0  0  0  0  0  0  0  0  0  0  0  0
   -7.0601    6.8332   27.9237 O   0  0  0  0  0  0  0  0  0  0  0  0
   -8.5069    7.8833   26.6000 N   0  0  0  0  0  0  0  0  0  0  0  0
  -11.3797    3.8251   25.0905 C   0  0  0  0  0  0  0  0  0  0  0  0
  -12.4674    3.4704   25.6310 N   0  0  0  0  0  0  0  0  0  0  0  0
  -12.6121    3.2646   26.8909 C   0  0  0  0  0  0  0  0  0  0  0  0
  -13.3265    3.6235   27.7252 C   0  0  0  0  0  0  0  0  0  0  0  0
  -13.3495    3.3218   29.1762 C   0  0  0  0  0  0  0  0  0  0  0  0
  -12.2908    2.4460   29.5746 C   0  0  0  0  0  0  0  0  0  0  0  0
  -11.3853    2.0528   28.6699 C   0  0  0  0  0  0  0  0  0  0  0  0
  -11.4413    2.4196   27.3717 C   0  0  0  0  0  0  0  0  0  0  0  0
  -10.3667    2.0935   27.0547 N   0  0  0  0  0  0  0  0  0  0  0  0
  -13.6906    3.3103   24.8430 C   0  0  0  0  0  0  0  0  0  0  0  0
  -11.3026    4.3193   23.8794 O   0  0  0  0  0  0  0  0  0  0  0  0
  -14.3773    3.7778   30.1614 C   0  0  0  0  0  0  0  0  0  0  0  0
  -15.1179    4.8433   29.9030 C   0  0  0  0  0  0  0  0  0  0  0  0
  -16.0202    5.3696   30.9088 C   0  0  0  0  0  0  0  0  0  0  0  0
  -16.0199    4.7530   32.1724 C   0  0  0  0  0  0  0  0  0  0  0  0
  -15.1932    3.6958   32.4280 C   0  0  0  0  0  0  0  0  0  0  0  0
  -14.2656    3.1901   31.4755 C   0  0  0  0  0  0  0  0  0  0  0  0
  2  3  1  0
  4 14  1  0
 14 15  2  0
 14 16  1  0
  6 17  1  0
 17 18  1  0
 18 19  1  0
  7 25  1  0
 24 25  1  0
 18 26  1  0
 17 27  2  0
 21 28  1  0
  3  8  1  0
 28 29  2  0
 29 30  1  0
 30 31  2  0
 31 32  1  0
 32 33  2  0
 33 28  1  0
  1  2  2  0
  2  7  1  0
  7  6  2  0
  6  5  1  0
  5  4  2  0
  4  1  1  0
  8  9  2  0
  9 10  1  0
 10 11  2  0
 11 12  1  0
 12 13  2  0
 13  8  1  0
 19 20  2  0
 20 21  1  0
 21 22  2  0
 22 23  1  0
 23 24  2  0
 24 19  1  0
M  END
$$$$
