No_7690-complexes_sdf/6BKW-FPZ/2024-09-17-14-21-01/
     RDKit          3D

 32 37  0  0  0  0  0  0  0  0999 V2000
   -7.9040    3.9820   27.1177 C   0  0  0  0  0  0  0  0  0  0  0  0
   -9.0711    4.3164   27.0630 C   0  0  0  0  0  0  0  0  0  0  0  0
   -9.5182    5.5541   27.5777 C   0  0  0  0  0  0  0  0  0  0  0  0
   -6.9424    4.7983   27.8424 C   0  0  0  0  0  0  0  0  0  0  0  0
   -7.3526    5.9739   28.3909 C   0  0  0  0  0  0  0  0  0  0  0  0
   -8.6479    6.3742   28.2169 C   0  0  0  0  0  0  0  0  0  0  0  0
  -10.0793    3.4689   26.3368 C   0  0  0  0  0  0  0  0  0  0  0  0
   -9.6567    2.5965   25.4484 C   0  0  0  0  0  0  0  0  0  0  0  0
  -10.5086    1.8159   24.6228 C   0  0  0  0  0  0  0  0  0  0  0  0
  -11.8698    2.1070   24.6818 C   0  0  0  0  0  0  0  0  0  0  0  0
  -11.4792    3.7192   26.2197 C   0  0  0  0  0  0  0  0  0  0  0  0
  -12.3318    3.0883   25.5323 C   0  0  0  0  0  0  0  0  0  0  0  0
   -9.9717    0.7869   23.7393 C   0  0  0  0  0  0  0  0  0  0  0  0
   -9.0420    0.0185   24.0288 N   0  0  0  0  0  0  0  0  0  0  0  0
   -8.2827   -0.6481   23.1807 C   0  0  0  0  0  0  0  0  0  0  0  0
   -8.6958   -0.6837   21.8245 C   0  0  0  0  0  0  0  0  0  0  0  0
   -9.8167    1.0372   22.2990 C   0  0  0  0  0  0  0  0  0  0  0  0
   -9.3673    0.3031   21.4051 C   0  0  0  0  0  0  0  0  0  0  0  0
  -10.7667    2.2690   21.7347 C   0  0  0  0  0  0  0  0  0  0  0  0
  -10.5484    3.1124   21.1815 C   0  0  0  0  0  0  0  0  0  0  0  0
  -11.3578    4.2406   20.7621 C   0  0  0  0  0  0  0  0  0  0  0  0
  -12.6472    4.2505   21.2869 C   0  0  0  0  0  0  0  0  0  0  0  0
  -13.0505    3.1965   22.0389 C   0  0  0  0  0  0  0  0  0  0  0  0
  -12.1278    2.1621   22.4052 C   0  0  0  0  0  0  0  0  0  0  0  0
  -12.6262    0.9997   24.0881 C   0  0  0  0  0  0  0  0  0  0  0  0
  -12.6419    1.0943   22.9365 N   0  0  0  0  0  0  0  0  0  0  0  0
  -13.1959    0.0653   22.0845 C   0  0  0  0  0  0  0  0  0  0  0  0
  -13.2796   -1.1881   22.5970 C   0  0  0  0  0  0  0  0  0  0  0  0
  -13.6352    0.3393   20.8056 C   0  0  0  0  0  0  0  0  0  0  0  0
  -14.0497   -0.6678   19.9839 C   0  0  0  0  0  0  0  0  0  0  0  0
  -13.7415   -2.2536   21.7904 C   0  0  0  0  0  0  0  0  0  0  0  0
  -14.1565   -1.9544   20.4854 C   0  0  0  0  0  0  0  0  0  0  0  0
  2  7  1  0
  9 13  1  0
 17 19  1  0
 10 25  1  0
 24 26  1  0
 25 26  1  0
 26 27  1  0
  1  2  2  0
  2  3  1  0
  3  6  2  0
  6  5  1  0
  5  4  2  0
  4  1  1  0
 19 20  2  0
 20 21  1  0
 21 22  2  0
 22 23  1  0
 23 24  2  0
 24 19  1  0
 27 28  2  0
 28 31  1  0
 31 32  2  0
 32 30  1  0
 30 29  2  0
 29 27  1  0
 13 14  2  0
 14 15  1  0
 15 16  2  0
 16 18  1  0
 18 17  2  0
 17 13  1  0
  7  8  2  0
  8  9  1  0
  9 10  2  0
 10 12  1  0
 12 11  2  0
 11  7  1  0
M  END
$$$$
