No_7175-complexes_sdf/6BKW-FPZ/2024-09-17-14-21-01/
     RDKit          3D

 26 30  0  0  0  0  0  0  0  0999 V2000
   -7.7129    4.2099   27.0854 C   0  0  0  0  0  0  0  0  0  0  0  0
   -8.2112    3.0637   26.9225 C   0  0  0  0  0  0  0  0  0  0  0  0
   -8.4224    5.2106   27.8516 C   0  0  0  0  0  0  0  0  0  0  0  0
   -9.5628    2.7160   27.4089 C   0  0  0  0  0  0  0  0  0  0  0  0
  -10.2428    3.7496   28.1155 C   0  0  0  0  0  0  0  0  0  0  0  0
   -9.6677    4.9738   28.3232 C   0  0  0  0  0  0  0  0  0  0  0  0
   -7.6358    6.7353   28.0263 Cl  0  0  0  0  0  0  0  0  0  0  0  0
  -10.0925    1.3897   27.2259 C   0  0  0  0  0  0  0  0  0  0  0  0
  -11.1601    1.0746   27.9174 C   0  0  0  0  0  0  0  0  0  0  0  0
  -11.9258    2.1130   28.6302 C   0  0  0  0  0  0  0  0  0  0  0  0
  -11.4406    3.3851   28.7735 C   0  0  0  0  0  0  0  0  0  0  0  0
  -13.0962    1.7340   29.2083 F   0  0  0  0  0  0  0  0  0  0  0  0
   -9.3074    0.3536   26.6204 C   0  0  0  0  0  0  0  0  0  0  0  0
   -9.5842   -0.7622   26.6524 C   0  0  0  0  0  0  0  0  0  0  0  0
   -8.8539   -1.8634   25.9559 C   0  0  0  0  0  0  0  0  0  0  0  0
   -8.0231   -1.4787   25.3530 C   0  0  0  0  0  0  0  0  0  0  0  0
   -7.4611   -0.2052   25.1140 C   0  0  0  0  0  0  0  0  0  0  0  0
   -8.1496    0.7931   25.7725 C   0  0  0  0  0  0  0  0  0  0  0  0
   -7.7011    2.1556   25.9469 N   0  0  0  0  0  0  0  0  0  0  0  0
   -7.1089   -2.2289   24.4758 O   0  0  0  0  0  0  0  0  0  0  0  0
   -6.3524   -3.0058   24.7922 C   0  0  0  0  0  0  0  0  0  0  0  0
   -5.2017   -2.5309   25.1404 C   0  0  0  0  0  0  0  0  0  0  0  0
   -4.1816   -3.4256   25.7119 C   0  0  0  0  0  0  0  0  0  0  0  0
   -4.3884   -4.7086   25.5591 C   0  0  0  0  0  0  0  0  0  0  0  0
   -5.5327   -5.2187   25.0587 C   0  0  0  0  0  0  0  0  0  0  0  0
   -6.5224   -4.3471   24.6561 C   0  0  0  0  0  0  0  0  0  0  0  0
  3  7  1  0
 10 12  1  0
  8 13  1  0
  2 19  1  0
 18 19  1  0
 16 20  1  0
 20 21  1  0
  1  2  2  0
  2  4  1  0
  5  6  1  0
  6  3  2  0
  3  1  1  0
  4  5  2  0
  5 11  1  0
 11 10  2  0
 10  9  1  0
  9  8  2  0
  8  4  1  0
 13 14  2  0
 14 15  1  0
 15 16  2  0
 16 17  1  0
 17 18  2  0
 18 13  1  0
 21 22  2  0
 22 23  1  0
 23 24  2  0
 24 25  1  0
 25 26  2  0
 26 21  1  0
M  END
$$$$
