No_7976-complexes_sdf/6BKW-FPZ/2024-09-17-14-21-01/
     RDKit          3D

 23 25  0  0  0  0  0  0  0  0999 V2000
   -7.7129    4.2099   27.0854 C   0  0  0  0  0  0  0  0  0  0  0  0
   -8.2112    3.0637   26.9225 C   0  0  0  0  0  0  0  0  0  0  0  0
   -8.5108    5.3904   26.9436 C   0  0  0  0  0  0  0  0  0  0  0  0
   -9.7256    5.1955   26.3518 C   0  0  0  0  0  0  0  0  0  0  0  0
   -9.4995    2.8258   26.4878 C   0  0  0  0  0  0  0  0  0  0  0  0
  -10.2542    3.9691   26.2055 C   0  0  0  0  0  0  0  0  0  0  0  0
   -7.9456    6.5695   27.1656 F   0  0  0  0  0  0  0  0  0  0  0  0
   -7.3632    1.8215   27.2517 C   0  0  0  0  0  0  0  0  0  0  0  0
   -6.0601    2.0021   27.7295 C   0  0  0  0  0  0  0  0  0  0  0  0
   -5.2804    0.8344   28.0543 C   0  0  0  0  0  0  0  0  0  0  0  0
   -5.8509   -0.3975   27.9030 C   0  0  0  0  0  0  0  0  0  0  0  0
   -7.7989    0.5080   27.1589 C   0  0  0  0  0  0  0  0  0  0  0  0
   -7.1442   -0.5235   27.5165 C   0  0  0  0  0  0  0  0  0  0  0  0
   -3.6733    1.0865   28.6096 Cl  0  0  0  0  0  0  0  0  0  0  0  0
  -11.8192    3.7967   25.5541 Cl  0  0  0  0  0  0  0  0  0  0  0  0
   -5.0323   -1.5784   28.3458 C   0  0  0  0  0  0  0  0  0  0  0  0
   -5.3547   -2.6519   28.0630 C   0  0  0  0  0  0  0  0  0  0  0  0
   -4.5503   -3.7706   28.4504 C   0  0  0  0  0  0  0  0  0  0  0  0
   -3.3338   -3.5221   29.1528 C   0  0  0  0  0  0  0  0  0  0  0  0
   -3.0003   -2.2453   29.4760 C   0  0  0  0  0  0  0  0  0  0  0  0
   -3.7864   -1.2570   29.1501 C   0  0  0  0  0  0  0  0  0  0  0  0
   -3.2815    0.0986   29.2660 C   0  0  0  0  0  0  0  0  0  0  0  0
   -2.2592    0.2450   30.0829 F   0  0  0  0  0  0  0  0  0  0  0  0
  3  7  1  0
  2  8  1  0
 10 14  1  0
  6 15  1  0
 11 16  1  0
 21 22  1  0
 22 23  1  0
 16 17  2  0
 17 18  1  0
 18 19  2  0
 19 20  1  0
 20 21  2  0
 21 16  1  0
  1  2  2  0
  2  5  1  0
  5  6  2  0
  6  4  1  0
  4  3  2  0
  3  1  1  0
  8  9  2  0
  9 10  1  0
 10 11  2  0
 11 13  1  0
 13 12  2  0
 12  8  1  0
M  END
$$$$
