No_7940-complexes_sdf/6BKW-FPZ/2024-09-17-14-21-01/
     RDKit          3D

 24 26  0  0  0  0  0  0  0  0999 V2000
   -7.2496    3.8871   27.4508 C   0  0  0  0  0  0  0  0  0  0  0  0
   -8.5096    4.0291   27.2770 C   0  0  0  0  0  0  0  0  0  0  0  0
   -9.3451    2.8786   26.9046 C   0  0  0  0  0  0  0  0  0  0  0  0
   -6.6065    2.5680   27.5073 C   0  0  0  0  0  0  0  0  0  0  0  0
   -7.4233    1.4858   27.2402 C   0  0  0  0  0  0  0  0  0  0  0  0
   -8.7362    1.6525   26.9989 C   0  0  0  0  0  0  0  0  0  0  0  0
   -9.1023    5.3710   27.2131 C   0  0  0  0  0  0  0  0  0  0  0  0
  -10.3176    5.4276   27.6392 F   0  0  0  0  0  0  0  0  0  0  0  0
   -8.3884    6.2664   28.0320 F   0  0  0  0  0  0  0  0  0  0  0  0
   -9.0168    5.8639   25.9493 F   0  0  0  0  0  0  0  0  0  0  0  0
   -5.3335    2.4689   27.7975 O   0  0  0  0  0  0  0  0  0  0  0  0
   -6.7795    0.1799   27.2333 C   0  0  0  0  0  0  0  0  0  0  0  0
   -6.9357   -0.6029   26.1968 C   0  0  0  0  0  0  0  0  0  0  0  0
   -7.7642   -0.6171   25.3508 C   0  0  0  0  0  0  0  0  0  0  0  0
   -7.8026   -1.1145   24.2774 C   0  0  0  0  0  0  0  0  0  0  0  0
   -6.7159   -2.0722   23.9730 C   0  0  0  0  0  0  0  0  0  0  0  0
   -5.7336   -2.2083   24.8943 C   0  0  0  0  0  0  0  0  0  0  0  0
   -5.7057   -1.4340   26.0008 C   0  0  0  0  0  0  0  0  0  0  0  0
   -8.8608   -1.1352   23.1573 C   0  0  0  0  0  0  0  0  0  0  0  0
   -9.1561    0.1261   22.7602 C   0  0  0  0  0  0  0  0  0  0  0  0
  -10.0912    0.4185   21.7228 C   0  0  0  0  0  0  0  0  0  0  0  0
  -10.5751   -0.7013   21.0122 C   0  0  0  0  0  0  0  0  0  0  0  0
  -10.1853   -1.9763   21.3868 C   0  0  0  0  0  0  0  0  0  0  0  0
   -9.2599   -2.1624   22.4165 C   0  0  0  0  0  0  0  0  0  0  0  0
  2  7  1  0
  7  8  1  0
  7  9  1  0
  7 10  1  0
  4 11  1  0
  5 12  1  0
 12 13  1  0
 15 19  1  0
 13 14  2  0
 14 15  1  0
 15 16  2  0
 16 17  1  0
 17 18  2  0
 18 13  1  0
  1  2  2  0
  2  3  1  0
  3  6  2  0
  6  5  1  0
  5  4  2  0
  4  1  1  0
 19 20  2  0
 20 21  1  0
 21 22  2  0
 22 23  1  0
 23 24  2  0
 24 19  1  0
M  END
$$$$
