No_7843-complexes_sdf/6BKW-FPZ/2024-09-17-14-21-01/
     RDKit          3D

 19 20  0  0  0  0  0  0  0  0999 V2000
   -7.2496    3.8871   27.4508 C   0  0  0  0  0  0  0  0  0  0  0  0
   -7.6161    2.7143   27.1523 C   0  0  0  0  0  0  0  0  0  0  0  0
   -8.8302    2.4659   26.5056 C   0  0  0  0  0  0  0  0  0  0  0  0
   -8.1584    5.0089   27.3234 C   0  0  0  0  0  0  0  0  0  0  0  0
   -9.3788    4.7965   26.7695 C   0  0  0  0  0  0  0  0  0  0  0  0
   -9.7028    3.5649   26.3276 C   0  0  0  0  0  0  0  0  0  0  0  0
   -6.7190    1.5585   27.3667 C   0  0  0  0  0  0  0  0  0  0  0  0
   -7.0504    0.2135   27.2455 C   0  0  0  0  0  0  0  0  0  0  0  0
   -6.2345   -0.7674   27.5419 C   0  0  0  0  0  0  0  0  0  0  0  0
   -4.9557   -0.4544   28.0963 C   0  0  0  0  0  0  0  0  0  0  0  0
   -4.5769    0.8583   28.2784 C   0  0  0  0  0  0  0  0  0  0  0  0
   -5.4112    1.8384   27.9807 C   0  0  0  0  0  0  0  0  0  0  0  0
   -7.6962    6.3607   27.7749 C   0  0  1  0  0  0  0  0  0  0  0  0
   -4.0328   -1.5875   28.5063 C   0  0  0  0  0  0  0  0  0  0  0  0
   -4.3746   -2.6780   28.6859 F   0  0  0  0  0  0  0  0  0  0  0  0
   -3.4161   -1.1348   29.7266 F   0  0  0  0  0  0  0  0  0  0  0  0
   -2.9807   -1.5084   27.6134 F   0  0  0  0  0  0  0  0  0  0  0  0
   -6.6723    6.5217   28.2453 N   0  0  0  0  0  0  0  0  0  0  0  0
   -8.5087    7.2746   27.3722 F   0  0  0  0  0  0  0  0  0  0  0  0
  2  7  1  0
  4 13  1  0
 10 14  1  0
 14 15  1  0
 14 16  1  0
 14 17  1  0
 13 18  1  6
 13 19  1  0
  1  2  2  0
  2  3  1  0
  3  6  2  0
  6  5  1  0
  5  4  2  0
  4  1  1  0
  7  8  2  0
  8  9  1  0
  9 10  2  0
 10 11  1  0
 11 12  2  0
 12  7  1  0
M  END
$$$$
