No_7130-complexes_sdf/6BKW-FPZ/2024-09-17-14-21-01/
     RDKit          3D

 16 17  0  0  0  0  0  0  0  0999 V2000
   -7.9040    3.9820   27.1177 C   0  0  0  0  0  0  0  0  0  0  0  0
   -7.8663    4.8694   27.9238 C   0  0  0  0  0  0  0  0  0  0  0  0
   -9.0501    3.8017   26.2617 C   0  0  0  0  0  0  0  0  0  0  0  0
  -10.0189    4.7608   26.3707 C   0  0  0  0  0  0  0  0  0  0  0  0
   -8.6973    5.9722   27.8968 C   0  0  0  0  0  0  0  0  0  0  0  0
   -9.8216    5.8946   27.1241 C   0  0  0  0  0  0  0  0  0  0  0  0
   -9.1445    2.6271   25.4265 C   0  0  0  0  0  0  0  0  0  0  0  0
  -10.1480    1.8402   25.6891 C   0  0  0  0  0  0  0  0  0  0  0  0
  -11.1225    1.8583   26.2047 C   0  0  0  0  0  0  0  0  0  0  0  0
  -12.0865    0.7372   26.4078 C   0  0  0  0  0  0  0  0  0  0  0  0
  -11.6944   -0.4124   25.8300 C   0  0  0  0  0  0  0  0  0  0  0  0
   -9.8782    0.4207   25.0474 C   0  0  0  0  0  0  0  0  0  0  0  0
  -10.4983   -0.3859   25.1226 C   0  0  0  0  0  0  0  0  0  0  0  0
   -8.5205    0.3826   24.1968 C   0  0  0  0  0  0  0  0  0  0  0  0
   -8.1063   -0.8586   23.8250 C   0  0  0  0  0  0  0  0  0  0  0  0
   -9.0081   -1.8761   23.8883 C   0  0  0  0  0  0  0  0  0  0  0  0
  3  7  1  0
  7  8  1  0
 12 14  1  0
 14 15  2  3
 15 16  1  0
  1  2  2  0
  2  5  1  0
  5  6  2  0
  6  4  1  0
  4  3  2  0
  3  1  1  0
  8  9  2  0
  9 10  1  0
 10 11  2  0
 11 13  1  0
 13 12  2  0
 12  8  1  0
M  END
$$$$
