No_771-complexes_sdf/6BKW-FPZ/2024-09-17-14-21-01/
     RDKit          3D

 20 21  0  0  0  0  0  0  0  0999 V2000
   -7.7129    4.2099   27.0854 C   0  0  0  0  0  0  0  0  0  0  0  0
   -8.2112    3.0637   26.9225 C   0  0  0  0  0  0  0  0  0  0  0  0
   -7.5138    1.9223   27.4249 C   0  0  0  0  0  0  0  0  0  0  0  0
   -6.5434    4.4363   27.9024 C   0  0  0  0  0  0  0  0  0  0  0  0
   -6.2005    2.1121   27.9323 C   0  0  0  0  0  0  0  0  0  0  0  0
   -5.7560    3.3924   28.1795 C   0  0  0  0  0  0  0  0  0  0  0  0
   -8.5371    5.4268   26.8066 C   0  0  0  0  0  0  0  0  0  0  0  0
   -9.3771    5.4154   25.7568 N   0  0  0  0  0  0  0  0  0  0  0  0
   -8.6169    6.4340   27.5630 O   0  0  0  0  0  0  0  0  0  0  0  0
   -5.3965    0.9151   28.2977 C   0  0  0  0  0  0  0  0  0  0  0  0
   -5.8815   -0.3222   28.2410 N   0  0  0  0  0  0  0  0  0  0  0  0
   -6.5376   -0.8100   27.4331 C   0  0  0  0  0  0  0  0  0  0  0  0
   -5.4457   -1.1947   29.3980 C   0  0  0  0  0  0  0  0  0  0  0  0
   -4.9823   -2.0990   29.3044 C   0  0  0  0  0  0  0  0  0  0  0  0
   -6.3865   -2.2539   27.1966 C   0  0  0  0  0  0  0  0  0  0  0  0
   -5.6674   -2.9705   28.2233 C   0  0  0  0  0  0  0  0  0  0  0  0
   -4.1167    1.1898   28.4991 O   0  0  0  0  0  0  0  0  0  0  0  0
   -5.5072   -4.3844   28.0518 C   0  0  0  0  0  0  0  0  0  0  0  0
   -5.9077   -5.0405   27.3988 N   0  0  0  0  0  0  0  0  0  0  0  0
   -5.6335   -6.4113   27.3846 C   0  0  0  0  0  0  0  0  0  0  0  0
  1  7  1  0
  7  8  1  0
  7  9  2  0
  5 10  1  0
 10 11  1  0
 11 12  1  0
 11 13  1  0
 14 16  1  0
 15 16  1  0
 10 17  2  0
 16 18  1  0
 18 19  2  3
 19 20  1  0
 12 15  1  0
 14 13  1  0
  1  2  2  0
  2  3  1  0
  3  5  2  0
  5  6  1  0
  6  4  2  0
  4  1  1  0
M  END
$$$$
