No_799-complexes_sdf/6BKW-FPZ/2024-09-17-14-21-01/
     RDKit          3D

 38 43  0  0  0  0  0  0  0  0999 V2000
   -7.2496    3.8871   27.4508 C   0  0  0  0  0  0  0  0  0  0  0  0
   -7.6161    2.7143   27.1523 C   0  0  0  0  0  0  0  0  0  0  0  0
   -8.6212    2.2239   26.4073 C   0  0  0  0  0  0  0  0  0  0  0  0
   -8.2540    4.9237   27.1711 C   0  0  0  0  0  0  0  0  0  0  0  0
   -9.3729    4.5806   26.4432 C   0  0  0  0  0  0  0  0  0  0  0  0
   -9.5830    3.2969   26.1025 C   0  0  0  0  0  0  0  0  0  0  0  0
   -7.8800    6.5508   27.6140 Cl  0  0  0  0  0  0  0  0  0  0  0  0
   -9.0595    0.9238   26.0275 C   0  0  0  0  0  0  0  0  0  0  0  0
   -9.4186    0.0721   26.7459 N   0  0  0  0  0  0  0  0  0  0  0  0
   -9.6631   -1.2241   26.5710 C   0  0  0  0  0  0  0  0  0  0  0  0
   -8.4582    0.4913   25.0016 O   0  0  0  0  0  0  0  0  0  0  0  0
  -10.3734   -2.1776   27.5312 C   0  0  0  0  0  0  0  0  0  0  0  0
  -11.0951   -1.5415   28.3399 C   0  0  0  0  0  0  0  0  0  0  0  0
  -11.0513   -0.0813   28.6401 C   0  0  0  0  0  0  0  0  0  0  0  0
  -10.3253    0.7436   27.8566 C   0  0  0  0  0  0  0  0  0  0  0  0
   -6.5508    1.6308   27.5725 C   0  0  0  0  0  0  0  0  0  0  0  0
   -6.7822    0.3424   27.9848 C   0  0  0  0  0  0  0  0  0  0  0  0
   -5.6755   -0.4457   28.3524 C   0  0  0  0  0  0  0  0  0  0  0  0
   -4.4103    0.0928   28.4669 C   0  0  0  0  0  0  0  0  0  0  0  0
   -4.2051    1.4643   28.0811 C   0  0  0  0  0  0  0  0  0  0  0  0
   -5.1774    2.1978   27.7253 C   0  0  0  0  0  0  0  0  0  0  0  0
   -3.2822   -0.7563   28.9558 C   0  0  1  0  0  0  0  0  0  0  0  0
   -2.4858   -0.2371   29.5920 O   0  0  0  0  0  0  0  0  0  0  0  0
   -3.3055   -2.0247   28.6917 N   0  0  0  0  0  0  0  0  0  0  0  0
   -2.1890   -2.8711   29.1721 C   0  0  0  0  0  0  0  0  0  0  0  0
   -8.9140   -1.8478   25.7391 O   0  0  0  0  0  0  0  0  0  0  0  0
   -2.0549   -3.8851   28.8160 C   0  0  0  0  0  0  0  0  0  0  0  0
   -2.9754   -4.5211   28.0789 C   0  0  0  0  0  0  0  0  0  0  0  0
   -4.0736   -3.7934   27.5552 C   0  0  0  0  0  0  0  0  0  0  0  0
   -4.1530   -2.5242   27.8398 C   0  0  1  0  0  0  0  0  0  0  0  0
   -5.7032   -1.9257   28.1815 C   0  0  0  0  0  0  0  0  0  0  0  0
  -10.6945    3.0142   25.3575 N   0  0  0  0  0  0  0  0  0  0  0  0
  -11.7038    3.2948   24.8035 C   0  0  0  0  0  0  0  0  0  0  0  0
  -12.6410    2.6751   24.1802 C   0  0  0  0  0  0  0  0  0  0  0  0
  -12.4699    1.4954   23.9117 C   0  0  0  0  0  0  0  0  0  0  0  0
  -11.2740    0.7526   24.3828 C   0  0  0  0  0  0  0  0  0  0  0  0
  -10.3508    1.5547   25.0801 C   0  0  1  0  0  0  0  0  0  0  0  0
   -9.5335    1.8002   23.8768 O   0  0  0  0  0  0  0  0  0  0  0  0
  4  7  1  0
  3  8  1  0
  8  9  1  0
  9 10  1  0
  8 11  2  0
 10 12  1  0
 13 14  1  0
  9 15  1  0
 14 15  1  0
  2 16  1  0
 19 22  1  0
 22 23  1  1
 22 24  1  0
 24 25  1  0
 10 26  2  0
 27 28  1  0
 24 30  1  0
 30 29  1  1
 18 31  1  0
 30 31  1  0
  6 32  1  0
 32 33  1  0
 34 35  1  0
 32 37  1  0
 36 37  1  0
 37 38  1  6
 12 13  1  0
 25 27  1  0
 28 29  1  0
 33 34  1  0
 35 36  1  0
  1  2  2  0
  2  3  1  0
  3  6  2  0
  6  5  1  0
  5  4  2  0
  4  1  1  0
 16 17  2  0
 17 18  1  0
 18 19  2  0
 19 20  1  0
 20 21  2  0
 21 16  1  0
M  END
$$$$
