No_7813-complexes_sdf/6BKW-FPZ/2024-09-17-14-21-01/
     RDKit          3D

 23 25  0  0  0  0  0  0  0  0999 V2000
   -7.9040    3.9820   27.1177 C   0  0  0  0  0  0  0  0  0  0  0  0
   -7.8663    4.8694   27.9238 C   0  0  0  0  0  0  0  0  0  0  0  0
   -9.0491    3.8523   26.2542 C   0  0  0  0  0  0  0  0  0  0  0  0
   -8.7661    5.9491   27.9690 C   0  0  0  0  0  0  0  0  0  0  0  0
   -9.9295    4.8502   26.2323 C   0  0  0  0  0  0  0  0  0  0  0  0
   -9.8077    5.9288   27.0933 C   0  0  0  0  0  0  0  0  0  0  0  0
   -6.6950    2.5005   27.2061 Br  0  0  0  0  0  0  0  0  0  0  0  0
   -9.1250    2.6962   25.2945 C   0  0  0  0  0  0  0  0  0  0  0  0
   -8.7534    1.6359   25.5799 O   0  0  0  0  0  0  0  0  0  0  0  0
   -9.5668    3.0051   24.1282 O   0  0  0  0  0  0  0  0  0  0  0  0
  -10.0394    2.0216   23.2668 C   0  0  0  0  0  0  0  0  0  0  0  0
   -9.9597    0.9337   23.3138 C   0  0  0  0  0  0  0  0  0  0  0  0
  -10.6920    2.5949   22.0711 C   0  0  0  0  0  0  0  0  0  0  0  0
  -11.0591    1.8504   20.9837 C   0  0  0  0  0  0  0  0  0  0  0  0
  -10.2876   -0.0518   22.2452 C   0  0  0  0  0  0  0  0  0  0  0  0
  -10.8682    0.4561   21.1073 C   0  0  0  0  0  0  0  0  0  0  0  0
  -11.3046   -0.4018   20.0004 C   0  0  0  0  0  0  0  0  0  0  0  0
  -10.5955   -1.5244   19.7282 C   0  0  0  0  0  0  0  0  0  0  0  0
  -10.9650   -2.3810   18.6379 C   0  0  0  0  0  0  0  0  0  0  0  0
  -10.2446   -3.5357   18.3593 C   0  0  0  0  0  0  0  0  0  0  0  0
   -9.1211   -3.8504   19.1636 C   0  0  0  0  0  0  0  0  0  0  0  0
   -8.7118   -3.0357   20.1551 C   0  0  0  0  0  0  0  0  0  0  0  0
   -9.3340   -1.8921   20.4279 C   0  0  0  0  0  0  0  0  0  0  0  0
  1  7  1  0
  3  8  1  0
  8  9  2  0
  8 10  1  0
 10 11  1  0
 16 17  1  0
 17 18  1  0
 11 12  2  0
 12 15  1  0
 15 16  2  0
 16 14  1  0
 14 13  2  0
 13 11  1  0
  1  2  2  0
  2  4  1  0
  4  6  2  0
  6  5  1  0
  5  3  2  0
  3  1  1  0
 18 19  2  0
 19 20  1  0
 20 21  2  0
 21 22  1  0
 22 23  2  0
 23 18  1  0
M  END
$$$$
