No_7762-complexes_sdf/6BKW-FPZ/2024-09-17-14-21-01/
     RDKit          3D

 38 43  0  0  0  0  0  0  0  0999 V2000
   -7.9040    3.9820   27.1177 C   0  0  1  0  0  0  0  0  0  0  0  0
   -7.8663    4.8694   27.9238 C   0  0  0  0  0  0  0  0  0  0  0  0
   -7.4547    2.7080   27.4594 C   0  0  0  0  0  0  0  0  0  0  0  0
   -8.7044    6.0412   27.8492 C   0  0  0  0  0  0  0  0  0  0  0  0
   -7.9501    1.5743   26.8848 C   0  0  0  0  0  0  0  0  0  0  0  0
   -7.5077    0.3045   27.2899 C   0  0  0  0  0  0  0  0  0  0  0  0
   -8.3304   -0.7842   27.0095 C   0  0  0  0  0  0  0  0  0  0  0  0
   -9.4084   -0.5876   26.1198 C   0  0  0  0  0  0  0  0  0  0  0  0
   -9.7507    0.6325   25.6557 C   0  0  0  0  0  0  0  0  0  0  0  0
   -8.9988    1.7506   26.0743 C   0  0  0  0  0  0  0  0  0  0  0  0
   -8.8595    4.0194   26.0327 C   0  0  2  0  0  0  0  0  0  0  0  0
   -9.4222    5.3890   26.4507 C   0  0  0  0  0  0  0  0  0  0  0  0
   -9.4184    2.9558   25.6930 N   0  0  0  0  0  0  0  0  0  0  0  0
  -10.4616    3.1322   24.6505 C   0  0  0  0  0  0  0  0  0  0  0  0
  -10.2292    3.8987   23.6435 C   0  0  0  0  0  0  0  0  0  0  0  0
  -11.1412    4.1205   22.6106 C   0  0  0  0  0  0  0  0  0  0  0  0
  -12.3805    3.4792   22.7366 C   0  0  0  0  0  0  0  0  0  0  0  0
  -11.7862    2.7184   24.9285 C   0  0  0  0  0  0  0  0  0  0  0  0
  -12.7173    2.8601   23.9271 C   0  0  0  0  0  0  0  0  0  0  0  0
  -10.1949   -1.7847   25.7457 C   0  0  0  0  0  0  0  0  0  0  0  0
  -10.8035   -2.0337   24.8872 C   0  0  0  0  0  0  0  0  0  0  0  0
  -11.4610   -2.6095   24.2882 C   0  0  0  0  0  0  0  0  0  0  0  0
  -11.6972   -3.9186   24.9413 C   0  0  0  0  0  0  0  0  0  0  0  0
  -11.0538   -4.0546   26.1192 C   0  0  0  0  0  0  0  0  0  0  0  0
  -10.2712   -2.9972   26.6109 C   0  0  0  0  0  0  0  0  0  0  0  0
  -12.6982   -5.1492   24.2835 S   0  0  0  0  0  0  0  0  0  0  0  0
  -12.8874   -6.1438   25.0586 O   0  0  0  0  0  0  0  0  0  0  0  0
  -12.1259   -5.5211   22.9034 O   0  0  0  0  0  0  0  0  0  0  0  0
  -14.0831   -4.3125   23.9531 N   0  0  0  0  0  0  0  0  0  0  0  0
  -14.8588   -4.4834   22.8882 C   0  0  0  0  0  0  0  0  0  0  0  0
  -15.9193   -4.0423   22.8523 C   0  0  0  0  0  0  0  0  0  0  0  0
  -16.8488   -4.1614   21.7605 C   0  0  0  0  0  0  0  0  0  0  0  0
  -16.3704   -4.9119   20.6549 C   0  0  0  0  0  0  0  0  0  0  0  0
  -15.1079   -5.4422   20.7052 C   0  0  0  0  0  0  0  0  0  0  0  0
  -14.3208   -5.2426   21.7747 C   0  0  0  0  0  0  0  0  0  0  0  0
  -14.6556   -6.2140   19.5386 C   0  0  0  0  0  0  0  0  0  0  0  0
  -14.0507   -7.3063   19.7010 C   0  0  0  0  0  0  0  0  0  0  0  0
  -13.5817   -8.0980   19.1411 C   0  0  0  0  0  0  0  0  0  0  0  0
  1  2  1  0
  1  3  1  1
  2  4  2  0
  3  5  1  0
  1 11  1  0
  4 12  1  0
 11 12  1  1
 10 13  1  0
 11 13  1  0
 13 14  1  0
  8 20  1  0
 23 26  1  0
 26 27  2  0
 26 28  2  0
 26 29  1  0
 29 30  1  0
 34 36  1  0
 36 37  2  3
 37 38  1  0
  5  6  2  0
  6  7  1  0
  7  8  2  0
  8  9  1  0
  9 10  2  0
 10  5  1  0
 30 31  2  0
 31 32  1  0
 32 33  2  0
 33 34  1  0
 34 35  2  0
 35 30  1  0
 14 15  2  0
 15 16  1  0
 16 17  2  0
 17 19  1  0
 19 18  2  0
 18 14  1  0
 20 21  2  0
 21 22  1  0
 22 23  2  0
 23 24  1  0
 24 25  2  0
 25 20  1  0
M  END
$$$$
