No_7492-complexes_sdf/6BKW-FPZ/2024-09-17-14-21-01/
     RDKit          3D

 18 20  0  0  0  0  0  0  0  0999 V2000
   -7.7129    4.2099   27.0854 C   0  0  0  0  0  0  0  0  0  0  0  0
   -8.2112    3.0637   26.9225 C   0  0  0  0  0  0  0  0  0  0  0  0
   -8.4224    5.2106   27.8516 C   0  0  0  0  0  0  0  0  0  0  0  0
   -9.5628    2.7160   27.4089 C   0  0  0  0  0  0  0  0  0  0  0  0
  -10.2428    3.7496   28.1155 C   0  0  0  0  0  0  0  0  0  0  0  0
   -9.6677    4.9738   28.3232 C   0  0  0  0  0  0  0  0  0  0  0  0
   -7.8012    6.3714   28.0255 F   0  0  0  0  0  0  0  0  0  0  0  0
   -9.8927    1.3979   27.1179 N   0  0  0  0  0  0  0  0  0  0  0  0
  -10.8838    0.9208   27.6403 C   0  0  0  0  0  0  0  0  0  0  0  0
  -11.1109   -0.5407   27.5597 C   0  0  0  0  0  0  0  0  0  0  0  0
  -10.0655   -1.0986   26.9045 C   0  0  0  0  0  0  0  0  0  0  0  0
   -9.1502    0.2782   26.6386 C   0  0  0  0  0  0  0  0  0  0  0  0
  -11.9135    1.5824   28.4002 N   0  0  0  0  0  0  0  0  0  0  0  0
  -12.4515    2.5750   28.1454 C   0  0  0  0  0  0  0  0  0  0  0  0
  -11.4966    3.7845   28.3674 C   0  0  0  0  0  0  0  0  0  0  0  0
   -8.8547    0.4016   25.1655 C   0  0  0  0  0  0  0  0  0  0  0  0
   -7.8589   -0.2974   24.6485 C   0  0  0  0  0  0  0  0  0  0  0  0
   -7.5534   -0.1292   23.1819 C   0  0  0  0  0  0  0  0  0  0  0  0
  3  7  1  0
  4  8  1  0
  8  9  1  0
  9 10  2  0
 10 11  1  0
  8 12  1  0
 11 12  2  0
  9 13  1  0
 13 14  2  0
  5 15  1  0
 14 15  1  0
 12 16  1  0
 16 17  2  3
 17 18  1  0
  1  2  2  0
  2  4  1  0
  4  5  2  0
  5  6  1  0
  6  3  2  0
  3  1  1  0
M  END
$$$$
