No_7559-complexes_sdf/6BKW-FPZ/2024-09-17-14-21-01/
     RDKit          3D

 15 16  0  0  0  0  0  0  0  0999 V2000
   -7.9040    3.9820   27.1177 C   0  0  0  0  0  0  0  0  0  0  0  0
   -9.0711    4.3164   27.0630 C   0  0  0  0  0  0  0  0  0  0  0  0
   -9.5294    5.4517   27.7215 C   0  0  0  0  0  0  0  0  0  0  0  0
   -6.9328    4.7309   27.8881 C   0  0  0  0  0  0  0  0  0  0  0  0
   -7.3666    5.8455   28.5488 C   0  0  0  0  0  0  0  0  0  0  0  0
   -8.6669    6.2428   28.4199 C   0  0  0  0  0  0  0  0  0  0  0  0
  -10.0479    3.5083   26.2510 C   0  0  0  0  0  0  0  0  0  0  0  0
   -9.7487    3.3855   24.9113 C   0  0  0  0  0  0  0  0  0  0  0  0
  -10.3360    3.0592   24.1649 C   0  0  0  0  0  0  0  0  0  0  0  0
  -11.6674    2.5360   24.2819 C   0  0  0  0  0  0  0  0  0  0  0  0
  -11.2962    3.2237   26.6528 C   0  0  0  0  0  0  0  0  0  0  0  0
  -12.1754    2.6377   25.6840 C   0  0  0  0  0  0  0  0  0  0  0  0
  -11.7508    3.3438   28.0121 C   0  0  0  0  0  0  0  0  0  0  0  0
  -11.1485    2.7725   29.0493 C   0  0  0  0  0  0  0  0  0  0  0  0
  -12.9418    4.1855   28.2782 C   0  0  0  0  0  0  0  0  0  0  0  0
  2  7  1  0
 11 13  1  0
 13 14  2  0
 13 15  1  0
  7  8  2  0
  8  9  1  0
  9 10  2  0
 10 12  1  0
 12 11  2  0
 11  7  1  0
  1  2  2  0
  2  3  1  0
  3  6  2  0
  6  5  1  0
  5  4  2  0
  4  1  1  0
M  END
$$$$
