No_7269-complexes_sdf/6BKW-FPZ/2024-09-17-14-21-01/
     RDKit          3D

 25 27  0  0  0  0  0  0  0  0999 V2000
   -7.7129    4.2099   27.0854 C   0  0  0  0  0  0  0  0  0  0  0  0
   -7.7814    5.1722   27.8972 C   0  0  0  0  0  0  0  0  0  0  0  0
   -8.8776    3.8408   26.3416 C   0  0  0  0  0  0  0  0  0  0  0  0
   -9.9844    4.6492   26.4743 C   0  0  0  0  0  0  0  0  0  0  0  0
   -8.7830    6.1594   27.8870 C   0  0  0  0  0  0  0  0  0  0  0  0
   -9.9269    5.8191   27.1183 C   0  0  0  0  0  0  0  0  0  0  0  0
   -8.6731    2.5840   25.5890 C   0  0  0  0  0  0  0  0  0  0  0  0
   -8.3827    1.4528   26.3522 C   0  0  0  0  0  0  0  0  0  0  0  0
   -8.3441    0.3809   26.0088 C   0  0  0  0  0  0  0  0  0  0  0  0
   -7.9380   -0.7849   26.8830 C   0  0  0  0  0  0  0  0  0  0  0  0
   -8.3593   -1.9764   26.8575 C   0  0  0  0  0  0  0  0  0  0  0  0
   -9.0110   -2.3673   25.6812 C   0  0  0  0  0  0  0  0  0  0  0  0
   -9.3075   -1.4399   24.7309 C   0  0  0  0  0  0  0  0  0  0  0  0
   -9.1163   -0.1173   24.9199 C   0  0  0  0  0  0  0  0  0  0  0  0
  -11.1022    4.3541   25.5981 C   0  0  0  0  0  0  0  0  0  0  0  0
  -10.9331    4.3222   24.1733 C   0  0  0  0  0  0  0  0  0  0  0  0
  -11.9594    4.0480   23.3421 C   0  0  0  0  0  0  0  0  0  0  0  0
  -13.2143    3.7215   23.8754 C   0  0  0  0  0  0  0  0  0  0  0  0
  -12.3182    4.0162   26.1289 C   0  0  0  0  0  0  0  0  0  0  0  0
  -13.3838    3.7548   25.2943 C   0  0  0  0  0  0  0  0  0  0  0  0
   -7.1848   -0.4738   28.0651 N   0  0  0  0  0  0  0  0  0  0  0  0
   -6.3723   -1.1984   28.7441 C   0  0  0  0  0  0  0  0  0  0  0  0
   -5.2842   -0.5957   29.3404 C   0  0  0  0  0  0  0  0  0  0  0  0
   -4.4994    0.2349   28.8201 C   0  0  0  0  0  0  0  0  0  0  0  0
   -4.5817    0.7215   27.4600 C   0  0  0  0  0  0  0  0  0  0  0  0
  3  7  1  0
  7  8  2  3
  8  9  1  0
  4 15  1  0
 10 21  1  0
 21 22  1  0
 22 23  2  3
 23 24  1  0
 24 25  1  0
  9 10  2  0
 10 11  1  0
 11 12  2  0
 12 13  1  0
 13 14  2  0
 14  9  1  0
  1  2  2  0
  2  5  1  0
  5  6  2  0
  6  4  1  0
  4  3  2  0
  3  1  1  0
 15 16  2  0
 16 17  1  0
 17 18  2  0
 18 20  1  0
 20 19  2  0
 19 15  1  0
M  END
$$$$
