No_702-complexes_sdf/6BKW-FPZ/2024-09-17-14-21-01/
     RDKit          3D

 40 44  0  0  0  0  0  0  0  0999 V2000
   -7.7129    4.2099   27.0854 C   0  0  0  0  0  0  0  0  0  0  0  0
   -8.9133    4.4736   27.0998 C   0  0  0  0  0  0  0  0  0  0  0  0
   -9.8363    3.8127   27.2418 C   0  0  0  0  0  0  0  0  0  0  0  0
   -7.2995    2.8520   27.3808 C   0  0  0  0  0  0  0  0  0  0  0  0
   -8.3404    1.9507   27.4989 C   0  0  0  0  0  0  0  0  0  0  0  0
   -9.6166    2.3791   27.4719 C   0  0  0  0  0  0  0  0  0  0  0  0
   -9.1683    6.0342   26.9011 C   0  0  0  0  0  0  0  0  0  0  0  0
   -8.7928    6.7353   25.9035 N   0  0  0  0  0  0  0  0  0  0  0  0
   -7.8186    0.5249   27.6562 C   0  0  0  0  0  0  0  0  0  0  0  0
   -8.7421   -0.4721   27.7890 C   0  0  0  0  0  0  0  0  0  0  0  0
   -8.2992   -1.7961   28.0179 C   0  0  0  0  0  0  0  0  0  0  0  0
   -6.9184   -1.9998   28.0927 C   0  0  0  0  0  0  0  0  0  0  0  0
   -6.4741    0.0711   27.7725 C   0  0  0  0  0  0  0  0  0  0  0  0
   -6.0166   -1.0375   27.9415 C   0  0  0  0  0  0  0  0  0  0  0  0
   -9.7914    6.6685   27.8518 O   0  0  0  0  0  0  0  0  0  0  0  0
   -4.5635   -1.3028   28.0172 C   0  0  0  0  0  0  0  0  0  0  0  0
   -3.8118   -1.4682   27.2890 C   0  0  0  0  0  0  0  0  0  0  0  0
   -2.7083   -1.2647   26.9712 C   0  0  0  0  0  0  0  0  0  0  0  0
   -1.8512   -0.7915   28.1443 C   0  0  0  0  0  0  0  0  0  0  0  0
   -2.6030   -0.4986   29.3075 C   0  0  0  0  0  0  0  0  0  0  0  0
   -3.9609   -0.6234   29.2913 C   0  0  0  0  0  0  0  0  0  0  0  0
   -4.8817   -0.2512   30.6825 Cl  0  0  0  0  0  0  0  0  0  0  0  0
   -9.4972   -2.9850   28.2520 Cl  0  0  0  0  0  0  0  0  0  0  0  0
  -11.3398    4.1398   27.3402 C   0  0  0  0  0  0  0  0  0  0  0  0
  -12.0144    3.6295   28.4526 C   0  0  0  0  0  0  0  0  0  0  0  0
  -13.3935    3.9566   28.6909 C   0  0  0  0  0  0  0  0  0  0  0  0
  -14.0580    3.4578   29.8010 C   0  0  0  0  0  0  0  0  0  0  0  0
  -13.3356    2.6071   30.6655 C   0  0  0  0  0  0  0  0  0  0  0  0
  -12.0596    2.2230   30.2922 C   0  0  0  0  0  0  0  0  0  0  0  0
  -11.4029    2.6855   29.3070 C   0  0  0  0  0  0  0  0  0  0  0  0
  -14.0625    2.0822   31.8526 C   0  0  0  0  0  0  0  0  0  0  0  0
  -13.7870    2.4698   32.9231 O   0  0  0  0  0  0  0  0  0  0  0  0
  -14.6543    0.9148   31.7199 O   0  0  0  0  0  0  0  0  0  0  0  0
  -13.7951    3.7299   33.4405 C   0  0  0  0  0  0  0  0  0  0  0  0
  -14.7644    4.5841   33.3150 C   0  0  0  0  0  0  0  0  0  0  0  0
  -14.7593    5.6869   34.1039 C   0  0  0  0  0  0  0  0  0  0  0  0
  -13.7563    5.9951   35.0346 C   0  0  0  0  0  0  0  0  0  0  0  0
  -12.6561    5.0151   35.1332 C   0  0  0  0  0  0  0  0  0  0  0  0
  -12.7113    3.9185   34.4617 C   0  0  0  0  0  0  0  0  0  0  0  0
  -11.6151    5.2629   36.1543 C   0  0  0  0  0  0  0  0  0  0  0  0
  2  7  1  0
  7  8  1  0
  5  9  1  0
  7 15  2  0
 14 16  1  0
 21 22  1  0
 11 23  1  0
  3 24  1  0
 28 31  1  0
 31 32  1  0
 31 33  2  0
 32 34  1  0
 38 40  1  0
 24 25  1  0
 25 26  2  0
 26 27  1  0
 27 28  2  0
 28 29  1  0
 29 30  2  0
 30 25  1  0
  1  2  2  0
  2  3  1  0
  3  6  2  0
  6  5  1  0
  5  4  2  0
  4  1  1  0
 34 35  2  0
 35 36  1  0
 36 37  2  0
 37 38  1  0
 38 39  2  0
 39 34  1  0
  9 10  2  0
 10 11  1  0
 11 12  2  0
 12 14  1  0
 14 13  2  0
 13  9  1  0
 16 17  2  0
 17 18  1  0
 18 19  2  0
 19 20  1  0
 20 21  2  0
 21 16  1  0
M  END
$$$$
