No_7225-complexes_sdf/6BKW-FPZ/2024-09-17-14-21-01/
     RDKit          3D

 23 25  0  0  0  0  0  0  0  0999 V2000
   -7.2496    3.8871   27.4508 C   0  0  0  0  0  0  0  0  0  0  0  0
   -7.6161    2.7143   27.1523 C   0  0  0  0  0  0  0  0  0  0  0  0
   -8.8302    2.4659   26.5056 C   0  0  0  0  0  0  0  0  0  0  0  0
   -8.1584    5.0090   27.3234 C   0  0  0  0  0  0  0  0  0  0  0  0
   -9.3788    4.7965   26.7695 C   0  0  0  0  0  0  0  0  0  0  0  0
   -9.7028    3.5649   26.3276 C   0  0  0  0  0  0  0  0  0  0  0  0
   -6.7803    1.6411   27.3559 N   0  0  0  0  0  0  0  0  0  0  0  0
   -7.0291    0.3561   27.0278 C   0  0  0  0  0  0  0  0  0  0  0  0
   -8.2418    0.0828   26.5397 C   0  0  0  0  0  0  0  0  0  0  0  0
   -9.1666    1.1121   26.2215 C   0  0  0  0  0  0  0  0  0  0  0  0
   -7.7091    6.3628   27.8098 C   0  0  0  0  0  0  0  0  0  0  0  0
   -6.0637   -0.6308   27.4355 C   0  0  0  0  0  0  0  0  0  0  0  0
   -6.3602   -1.7025   27.1643 F   0  0  0  0  0  0  0  0  0  0  0  0
   -5.8724   -0.5152   28.8437 F   0  0  0  0  0  0  0  0  0  0  0  0
   -4.8661   -0.2817   26.8484 F   0  0  0  0  0  0  0  0  0  0  0  0
   -8.3438    7.5018   27.1112 C   0  0  0  0  0  0  0  0  0  0  0  0
  -10.9854    3.3788   25.6295 C   0  0  0  0  0  0  0  0  0  0  0  0
  -12.0840    3.3746   26.3793 C   0  0  0  0  0  0  0  0  0  0  0  0
  -13.3869    3.2511   25.7810 C   0  0  0  0  0  0  0  0  0  0  0  0
  -13.4384    3.1397   24.3998 C   0  0  0  0  0  0  0  0  0  0  0  0
  -11.0881    3.2899   24.2562 C   0  0  0  0  0  0  0  0  0  0  0  0
  -12.2635    3.1972   23.6369 C   0  0  0  0  0  0  0  0  0  0  0  0
  -10.2805    0.7743   25.7156 F   0  0  0  0  0  0  0  0  0  0  0  0
  4 11  1  0
  8 12  1  0
 12 13  1  0
 12 14  1  0
 12 15  1  0
 11 16  2  0
  6 17  1  0
 10 23  1  0
 17 18  2  0
 18 19  1  0
 19 20  2  0
 20 22  1  0
 22 21  2  0
 21 17  1  0
  1  2  2  0
  3  6  2  0
  6  5  1  0
  5  4  2  0
  4  1  1  0
  2  3  1  0
  3 10  1  0
 10  9  2  0
  9  8  1  0
  8  7  2  0
  7  2  1  0
M  END
$$$$
