No_7238-complexes_sdf/6BKW-FPZ/2024-09-17-14-21-01/
     RDKit          3D

 24 27  0  0  0  0  0  0  0  0999 V2000
   -7.2496    3.8871   27.4508 C   0  0  0  0  0  0  0  0  0  0  0  0
   -7.9379    4.9063   27.8518 C   0  0  0  0  0  0  0  0  0  0  0  0
   -9.3460    4.8223   27.8695 C   0  0  0  0  0  0  0  0  0  0  0  0
   -7.8628    2.6163   27.1065 C   0  0  0  0  0  0  0  0  0  0  0  0
   -9.2787    2.5744   27.1970 C   0  0  0  0  0  0  0  0  0  0  0  0
  -10.0108    3.6770   27.6340 C   0  0  0  0  0  0  0  0  0  0  0  0
  -11.4855    3.5731   27.7420 C   0  0  0  0  0  0  0  0  0  0  0  0
  -12.0293    2.8456   27.0189 C   0  0  0  0  0  0  0  0  0  0  0  0
  -13.5102    2.7812   27.1373 C   0  0  0  0  0  0  0  0  0  0  0  0
  -14.1668    3.6327   28.0205 C   0  0  0  0  0  0  0  0  0  0  0  0
  -13.4831    4.5355   28.7575 C   0  0  0  0  0  0  0  0  0  0  0  0
  -12.0877    4.5955   28.6456 C   0  0  0  0  0  0  0  0  0  0  0  0
   -6.9558    1.2838   26.7042 Cl  0  0  0  0  0  0  0  0  0  0  0  0
   -7.1545    6.4083   28.1975 Cl  0  0  0  0  0  0  0  0  0  0  0  0
  -15.6612    3.5795   28.1106 C   0  0  0  0  0  0  0  0  0  0  0  0
  -16.3121    3.3347   27.2442 C   0  0  0  0  0  0  0  0  0  0  0  0
  -17.7530    3.1123   27.3612 C   0  0  0  0  0  0  0  0  0  0  0  0
  -18.3242    3.4051   28.5984 C   0  0  0  0  0  0  0  0  0  0  0  0
  -17.5304    3.7670   29.6380 C   0  0  0  0  0  0  0  0  0  0  0  0
  -16.1349    3.8767   29.5056 C   0  0  0  0  0  0  0  0  0  0  0  0
  -18.5989    2.7797   26.2357 C   0  0  0  0  0  0  0  0  0  0  0  0
  -18.2579    2.2340   25.3102 N   0  0  0  0  0  0  0  0  0  0  0  0
  -17.0372    1.7501   25.2123 C   0  0  0  0  0  0  0  0  0  0  0  0
  -15.9324    2.4919   25.9122 C   0  0  0  0  0  0  0  0  0  0  0  0
  6  7  1  0
  4 13  1  0
  2 14  1  0
 10 15  1  0
 15 16  2  0
 17 18  2  0
 18 19  1  0
 19 20  2  0
 20 15  1  0
  1  2  2  0
  2  3  1  0
  3  6  2  0
  6  5  1  0
  5  4  2  0
  4  1  1  0
 16 17  1  0
 17 21  1  0
 21 22  2  0
 22 23  1  0
 23 24  2  0
 24 16  1  0
  7  8  2  0
  8  9  1  0
  9 10  2  0
 10 11  1  0
 11 12  2  0
 12  7  1  0
M  END
$$$$
