No_7829-complexes_sdf/6BKW-FPZ/2024-09-17-14-21-01/
     RDKit          3D

 16 16  0  0  0  0  0  0  0  0999 V2000
   -7.2496    3.8871   27.4508 C   0  0  0  0  0  0  0  0  0  0  0  0
   -7.9379    4.9063   27.8518 C   0  0  0  0  0  0  0  0  0  0  0  0
   -8.7729    5.5444   27.0168 C   0  0  0  0  0  0  0  0  0  0  0  0
   -6.2858    3.2138   28.3467 C   0  0  0  0  0  0  0  0  0  0  0  0
   -9.2459    4.9714   25.8185 C   0  0  0  0  0  0  0  0  0  0  0  0
   -8.7245    3.6550   25.5132 C   0  0  0  0  0  0  0  0  0  0  0  0
   -7.8326    3.1219   26.4052 C   0  0  0  0  0  0  0  0  0  0  0  0
   -5.3200    2.3787   27.6020 C   0  0  0  0  0  0  0  0  0  0  0  0
   -5.8900    1.1428   27.2503 C   0  0  0  0  0  0  0  0  0  0  0  0
   -6.3096    0.2671   28.0419 C   0  0  0  0  0  0  0  0  0  0  0  0
   -6.8623   -1.0290   27.6717 C   0  0  1  0  0  0  0  0  0  0  0  0
   -7.1309   -1.9461   28.6545 C   0  0  0  0  0  0  0  0  0  0  0  0
   -8.3121   -2.6269   28.6562 C   0  0  0  0  0  0  0  0  0  0  0  0
   -9.0576   -2.6698   27.4412 C   0  0  0  0  0  0  0  0  0  0  0  0
  -10.1870   -3.4579   27.4324 C   0  0  0  0  0  0  0  0  0  0  0  0
   -7.5694   -1.1961   26.4770 C   0  0  0  0  0  0  0  0  0  0  0  0
  1  4  1  0
  4  8  2  3
  8  9  1  0
  9 10  2  3
 10 11  1  0
 11 12  1  0
 12 13  2  3
 13 14  1  0
 14 15  2  0
 11 16  1  1
  1  2  2  0
  2  3  1  0
  3  5  2  0
  5  6  1  0
  6  7  2  0
  7  1  1  0
M  END
$$$$
