No_7943-complexes_sdf/6BKW-FPZ/2024-09-17-14-21-01/
     RDKit          3D

 22 23  0  0  0  0  0  0  0  0999 V2000
   -7.9040    3.9820   27.1177 C   0  0  0  0  0  0  0  0  0  0  0  0
   -7.8663    4.8694   27.9238 C   0  0  0  0  0  0  0  0  0  0  0  0
   -9.0491    3.8523   26.2542 C   0  0  0  0  0  0  0  0  0  0  0  0
   -8.7661    5.9491   27.9690 C   0  0  0  0  0  0  0  0  0  0  0  0
   -9.9295    4.8502   26.2323 C   0  0  0  0  0  0  0  0  0  0  0  0
   -9.8077    5.9288   27.0933 C   0  0  0  0  0  0  0  0  0  0  0  0
   -7.0120    2.8934   27.1746 N   0  0  0  0  0  0  0  0  0  0  0  0
   -7.2911    1.5905   26.8161 C   0  0  0  0  0  0  0  0  0  0  0  0
   -6.3069    0.6382   27.1886 C   0  0  0  0  0  0  0  0  0  0  0  0
   -5.2276    1.3120   27.8406 C   0  0  2  0  0  0  0  0  0  0  0  0
   -5.7191    2.8003   27.7926 C   0  0  0  0  0  0  0  0  0  0  0  0
   -4.0154    1.0020   28.3424 C   0  0  0  0  0  0  0  0  0  0  0  0
   -3.2147    0.2113   28.0088 C   0  0  0  0  0  0  0  0  0  0  0  0
   -2.1720   -0.4357   28.8476 C   0  0  0  0  0  0  0  0  0  0  0  0
   -2.6809    0.2178   26.6081 C   0  0  0  0  0  0  0  0  0  0  0  0
   -2.4788   -0.6114   30.1075 N   0  0  0  0  0  0  0  0  0  0  0  0
   -2.1165   -1.6020   30.9662 C   0  0  0  0  0  0  0  0  0  0  0  0
   -2.4158   -1.3667   32.3626 C   0  0  0  0  0  0  0  0  0  0  0  0
   -1.7628   -1.7704   33.3295 C   0  0  0  0  0  0  0  0  0  0  0  0
   -2.0535   -1.4180   34.7475 C   0  0  0  0  0  0  0  0  0  0  0  0
   -3.2178   -0.6626   34.9715 C   0  0  0  0  0  0  0  0  0  0  0  0
   -3.9713   -0.2827   33.9028 C   0  0  0  0  0  0  0  0  0  0  0  0
  1  7  1  0
  7  8  1  0
  8  9  2  0
  9 10  1  0
  7 11  1  0
 10 11  1  6
 10 12  1  0
 12 13  2  3
 13 14  1  0
 13 15  1  0
 14 16  1  0
 16 17  1  0
 17 18  2  3
 18 19  1  0
 19 20  2  3
 20 21  1  0
 21 22  2  0
  1  2  2  0
  2  4  1  0
  4  6  2  0
  6  5  1  0
  5  3  2  0
  3  1  1  0
M  END
$$$$
