No_7878-complexes_sdf/6BKW-FPZ/2024-09-17-14-21-01/
     RDKit          3D

 13 14  0  0  0  0  0  0  0  0999 V2000
   -7.7129    4.2099   27.0854 C   0  0  0  0  0  0  0  0  0  0  0  0
   -8.2112    3.0637   26.9225 C   0  0  0  0  0  0  0  0  0  0  0  0
   -8.4224    5.2106   27.8516 C   0  0  0  0  0  0  0  0  0  0  0  0
   -9.5628    2.7160   27.4089 C   0  0  0  0  0  0  0  0  0  0  0  0
  -10.2639    3.7034   28.1156 C   0  0  0  0  0  0  0  0  0  0  0  0
   -9.7059    4.9514   28.3169 C   0  0  0  0  0  0  0  0  0  0  0  0
  -11.6210    3.4159   28.6340 C   0  0  0  0  0  0  0  0  0  0  0  0
  -12.0063    2.0964   28.7914 C   0  0  0  0  0  0  0  0  0  0  0  0
  -13.2711    1.8145   29.3144 C   0  0  0  0  0  0  0  0  0  0  0  0
  -14.0706    2.8742   29.7475 C   0  0  0  0  0  0  0  0  0  0  0  0
  -13.7308    4.1819   29.5424 C   0  0  0  0  0  0  0  0  0  0  0  0
  -12.4864    4.4650   28.9918 C   0  0  0  0  0  0  0  0  0  0  0  0
   -7.3584    1.7619   26.1900 Cl  0  0  0  0  0  0  0  0  0  0  0  0
  5  7  1  0
  2 13  1  0
  1  2  2  0
  2  4  1  0
  4  5  2  0
  5  6  1  0
  6  3  2  0
  3  1  1  0
  7  8  2  0
  8  9  1  0
  9 10  2  0
 10 11  1  0
 11 12  2  0
 12  7  1  0
M  END
$$$$
