No_7876-complexes_sdf/6BKW-FPZ/2024-09-17-14-21-01/
     RDKit          3D

 31 33  0  0  0  0  0  0  0  0999 V2000
   -7.2496    3.8871   27.4508 C   0  0  0  0  0  0  0  0  0  0  0  0
   -7.9379    4.9063   27.8518 C   0  0  0  0  0  0  0  0  0  0  0  0
   -9.3460    4.8223   27.8695 C   0  0  0  0  0  0  0  0  0  0  0  0
   -7.8628    2.6163   27.1065 C   0  0  0  0  0  0  0  0  0  0  0  0
   -9.2787    2.5744   27.1970 C   0  0  0  0  0  0  0  0  0  0  0  0
  -10.0108    3.6770   27.6340 C   0  0  0  0  0  0  0  0  0  0  0  0
  -11.5178    3.7574   27.7698 C   0  0  0  0  0  0  0  0  0  0  0  0
  -11.9381    3.1535   28.8903 C   0  0  0  0  0  0  0  0  0  0  0  0
  -13.3442    3.1231   29.2495 C   0  0  0  0  0  0  0  0  0  0  0  0
  -14.1801    3.8602   28.3760 C   0  0  0  0  0  0  0  0  0  0  0  0
  -13.6692    4.4615   27.2523 C   0  0  0  0  0  0  0  0  0  0  0  0
  -12.3068    4.4874   26.9751 C   0  0  0  0  0  0  0  0  0  0  0  0
   -7.0044    1.2581   26.7176 Cl  0  0  0  0  0  0  0  0  0  0  0  0
   -7.3009    6.0571   28.1105 O   0  0  0  0  0  0  0  0  0  0  0  0
  -13.8327    2.4099   30.4327 C   0  0  0  0  0  0  0  0  0  0  0  0
  -13.8173    3.0926   31.6115 C   0  0  0  0  0  0  0  0  0  0  0  0
  -14.1210    2.4365   32.8401 C   0  0  0  0  0  0  0  0  0  0  0  0
  -14.5413    1.0926   32.7224 C   0  0  0  0  0  0  0  0  0  0  0  0
  -14.5540    0.4657   31.5268 C   0  0  0  0  0  0  0  0  0  0  0  0
  -14.1524    1.1012   30.3413 C   0  0  0  0  0  0  0  0  0  0  0  0
  -14.1315    3.1929   34.1105 C   0  0  0  0  0  0  0  0  0  0  0  0
  -13.9900    4.2305   34.2414 O   0  0  0  0  0  0  0  0  0  0  0  0
  -14.2817    2.3819   35.1602 O   0  0  0  0  0  0  0  0  0  0  0  0
  -15.6127    3.9335   28.7086 C   0  0  0  0  0  0  0  0  0  0  0  0
  -16.5074    3.7473   28.2948 O   0  0  0  0  0  0  0  0  0  0  0  0
  -15.7172    4.6568   30.0251 O   0  0  0  0  0  0  0  0  0  0  0  0
  -16.7730    5.5378   30.1795 C   0  0  0  0  0  0  0  0  0  0  0  0
  -17.7502    4.9400   30.9016 C   0  0  0  0  0  0  0  0  0  0  0  0
  -18.7915    5.0199   30.5745 O   0  0  0  0  0  0  0  0  0  0  0  0
  -17.4655    4.2956   32.0399 O   0  0  0  0  0  0  0  0  0  0  0  0
  -14.1992    0.2867   28.8656 Cl  0  0  0  0  0  0  0  0  0  0  0  0
  6  7  1  0
  4 13  1  0
  2 14  1  0
  9 15  1  0
 17 21  1  0
 21 22  1  0
 21 23  2  0
 10 24  1  0
 24 25  2  0
 24 26  1  0
 26 27  1  0
 27 28  1  0
 28 29  1  0
 28 30  2  0
 20 31  1  0
 15 16  2  0
 16 17  1  0
 17 18  2  0
 18 19  1  0
 19 20  2  0
 20 15  1  0
  1  2  2  0
  2  3  1  0
  3  6  2  0
  6  5  1  0
  5  4  2  0
  4  1  1  0
  7  8  2  0
  8  9  1  0
  9 10  2  0
 10 11  1  0
 11 12  2  0
 12  7  1  0
M  END
$$$$
