No_7223-complexes_sdf/6BKW-FPZ/2024-09-17-14-21-01/
     RDKit          3D

 30 32  0  0  0  0  0  0  0  0999 V2000
   -7.9040    3.9820   27.1177 C   0  0  0  0  0  0  0  0  0  0  0  0
   -9.0711    4.3164   27.0630 C   0  0  0  0  0  0  0  0  0  0  0  0
   -9.9692    3.7224   26.1073 C   0  0  0  0  0  0  0  0  0  0  0  0
   -6.9787    4.6761   28.1003 C   0  0  0  0  0  0  0  0  0  0  0  0
   -9.4538    2.6801   25.3673 C   0  0  0  0  0  0  0  0  0  0  0  0
   -8.1927    2.1957   25.6621 C   0  0  0  0  0  0  0  0  0  0  0  0
   -7.4333    2.8255   26.6299 C   0  0  0  0  0  0  0  0  0  0  0  0
  -10.3181    2.0008   24.3846 C   0  0  0  0  0  0  0  0  0  0  0  0
   -9.7183    1.2105   23.5031 C   0  0  0  0  0  0  0  0  0  0  0  0
  -10.4449    0.6689   22.4496 C   0  0  0  0  0  0  0  0  0  0  0  0
  -11.8038    0.9417   22.3133 C   0  0  0  0  0  0  0  0  0  0  0  0
  -11.6370    2.3180   24.1156 C   0  0  0  0  0  0  0  0  0  0  0  0
  -12.3653    1.8143   23.1543 C   0  0  0  0  0  0  0  0  0  0  0  0
   -7.4867    5.7971   28.6614 N   0  0  0  0  0  0  0  0  0  0  0  0
   -5.7331    4.3213   28.2828 N   0  0  0  0  0  0  0  0  0  0  0  0
  -13.8055    2.1249   22.9738 C   0  0  0  0  0  0  0  0  0  0  0  0
  -14.5605    2.4570   23.7472 O   0  0  0  0  0  0  0  0  0  0  0  0
  -14.0809    2.4271   21.6603 O   0  0  0  0  0  0  0  0  0  0  0  0
   -9.6239   -0.4520   21.3789 Cl  0  0  0  0  0  0  0  0  0  0  0  0
  -13.5210    2.4345   20.7587 C   0  0  0  0  0  0  0  0  0  0  0  0
  -13.6121    1.5380   19.6875 C   0  0  0  0  0  0  0  0  0  0  0  0
  -12.6612    1.4503   18.6437 C   0  0  0  0  0  0  0  0  0  0  0  0
  -11.6146    2.4198   18.5952 C   0  0  0  0  0  0  0  0  0  0  0  0
  -11.4249    3.3686   19.5699 C   0  0  0  0  0  0  0  0  0  0  0  0
  -12.2899    3.3989   20.5674 C   0  0  0  0  0  0  0  0  0  0  0  0
  -14.5873    0.5399   19.7499 C   0  0  0  0  0  0  0  0  0  0  0  0
  -14.4262   -0.5722   19.1705 C   0  0  0  0  0  0  0  0  0  0  0  0
  -15.4508   -1.5955   19.2946 C   0  0  0  0  0  0  0  0  0  0  0  0
  -15.2844   -2.8215   18.6201 C   0  0  0  0  0  0  0  0  0  0  0  0
  -16.2672   -3.7873   18.7624 C   0  0  0  0  0  0  0  0  0  0  0  0
  1  4  1  0
  5  8  1  0
  4 14  2  0
  4 15  1  0
 13 16  1  0
 16 17  2  0
 16 18  1  0
 10 19  1  0
 18 20  1  0
 21 26  1  0
 26 27  2  3
 27 28  1  0
 28 29  2  3
 29 30  1  0
  8  9  2  0
  9 10  1  0
 10 11  2  0
 11 13  1  0
 13 12  2  0
 12  8  1  0
 20 21  2  0
 21 22  1  0
 22 23  2  0
 23 24  1  0
 24 25  2  0
 25 20  1  0
  1  2  2  0
  2  3  1  0
  3  5  2  0
  5  6  1  0
  6  7  2  0
  7  1  1  0
M  END
$$$$
