No_7339-complexes_sdf/6BKW-FPZ/2024-09-17-14-21-01/
     RDKit          3D

 28 30  0  0  0  0  0  0  0  0999 V2000
   -7.9040    3.9820   27.1177 C   0  0  0  0  0  0  0  0  0  0  0  0
   -9.0711    4.3164   27.0630 C   0  0  0  0  0  0  0  0  0  0  0  0
   -9.5182    5.5541   27.5777 C   0  0  0  0  0  0  0  0  0  0  0  0
   -7.4468    2.6843   26.6499 C   0  0  0  0  0  0  0  0  0  0  0  0
   -8.3856    1.7878   26.2216 C   0  0  0  0  0  0  0  0  0  0  0  0
   -9.6812    2.2328   26.0889 C   0  0  0  0  0  0  0  0  0  0  0  0
  -10.0147    3.4312   26.5259 C   0  0  0  0  0  0  0  0  0  0  0  0
   -7.9132    0.4733   25.8127 C   0  0  0  0  0  0  0  0  0  0  0  0
   -7.9749    0.1125   24.6898 O   0  0  0  0  0  0  0  0  0  0  0  0
   -7.1671   -0.1965   26.6590 O   0  0  0  0  0  0  0  0  0  0  0  0
  -10.7053    5.6979   28.1142 F   0  0  0  0  0  0  0  0  0  0  0  0
   -9.3734    6.6837   26.7119 F   0  0  0  0  0  0  0  0  0  0  0  0
   -8.6234    6.0418   28.6176 F   0  0  0  0  0  0  0  0  0  0  0  0
   -6.6569   -1.3939   26.5431 C   0  0  0  0  0  0  0  0  0  0  0  0
   -6.3427   -2.1180   27.7170 C   0  0  1  0  0  0  0  0  0  0  0  0
   -6.2903   -1.2967   28.8388 C   0  0  2  0  0  0  0  0  0  0  0  0
   -4.9626   -1.1301   29.4903 C   0  0  0  0  0  0  0  0  0  0  0  0
   -4.6049    0.1889   29.9705 C   0  0  0  0  0  0  0  0  0  0  0  0
   -4.0818   -2.1762   29.5409 C   0  0  0  0  0  0  0  0  0  0  0  0
   -2.7926   -1.9430   29.9746 C   0  0  0  0  0  0  0  0  0  0  0  0
   -3.2793    0.3714   30.4012 C   0  0  0  0  0  0  0  0  0  0  0  0
   -2.3910   -0.6953   30.5023 C   0  0  0  0  0  0  0  0  0  0  0  0
   -7.3418   -3.2377   27.9503 C   0  0  0  0  0  0  0  0  0  0  0  0
   -8.3001   -3.0409   28.2588 C   0  0  0  0  0  0  0  0  0  0  0  0
   -8.6444   -2.0283   29.3633 C   0  0  0  0  0  0  0  0  0  0  0  0
   -7.3745   -1.6794   29.9385 C   0  0  0  0  0  0  0  0  0  0  0  0
   -4.8858   -2.7115   27.5330 C   0  0  0  0  0  0  0  0  0  0  0  0
   -4.4906   -3.5022   26.3720 C   0  0  0  0  0  0  0  0  0  0  0  0
  2  3  1  0
  5  8  1  0
  8  9  2  0
  8 10  1  0
  3 11  1  0
  3 12  1  0
  3 13  1  0
 10 14  1  0
 15 14  1  6
 15 16  1  0
 16 17  1  1
 15 23  1  0
 23 24  1  0
 16 26  1  0
 25 26  1  0
 15 27  1  0
 27 28  1  0
 25 24  1  0
 17 18  2  0
 18 21  1  0
 21 22  2  0
 22 20  1  0
 20 19  2  0
 19 17  1  0
  1  2  2  0
  2  7  1  0
  7  6  2  0
  6  5  1  0
  5  4  2  0
  4  1  1  0
M  END
$$$$
