No_7955-complexes_sdf/6BKW-FPZ/2024-09-17-14-21-01/
     RDKit          3D

 25 27  0  0  0  0  0  0  0  0999 V2000
   -7.2496    3.8871   27.4508 C   0  0  0  0  0  0  0  0  0  0  0  0
   -8.5096    4.0291   27.2770 C   0  0  0  0  0  0  0  0  0  0  0  0
   -9.2677    5.1714   27.5773 C   0  0  0  0  0  0  0  0  0  0  0  0
   -6.5711    2.6400   27.2842 C   0  0  0  0  0  0  0  0  0  0  0  0
   -7.2939    1.5094   27.0532 C   0  0  0  0  0  0  0  0  0  0  0  0
   -8.6122    1.6580   26.7575 C   0  0  0  0  0  0  0  0  0  0  0  0
   -9.2984    2.8495   26.9904 C   0  0  0  0  0  0  0  0  0  0  0  0
   -8.5439    6.4004   27.5644 C   0  0  0  0  0  0  0  0  0  0  0  0
  -10.6456    5.1416   27.8945 C   0  0  0  0  0  0  0  0  0  0  0  0
   -6.5903    0.2717   26.8533 C   0  0  0  0  0  0  0  0  0  0  0  0
   -5.3941    0.3554   27.1686 F   0  0  0  0  0  0  0  0  0  0  0  0
   -7.1597   -0.6483   27.7677 F   0  0  0  0  0  0  0  0  0  0  0  0
   -6.8598   -0.1870   25.5859 F   0  0  0  0  0  0  0  0  0  0  0  0
   -9.1255    7.4858   26.7259 C   0  0  0  0  0  0  0  0  0  0  0  0
   -7.2472    6.5682   28.0384 C   0  0  0  0  0  0  0  0  0  0  0  0
  -11.3610    3.9791   27.5893 C   0  0  2  0  0  0  0  0  0  0  0  0
  -12.7540    3.8375   27.8439 C   0  0  0  0  0  0  0  0  0  0  0  0
  -10.6752    2.8356   27.1831 C   0  0  0  0  0  0  0  0  0  0  0  0
  -13.4002    3.9290   28.7141 C   0  0  0  0  0  0  0  0  0  0  0  0
  -14.8116    3.8649   28.9468 C   0  0  0  0  0  0  0  0  0  0  0  0
  -13.5367    3.6701   26.5672 C   0  0  0  0  0  0  0  0  0  0  0  0
  -14.9039    3.6637   26.5902 C   0  0  0  0  0  0  0  0  0  0  0  0
  -15.5365    3.7449   27.8078 C   0  0  0  0  0  0  0  0  0  0  0  0
  -17.2640    3.6265   27.8476 Cl  0  0  0  0  0  0  0  0  0  0  0  0
  -11.3387    1.7556   26.9939 O   0  0  0  0  0  0  0  0  0  0  0  0
  3  8  1  0
  3  9  1  0
  5 10  1  0
 10 11  1  0
 10 12  1  0
 10 13  1  0
  8 14  1  0
  8 15  1  0
 16 17  1  1
  7 18  1  0
 16 18  1  0
 23 24  1  0
 18 25  2  0
  2  3  1  0
  9 16  1  0
 17 19  2  0
 19 20  1  0
 20 23  2  0
 23 22  1  0
 22 21  2  0
 21 17  1  0
  1  2  2  0
  2  7  1  0
  7  6  2  0
  6  5  1  0
  5  4  2  0
  4  1  1  0
M  END
$$$$
