No_7704-complexes_sdf/6BKW-FPZ/2024-09-17-14-21-01/
     RDKit          3D

 22 24  0  0  0  0  0  0  0  0999 V2000
   -7.9040    3.9820   27.1177 C   0  0  0  0  0  0  0  0  0  0  0  0
   -8.2057    2.8231   26.8733 C   0  0  0  0  0  0  0  0  0  0  0  0
   -9.2962    2.4021   26.1155 C   0  0  0  0  0  0  0  0  0  0  0  0
   -8.7358    5.0662   26.5917 C   0  0  0  0  0  0  0  0  0  0  0  0
   -8.4603    6.4492   26.8781 C   0  0  0  0  0  0  0  0  0  0  0  0
  -10.1146    3.3815   25.6105 C   0  0  0  0  0  0  0  0  0  0  0  0
   -9.8194    4.7235   25.8263 C   0  0  0  0  0  0  0  0  0  0  0  0
   -8.6194    7.3002   26.0888 F   0  0  0  0  0  0  0  0  0  0  0  0
   -7.0512    6.5081   27.3343 F   0  0  0  0  0  0  0  0  0  0  0  0
   -9.2341    6.7311   28.0448 F   0  0  0  0  0  0  0  0  0  0  0  0
   -7.3158    1.6595   27.4401 C   0  0  0  0  0  0  0  0  0  0  0  0
   -7.6789    0.3257   27.3714 C   0  0  0  0  0  0  0  0  0  0  0  0
   -6.7992   -0.6289   27.8277 C   0  0  0  0  0  0  0  0  0  0  0  0
   -5.5233   -0.2342   28.3172 C   0  0  0  0  0  0  0  0  0  0  0  0
   -5.1339    1.1176   28.2483 C   0  0  0  0  0  0  0  0  0  0  0  0
   -5.9520    2.0336   27.7941 C   0  0  0  0  0  0  0  0  0  0  0  0
   -4.5890   -1.2702   28.8570 C   0  0  0  0  0  0  0  0  0  0  0  0
   -3.4519   -1.1654   28.6753 C   0  0  0  0  0  0  0  0  0  0  0  0
   -2.4551   -2.1302   29.2080 C   0  0  0  0  0  0  0  0  0  0  0  0
   -2.9919   -3.1742   29.9219 C   0  0  0  0  0  0  0  0  0  0  0  0
   -5.0192   -2.3598   29.6557 C   0  0  0  0  0  0  0  0  0  0  0  0
   -4.2661   -3.2553   30.1656 C   0  0  0  0  0  0  0  0  0  0  0  0
  4  5  1  0
  5  8  1  0
  5  9  1  0
  5 10  1  0
  2 11  1  0
 14 17  1  0
  1  2  2  0
  2  3  1  0
  3  6  2  0
  6  7  1  0
  7  4  2  0
  4  1  1  0
 11 12  2  0
 12 13  1  0
 13 14  2  0
 14 15  1  0
 15 16  2  0
 16 11  1  0
 17 18  2  0
 18 19  1  0
 19 20  2  0
 20 22  1  0
 22 21  2  0
 21 17  1  0
M  END
$$$$
