No_7369-complexes_sdf/6BKW-FPZ/2024-09-17-14-21-01/
     RDKit          3D

 23 25  0  0  0  0  0  0  0  0999 V2000
   -7.9040    3.9820   27.1177 C   0  0  0  0  0  0  0  0  0  0  0  0
   -8.2057    2.8231   26.8733 C   0  0  0  0  0  0  0  0  0  0  0  0
   -8.7695    5.0740   26.7916 C   0  0  0  0  0  0  0  0  0  0  0  0
   -8.4337    6.4678   27.0913 C   0  0  0  0  0  0  0  0  0  0  0  0
   -7.3775    1.6806   27.3986 C   0  0  0  0  0  0  0  0  0  0  0  0
   -7.6795    0.3394   27.2177 C   0  0  0  0  0  0  0  0  0  0  0  0
   -8.9653    0.1016   26.6342 C   0  0  0  0  0  0  0  0  0  0  0  0
   -9.7377    1.1060   26.1275 C   0  0  0  0  0  0  0  0  0  0  0  0
   -9.3779    2.4385   26.3040 C   0  0  0  0  0  0  0  0  0  0  0  0
   -9.3191    7.4968   26.6788 C   0  0  0  0  0  0  0  0  0  0  0  0
   -9.9150    4.8012   26.0094 C   0  0  0  0  0  0  0  0  0  0  0  0
  -10.2740    3.4485   25.8135 C   0  0  0  0  0  0  0  0  0  0  0  0
   -7.1358    6.7251   27.6882 C   0  0  0  0  0  0  0  0  0  0  0  0
   -6.8461   -0.6824   27.7733 C   0  0  0  0  0  0  0  0  0  0  0  0
   -7.3298   -1.4781   28.4201 F   0  0  0  0  0  0  0  0  0  0  0  0
   -5.8240   -0.0415   28.5104 F   0  0  0  0  0  0  0  0  0  0  0  0
   -6.1482   -1.2174   26.7047 F   0  0  0  0  0  0  0  0  0  0  0  0
  -11.2931    3.2522   25.0928 F   0  0  0  0  0  0  0  0  0  0  0  0
   -6.6173    5.8104   28.3151 F   0  0  0  0  0  0  0  0  0  0  0  0
   -6.5278    7.8764   27.2749 C   0  0  0  0  0  0  0  0  0  0  0  0
   -8.6858    8.7665   26.8328 N   0  0  0  0  0  0  0  0  0  0  0  0
   -7.3653    8.9510   27.1018 C   0  0  0  0  0  0  0  0  0  0  0  0
  -10.8136    0.7337   25.5267 F   0  0  0  0  0  0  0  0  0  0  0  0
  3  4  1  0
  6 14  1  0
 14 15  1  0
 14 16  1  0
 14 17  1  0
 12 18  1  0
 13 19  1  0
  8 23  1  0
  2  5  1  0
  5  6  2  0
  6  7  1  0
  7  8  2  0
  8  9  1  0
  4 10  2  0
 10 21  1  0
 21 22  2  0
 22 20  1  0
 20 13  2  0
 13  4  1  0
  1  2  2  0
  2  9  1  0
  9 12  2  0
 12 11  1  0
 11  3  2  0
  3  1  1  0
M  END
$$$$
