No_748-complexes_sdf/6BKW-FPZ/2024-09-17-14-21-01/
     RDKit          3D

 35 39  0  0  0  0  0  0  0  0999 V2000
   -7.2496    3.8871   27.4508 C   0  0  0  0  0  0  0  0  0  0  0  0
   -7.6161    2.7143   27.1523 C   0  0  0  0  0  0  0  0  0  0  0  0
   -6.9719    1.5838   27.5324 C   0  0  0  0  0  0  0  0  0  0  0  0
   -7.4590    0.2827   27.2615 C   0  0  0  0  0  0  0  0  0  0  0  0
   -8.8629    2.3938   26.5063 C   0  0  0  0  0  0  0  0  0  0  0  0
   -9.3223    1.1948   26.1623 C   0  0  0  0  0  0  0  0  0  0  0  0
   -8.5674    0.0945   26.6187 C   0  0  0  0  0  0  0  0  0  0  0  0
   -8.0621    5.0458   27.1866 C   0  0  0  0  0  0  0  0  0  0  0  0
   -9.2131    4.9547   26.3859 C   0  0  0  0  0  0  0  0  0  0  0  0
   -9.6635    3.6444   26.1149 C   0  0  0  0  0  0  0  0  0  0  0  0
   -7.5834    6.4087   27.5964 C   0  0  0  0  0  0  0  0  0  0  0  0
  -10.8581    3.5195   25.2798 C   0  0  0  0  0  0  0  0  0  0  0  0
  -10.7685    3.8314   23.9825 C   0  0  0  0  0  0  0  0  0  0  0  0
  -11.8845    3.7713   23.1208 C   0  0  0  0  0  0  0  0  0  0  0  0
  -13.1125    3.4375   23.6277 C   0  0  0  0  0  0  0  0  0  0  0  0
  -12.0664    3.0800   25.8000 C   0  0  0  0  0  0  0  0  0  0  0  0
  -13.1910    3.0846   25.0042 C   0  0  0  0  0  0  0  0  0  0  0  0
   -6.5069   -1.0915   27.8259 Cl  0  0  0  0  0  0  0  0  0  0  0  0
   -8.3452    7.4117   27.2791 O   0  0  0  0  0  0  0  0  0  0  0  0
   -6.8716    6.5621   28.6346 O   0  0  0  0  0  0  0  0  0  0  0  0
  -12.2268    2.7513   27.2506 C   0  0  2  0  0  0  0  0  0  0  0  0
  -11.9218    3.6100   28.2969 C   0  0  0  0  0  0  0  0  0  0  0  0
  -12.6109    1.4124   27.5191 C   0  0  0  0  0  0  0  0  0  0  0  0
  -13.4609    1.1446   28.1582 C   0  0  0  0  0  0  0  0  0  0  0  0
  -13.8195   -0.2310   28.5100 C   0  0  0  0  0  0  0  0  0  0  0  0
  -13.1855   -1.1854   27.7348 C   0  0  0  0  0  0  0  0  0  0  0  0
  -12.2844   -0.8654   26.8016 C   0  0  0  0  0  0  0  0  0  0  0  0
  -11.9953    0.4847   26.6365 C   0  0  0  0  0  0  0  0  0  0  0  0
  -11.6971   -1.8442   26.0605 O   0  0  0  0  0  0  0  0  0  0  0  0
  -11.4791   -1.6783   24.7152 C   0  0  0  0  0  0  0  0  0  0  0  0
  -12.3840   -1.3029   23.9496 C   0  0  0  0  0  0  0  0  0  0  0  0
  -12.1091   -0.7867   22.6898 C   0  0  0  0  0  0  0  0  0  0  0  0
  -10.8117   -0.9146   22.2223 C   0  0  0  0  0  0  0  0  0  0  0  0
   -9.7998   -1.3582   23.0186 C   0  0  0  0  0  0  0  0  0  0  0  0
  -10.0821   -1.6871   24.3169 C   0  0  0  0  0  0  0  0  0  0  0  0
  8 11  1  0
 10 12  1  0
  4 18  1  0
 11 19  2  0
 11 20  1  0
 16 21  1  0
 21 22  1  1
 21 23  1  0
 27 29  1  0
 29 30  1  0
 23 24  2  0
 24 25  1  0
 25 26  2  0
 26 27  1  0
 27 28  2  0
 28 23  1  0
 30 31  2  0
 31 32  1  0
 32 33  2  0
 33 34  1  0
 34 35  2  0
 35 30  1  0
 12 13  2  0
 13 14  1  0
 14 15  2  0
 15 17  1  0
 17 16  2  0
 16 12  1  0
  2  3  1  0
  3  4  2  0
  4  7  1  0
  7  6  2  0
  6  5  1  0
  1  2  2  0
  2  5  1  0
  5 10  2  0
 10  9  1  0
  9  8  2  0
  8  1  1  0
M  END
$$$$
