No_7508-complexes_sdf/6BKW-FPZ/2024-09-17-14-21-01/
     RDKit          3D

 16 16  0  0  0  0  0  0  0  0999 V2000
   -7.7129    4.2099   27.0854 C   0  0  0  0  0  0  0  0  0  0  0  0
   -8.2112    3.0637   26.9225 C   0  0  0  0  0  0  0  0  0  0  0  0
   -8.5108    5.3904   26.9436 C   0  0  0  0  0  0  0  0  0  0  0  0
   -7.9752    6.6981   27.2112 C   0  0  0  0  0  0  0  0  0  0  0  0
   -9.5213    2.8208   26.4688 C   0  0  0  0  0  0  0  0  0  0  0  0
  -10.2979    3.9327   26.2378 C   0  0  0  0  0  0  0  0  0  0  0  0
   -9.7894    5.2123   26.4395 C   0  0  0  0  0  0  0  0  0  0  0  0
   -7.3451    1.8185   27.1796 C   0  0  0  0  0  0  0  0  0  0  0  0
   -7.7334    0.5959   26.9376 N   0  0  0  0  0  0  0  0  0  0  0  0
   -6.1752    2.0125   27.6708 O   0  0  0  0  0  0  0  0  0  0  0  0
   -6.9166   -0.5829   27.2353 C   0  0  0  0  0  0  0  0  0  0  0  0
   -8.6211    7.8148   26.8031 N   0  0  0  0  0  0  0  0  0  0  0  0
   -5.8329   -0.6305   27.4282 C   0  0  0  0  0  0  0  0  0  0  0  0
   -4.9722   -0.1138   27.3994 C   0  0  0  0  0  0  0  0  0  0  0  0
   -5.1061    1.4414   27.7750 C   0  0  0  0  0  0  0  0  0  0  0  0
   -4.0372    2.1084   28.1825 O   0  0  0  0  0  0  0  0  0  0  0  0
  3  4  1  0
  2  8  1  0
  8  9  1  0
  8 10  2  0
  9 11  1  0
  4 12  1  0
 11 13  1  0
 13 14  2  3
 14 15  1  0
 15 16  1  0
  1  2  2  0
  2  5  1  0
  5  6  2  0
  6  7  1  0
  7  3  2  0
  3  1  1  0
M  END
$$$$
