No_7817-complexes_sdf/6BKW-FPZ/2024-09-17-14-21-01/
     RDKit          3D

 19 21  0  0  0  0  0  0  0  0999 V2000
   -7.9040    3.9820   27.1177 C   0  0  0  0  0  0  0  0  0  0  0  0
   -7.8663    4.8694   27.9238 C   0  0  0  0  0  0  0  0  0  0  0  0
   -9.0953    3.1697   27.0532 C   0  0  0  0  0  0  0  0  0  0  0  0
  -10.1313    3.4052   27.8871 C   0  0  0  0  0  0  0  0  0  0  0  0
  -10.1178    4.5885   28.6885 C   0  0  0  0  0  0  0  0  0  0  0  0
   -8.9412    5.2994   28.7548 C   0  0  0  0  0  0  0  0  0  0  0  0
   -9.0691    1.9565   26.1695 C   0  0  0  0  0  0  0  0  0  0  0  0
   -8.4258    0.8037   26.4340 C   0  0  0  0  0  0  0  0  0  0  0  0
   -9.6009    2.1707   24.7904 C   0  0  0  0  0  0  0  0  0  0  0  0
   -8.3849   -0.2156   25.5231 C   0  0  0  0  0  0  0  0  0  0  0  0
   -9.5442    1.1785   23.8807 C   0  0  0  0  0  0  0  0  0  0  0  0
   -8.9024   -0.0251   24.2335 C   0  0  0  0  0  0  0  0  0  0  0  0
  -11.3353    2.5773   27.8782 C   0  0  0  0  0  0  0  0  0  0  0  0
  -11.3888    1.4038   27.9135 C   0  0  0  0  0  0  0  0  0  0  0  0
  -12.5238    0.5644   27.9866 C   0  0  0  0  0  0  0  0  0  0  0  0
  -12.5887    3.1857   28.3132 C   0  0  0  0  0  0  0  0  0  0  0  0
  -13.7484    2.5340   28.4167 C   0  0  0  0  0  0  0  0  0  0  0  0
  -13.7022    1.1556   28.2791 C   0  0  0  0  0  0  0  0  0  0  0  0
  -10.2784    3.6864   24.3663 Cl  0  0  0  0  0  0  0  0  0  0  0  0
  3  7  1  0
  4 13  1  0
  9 19  1  0
 13 14  2  0
 14 15  1  0
 15 18  2  0
 18 17  1  0
 17 16  2  0
 16 13  1  0
  1  2  2  0
  2  6  1  0
  6  5  2  0
  5  4  1  0
  4  3  2  0
  3  1  1  0
  7  8  2  0
  8 10  1  0
 10 12  2  0
 12 11  1  0
 11  9  2  0
  9  7  1  0
M  END
$$$$
