No_7254-complexes_sdf/6BKW-FPZ/2024-09-17-14-21-01/
     RDKit          3D

 15 16  0  0  0  0  0  0  0  0999 V2000
   -7.7129    4.2099   27.0854 C   0  0  0  0  0  0  0  0  0  0  0  0
   -8.9133    4.4736   27.0998 C   0  0  0  0  0  0  0  0  0  0  0  0
   -9.4643    5.5426   27.7628 C   0  0  0  0  0  0  0  0  0  0  0  0
   -7.2009    2.9448   26.6134 C   0  0  0  0  0  0  0  0  0  0  0  0
   -8.1365    1.9533   26.2981 C   0  0  0  0  0  0  0  0  0  0  0  0
   -9.4514    2.2934   26.2667 C   0  0  0  0  0  0  0  0  0  0  0  0
   -9.8600    3.4834   26.7068 C   0  0  0  0  0  0  0  0  0  0  0  0
   -7.8187    0.5887   25.9422 C   0  0  0  0  0  0  0  0  0  0  0  0
   -7.1342   -0.1270   26.6965 O   0  0  0  0  0  0  0  0  0  0  0  0
   -8.0761    0.1883   24.7602 O   0  0  0  0  0  0  0  0  0  0  0  0
   -6.7112    5.0553   27.8131 C   0  0  0  0  0  0  0  0  0  0  0  0
   -9.2825    6.7748   27.0965 C   0  0  0  0  0  0  0  0  0  0  0  0
   -8.1537    7.2928   26.5535 C   0  0  0  0  0  0  0  0  0  0  0  0
   -6.8368    7.0344   27.1631 C   0  0  0  0  0  0  0  0  0  0  0  0
   -6.7467    6.4478   27.8604 C   0  0  0  0  0  0  0  0  0  0  0  0
  5  8  1  0
  8  9  2  0
  8 10  1  0
  1 11  1  0
  3 12  1  0
 12 13  2  3
 13 14  1  0
 11 15  1  0
 14 15  2  3
  3  2  1  0
  1  2  2  0
  2  7  1  0
  7  6  2  0
  6  5  1  0
  5  4  2  0
  4  1  1  0
M  END
$$$$
