No_7510-complexes_sdf/6BKW-FPZ/2024-09-17-14-21-01/
     RDKit          3D

 33 37  0  0  0  0  0  0  0  0999 V2000
   -7.9040    3.9820   27.1177 C   0  0  0  0  0  0  0  0  0  0  0  0
   -9.0711    4.3164   27.0630 C   0  0  0  0  0  0  0  0  0  0  0  0
   -9.5294    5.4517   27.7215 C   0  0  0  0  0  0  0  0  0  0  0  0
   -7.4336    2.7132   26.5681 C   0  0  0  0  0  0  0  0  0  0  0  0
   -8.3353    1.8569   26.0442 C   0  0  0  0  0  0  0  0  0  0  0  0
   -9.6437    2.3188   25.9308 C   0  0  0  0  0  0  0  0  0  0  0  0
  -10.0223    3.4772   26.4656 C   0  0  0  0  0  0  0  0  0  0  0  0
   -6.9201    4.7282   27.8113 N   0  0  0  0  0  0  0  0  0  0  0  0
   -7.2696    5.9289   28.3479 C   0  0  0  0  0  0  0  0  0  0  0  0
   -8.5080    6.2898   28.2593 N   0  0  0  0  0  0  0  0  0  0  0  0
  -10.4181    1.2716   25.2101 C   0  0  0  0  0  0  0  0  0  0  0  0
  -10.1494    0.3975   24.7270 C   0  0  0  0  0  0  0  0  0  0  0  0
   -8.6819   -0.0728   24.8832 C   0  0  0  0  0  0  0  0  0  0  0  0
   -7.8365    0.6757   25.5384 C   0  0  0  0  0  0  0  0  0  0  0  0
  -11.6651    3.9966   26.2090 Cl  0  0  0  0  0  0  0  0  0  0  0  0
  -10.9833   -0.6031   23.9679 C   0  0  0  0  0  0  0  0  0  0  0  0
  -11.8763   -1.2938   24.6426 C   0  0  0  0  0  0  0  0  0  0  0  0
  -12.7886   -2.0644   24.0822 C   0  0  0  0  0  0  0  0  0  0  0  0
  -11.6407   -0.1183   22.7229 C   0  0  0  0  0  0  0  0  0  0  0  0
  -10.8489    0.8261   21.8581 C   0  0  0  0  0  0  0  0  0  0  0  0
  -13.1634   -1.8093   22.7662 C   0  0  0  0  0  0  0  0  0  0  0  0
  -12.5184   -0.8264   21.9911 C   0  0  0  0  0  0  0  0  0  0  0  0
  -11.4098    1.7702   21.1227 C   0  0  0  0  0  0  0  0  0  0  0  0
  -10.6359    2.7424   20.4607 C   0  0  0  0  0  0  0  0  0  0  0  0
  -10.2582    3.8211   21.0816 C   0  0  0  0  0  0  0  0  0  0  0  0
  -10.6341    4.2555   22.4301 C   0  0  0  0  0  0  0  0  0  0  0  0
  -10.4026    5.4861   23.0056 C   0  0  0  0  0  0  0  0  0  0  0  0
  -12.8369    1.8177   21.0247 C   0  0  0  0  0  0  0  0  0  0  0  0
  -13.4029    3.0469   21.0139 C   0  0  0  0  0  0  0  0  0  0  0  0
  -14.8623    3.0814   20.8729 C   0  0  0  0  0  0  0  0  0  0  0  0
  -15.5024    1.8793   20.8502 C   0  0  0  0  0  0  0  0  0  0  0  0
  -14.9109    0.7052   20.8506 C   0  0  0  0  0  0  0  0  0  0  0  0
  -13.5308    0.6620   20.9620 C   0  0  0  0  0  0  0  0  0  0  0  0
  7 15  1  0
 12 16  1  0
 19 20  1  0
 20 23  2  3
 23 24  1  0
 24 25  2  3
 25 26  1  0
 26 27  2  0
 23 28  1  0
  2  3  2  0
  3 10  1  0
 10  9  2  0
  9  8  1  0
  8  1  2  0
  1  2  1  0
  2  7  1  0
  7  6  2  0
  5  4  2  0
  4  1  1  0
  5  6  1  0
  6 11  1  0
 11 12  2  0
 12 13  1  0
 13 14  2  0
 14  5  1  0
 28 29  2  0
 29 30  1  0
 30 31  2  0
 31 32  1  0
 32 33  2  0
 33 28  1  0
 16 17  2  0
 17 18  1  0
 18 21  2  0
 21 22  1  0
 22 19  2  0
 19 16  1  0
M  END
$$$$
