No_7433-complexes_sdf/6BKW-FPZ/2024-09-17-14-21-01/
     RDKit          3D

 17 18  0  0  0  0  0  0  0  0999 V2000
   -7.9040    3.9820   27.1177 C   0  0  0  0  0  0  0  0  0  0  0  0
   -8.2057    2.8231   26.8733 C   0  0  0  0  0  0  0  0  0  0  0  0
   -9.2962    2.4021   26.1155 C   0  0  0  0  0  0  0  0  0  0  0  0
   -6.8682    4.5169   28.0704 C   0  0  0  0  0  0  0  0  0  0  0  0
  -10.0578    3.3688   25.5520 C   0  0  0  0  0  0  0  0  0  0  0  0
   -9.6997    4.7480   25.6981 C   0  0  0  0  0  0  0  0  0  0  0  0
   -8.6783    5.1111   26.5262 C   0  0  0  0  0  0  0  0  0  0  0  0
   -8.4564    6.3698   26.7342 F   0  0  0  0  0  0  0  0  0  0  0  0
   -9.5584    0.9721   25.8786 C   0  0  1  0  0  0  0  0  0  0  0  0
  -10.3917    0.3179   26.6922 C   0  0  0  0  0  0  0  0  0  0  0  0
  -11.3547    0.7940   27.3291 C   0  0  0  0  0  0  0  0  0  0  0  0
  -12.1806    0.0522   28.3210 C   0  0  0  0  0  0  0  0  0  0  0  0
  -11.8480   -1.2554   28.5453 C   0  0  0  0  0  0  0  0  0  0  0  0
  -10.8260   -1.8403   27.9184 C   0  0  0  0  0  0  0  0  0  0  0  0
  -10.0320   -1.1020   27.0469 C   0  0  0  0  0  0  0  0  0  0  0  0
   -8.9783    0.3814   24.7090 C   0  0  0  0  0  0  0  0  0  0  0  0
   -9.6838    0.0727   23.5859 C   0  0  0  0  0  0  0  0  0  0  0  0
  1  4  1  0
  7  8  1  0
  3  9  1  0
  9 10  1  0
  9 16  1  6
 16 17  1  0
 10 11  2  0
 11 12  1  0
 12 13  2  0
 13 14  1  0
 14 15  2  0
 15 10  1  0
  1  2  2  0
  2  3  1  0
  3  5  2  0
  5  6  1  0
  6  7  2  0
  7  1  1  0
M  END
$$$$
