No_7775-complexes_sdf/6BKW-FPZ/2024-09-17-14-21-01/
     RDKit          3D

 40 44  0  0  0  0  0  0  0  0999 V2000
   -7.9040    3.9820   27.1177 C   0  0  0  0  0  0  0  0  0  0  0  0
   -8.2057    2.8231   26.8733 C   0  0  0  0  0  0  0  0  0  0  0  0
   -7.0130    4.3706   28.1140 C   0  0  0  0  0  0  0  0  0  0  0  0
   -9.3829    2.4374   26.1668 C   0  0  0  0  0  0  0  0  0  0  0  0
  -10.0835    3.4623   25.6174 C   0  0  0  0  0  0  0  0  0  0  0  0
   -9.6840    4.8061   25.7376 C   0  0  0  0  0  0  0  0  0  0  0  0
   -8.6913    5.1290   26.5593 C   0  0  0  0  0  0  0  0  0  0  0  0
   -8.1711    6.4157   26.9952 C   0  0  0  0  0  0  0  0  0  0  0  0
   -6.7451    5.5939   28.6193 C   0  0  0  0  0  0  0  0  0  0  0  0
   -7.3430    6.6243   27.9558 N   0  0  0  0  0  0  0  0  0  0  0  0
   -8.8279    7.5569   26.4826 N   0  0  0  0  0  0  0  0  0  0  0  0
  -11.1889    3.2147   24.6519 C   0  0  0  0  0  0  0  0  0  0  0  0
  -11.1897    3.8375   23.5081 C   0  0  0  0  0  0  0  0  0  0  0  0
  -12.1582    3.7355   22.5179 C   0  0  0  0  0  0  0  0  0  0  0  0
  -13.2548    2.9500   22.8437 C   0  0  0  0  0  0  0  0  0  0  0  0
  -12.2749    2.4323   24.9198 C   0  0  0  0  0  0  0  0  0  0  0  0
  -13.3245    2.3425   24.0298 C   0  0  0  0  0  0  0  0  0  0  0  0
  -14.5311    1.5234   24.3123 C   0  0  0  0  0  0  0  0  0  0  0  0
  -15.3794    1.3376   23.6804 C   0  0  0  0  0  0  0  0  0  0  0  0
  -15.3306    2.0056   22.3471 C   0  0  0  0  0  0  0  0  0  0  0  0
  -14.3296    2.8405   21.9301 C   0  0  0  0  0  0  0  0  0  0  0  0
  -16.5273    1.8297   21.3873 C   0  0  0  0  0  0  0  0  0  0  0  0
  -16.5316    1.8030   20.3226 O   0  0  0  0  0  0  0  0  0  0  0  0
  -17.6288    1.3068   22.0456 O   0  0  0  0  0  0  0  0  0  0  0  0
  -12.2737    1.8749   26.1439 F   0  0  0  0  0  0  0  0  0  0  0  0
   -7.4637    1.5981   27.4515 C   0  0  0  0  0  0  0  0  0  0  0  0
   -6.0249    1.6036   27.3951 C   0  0  0  0  0  0  0  0  0  0  0  0
   -5.3202    0.5168   27.9252 C   0  0  0  0  0  0  0  0  0  0  0  0
   -3.9496    0.6708   28.2274 C   0  0  0  0  0  0  0  0  0  0  0  0
   -3.3098   -0.3805   28.8587 C   0  0  0  0  0  0  0  0  0  0  0  0
   -3.9685   -1.5316   29.1793 C   0  0  0  0  0  0  0  0  0  0  0  0
   -5.2960   -1.6560   28.8832 C   0  0  0  0  0  0  0  0  0  0  0  0
   -5.9937   -0.6281   28.3101 C   0  0  0  0  0  0  0  0  0  0  0  0
   -3.3002   -2.5289   29.7876 F   0  0  0  0  0  0  0  0  0  0  0  0
  -18.7593    1.1699   21.3610 C   0  0  0  0  0  0  0  0  0  0  0  0
  -19.7551    0.3434   21.9206 C   0  0  0  0  0  0  0  0  0  0  0  0
  -20.9008    0.1452   21.3547 C   0  0  0  0  0  0  0  0  0  0  0  0
  -21.9247   -0.6879   21.9202 C   0  0  0  0  0  0  0  0  0  0  0  0
  -23.1870   -0.9061   21.3212 C   0  0  0  0  0  0  0  0  0  0  0  0
  -23.3771   -0.3250   20.0772 C   0  0  0  0  0  0  0  0  0  0  0  0
  8 11  1  0
  5 12  1  0
 20 22  1  0
 22 23  2  0
 22 24  1  0
 16 25  1  0
  2 26  1  0
 26 27  1  0
 31 34  1  0
 24 35  1  0
 35 36  1  0
 36 37  2  3
 37 38  1  0
 38 39  1  0
 39 40  2  0
 27 28  1  0
 12 13  2  0
 13 14  1  0
 14 15  2  0
 17 16  2  0
 16 12  1  0
 28 29  2  0
 29 30  1  0
 30 31  2  0
 31 32  1  0
 32 33  2  0
 33 28  1  0
 15 17  1  0
 17 18  1  0
 18 19  2  0
 19 20  1  0
 20 21  2  0
 21 15  1  0
  1  3  2  0
  3  9  1  0
  9 10  2  0
 10  8  1  0
  8  7  2  0
  1  2  1  0
  2  4  2  0
  4  5  1  0
  5  6  2  0
  6  7  1  0
  7  1  1  0
M  END
$$$$
