No_7157-complexes_sdf/6BKW-FPZ/2024-09-17-14-21-01/
     RDKit          3D

 15 16  0  0  0  0  0  0  0  0999 V2000
   -7.9040    3.9820   27.1177 C   0  0  0  0  0  0  0  0  0  0  0  0
   -9.0711    4.3164   27.0630 C   0  0  0  0  0  0  0  0  0  0  0  0
   -9.5294    5.4517   27.7215 C   0  0  0  0  0  0  0  0  0  0  0  0
   -7.4336    2.7132   26.5681 C   0  0  0  0  0  0  0  0  0  0  0  0
   -8.3353    1.8569   26.0442 C   0  0  0  0  0  0  0  0  0  0  0  0
   -9.6477    2.2853   25.9146 C   0  0  0  0  0  0  0  0  0  0  0  0
  -10.0346    3.4497   26.4483 C   0  0  0  0  0  0  0  0  0  0  0  0
   -7.6689    0.6304   25.5774 C   0  0  0  0  0  0  0  0  0  0  0  0
   -7.0457   -0.1207   26.4563 N   0  0  0  0  0  0  0  0  0  0  0  0
   -6.0131   -0.8044   26.2272 C   0  0  0  0  0  0  0  0  0  0  0  0
   -5.2299   -1.3559   27.3424 C   0  0  0  0  0  0  0  0  0  0  0  0
   -4.1195   -1.1104   27.6721 C   0  0  0  0  0  0  0  0  0  0  0  0
   -3.1721   -0.5430   26.6627 C   0  0  0  0  0  0  0  0  0  0  0  0
   -3.8027   -0.2762   25.4276 C   0  0  0  0  0  0  0  0  0  0  0  0
   -4.9878    0.2548   25.5800 C   0  0  0  0  0  0  0  0  0  0  0  0
  5  8  1  0
  8  9  1  0
  9 10  1  0
  3  2  1  0
  1  2  2  0
  2  7  1  0
  7  6  2  0
  6  5  1  0
  5  4  2  0
  4  1  1  0
 10 11  2  0
 11 12  1  0
 12 13  2  0
 13 14  1  0
 14 15  2  0
 15 10  1  0
M  END
$$$$
