No_7033-complexes_sdf/6BKW-FPZ/2024-09-17-14-21-01/
     RDKit          3D

 13 13  0  0  0  0  0  0  0  0999 V2000
   -7.7129    4.2099   27.0854 C   0  0  0  0  0  0  0  0  0  0  0  0
   -7.7814    5.1722   27.8972 C   0  0  0  0  0  0  0  0  0  0  0  0
   -7.3155    2.9699   27.6145 C   0  0  0  0  0  0  0  0  0  0  0  0
   -6.9774    2.0071   26.9623 C   0  0  0  0  0  0  0  0  0  0  0  0
   -6.2970    0.8917   27.5555 C   0  0  0  0  0  0  0  0  0  0  0  0
   -5.3521    0.3384   27.4672 C   0  0  0  0  0  0  0  0  0  0  0  0
   -4.3488    0.6532   26.4479 C   0  0  0  0  0  0  0  0  0  0  0  0
   -8.5349    6.3401   27.9835 C   0  0  0  0  0  0  0  0  0  0  0  0
   -2.9369    0.4807   26.6084 C   0  0  0  0  0  0  0  0  0  0  0  0
   -2.5710   -0.3319   27.6987 C   0  0  0  0  0  0  0  0  0  0  0  0
   -3.3887   -0.5333   28.8148 C   0  0  0  0  0  0  0  0  0  0  0  0
   -4.7625   -0.1409   28.7468 C   0  0  0  0  0  0  0  0  0  0  0  0
   -9.1162    6.7414   26.6496 C   0  0  0  0  0  0  0  0  0  0  0  0
  1  2  1  0
  1  3  2  3
  3  4  1  0
  4  5  1  0
  2  8  2  3
  8 13  1  0
  5  6  1  0
  6  7  2  0
  7  9  1  0
  9 10  2  0
 10 11  1  0
 11 12  2  0
 12  6  1  0
M  END
$$$$
