No_7807-complexes_sdf/6BKW-FPZ/2024-09-17-14-21-01/
     RDKit          3D

 22 23  0  0  0  0  0  0  0  0999 V2000
   -7.9040    3.9820   27.1177 C   0  0  0  0  0  0  0  0  0  0  0  0
   -7.8663    4.8694   27.9238 C   0  0  0  0  0  0  0  0  0  0  0  0
   -9.0491    3.8523   26.2542 C   0  0  0  0  0  0  0  0  0  0  0  0
   -8.7661    5.9491   27.9690 C   0  0  0  0  0  0  0  0  0  0  0  0
   -9.9295    4.8502   26.2323 C   0  0  0  0  0  0  0  0  0  0  0  0
   -9.8077    5.9288   27.0933 C   0  0  0  0  0  0  0  0  0  0  0  0
   -7.0146    2.9513   27.1368 F   0  0  0  0  0  0  0  0  0  0  0  0
   -9.1130    2.5493   25.1061 Cl  0  0  0  0  0  0  0  0  0  0  0  0
  -10.9156    4.8421   25.3250 O   0  0  0  0  0  0  0  0  0  0  0  0
  -11.8381    3.8978   25.4295 C   0  0  0  0  0  0  0  0  0  0  0  0
  -12.5547    3.7560   26.3424 C   0  0  0  0  0  0  0  0  0  0  0  0
  -13.6657    2.8611   26.4155 C   0  0  0  0  0  0  0  0  0  0  0  0
  -13.8348    2.0892   25.2825 C   0  0  0  0  0  0  0  0  0  0  0  0
  -12.1968    3.1037   24.2707 C   0  0  0  0  0  0  0  0  0  0  0  0
  -13.1371    2.2616   24.2181 C   0  0  0  0  0  0  0  0  0  0  0  0
  -15.2080    0.9618   25.2760 Cl  0  0  0  0  0  0  0  0  0  0  0  0
  -13.4628    1.5259   22.9632 C   0  0  0  0  0  0  0  0  0  0  0  0
  -14.4056    1.7774   22.3010 F   0  0  0  0  0  0  0  0  0  0  0  0
  -12.3148    1.6974   22.1686 F   0  0  0  0  0  0  0  0  0  0  0  0
  -13.3590    0.1963   23.1995 F   0  0  0  0  0  0  0  0  0  0  0  0
  -14.5775    2.8112   27.9215 Cl  0  0  0  0  0  0  0  0  0  0  0  0
   -6.7246    5.0723   28.7559 O   0  0  0  0  0  0  0  0  0  0  0  0
  1  7  1  0
  3  8  1  0
  5  9  1  0
  9 10  1  0
 13 16  1  0
 15 17  1  0
 17 18  1  0
 17 19  1  0
 17 20  1  0
 12 21  1  0
  2 22  1  0
  1  2  2  0
  2  4  1  0
  4  6  2  0
  6  5  1  0
  5  3  2  0
  3  1  1  0
 10 11  2  0
 11 12  1  0
 12 13  2  0
 13 15  1  0
 15 14  2  0
 14 10  1  0
M  END
$$$$
