No_7456-complexes_sdf/6BKW-FPZ/2024-09-17-14-21-01/
     RDKit          3D

 22 24  0  0  0  0  0  0  0  0999 V2000
   -7.7129    4.2099   27.0854 C   0  0  0  0  0  0  0  0  0  0  0  0
   -7.7814    5.1722   27.8972 C   0  0  0  0  0  0  0  0  0  0  0  0
   -8.8998    3.8713   26.3707 C   0  0  0  0  0  0  0  0  0  0  0  0
   -8.9563    2.6796   25.5490 C   0  0  0  0  0  0  0  0  0  0  0  0
   -8.8131    6.1334   27.9344 C   0  0  0  0  0  0  0  0  0  0  0  0
   -9.9804    5.8121   27.1929 C   0  0  0  0  0  0  0  0  0  0  0  0
   -9.9861    4.6836   26.4532 C   0  0  0  0  0  0  0  0  0  0  0  0
   -9.7347    1.7154   26.0600 C   0  0  0  0  0  0  0  0  0  0  0  0
   -9.5396    0.7709   26.3463 C   0  0  0  0  0  0  0  0  0  0  0  0
  -10.4599   -0.3006   26.9322 C   0  0  0  0  0  0  0  0  0  0  0  0
  -11.7658    0.1628   27.1172 C   0  0  0  0  0  0  0  0  0  0  0  0
  -12.0717    1.4120   26.8090 C   0  0  0  0  0  0  0  0  0  0  0  0
  -11.1695    2.3105   26.3348 C   0  0  0  0  0  0  0  0  0  0  0  0
   -8.1203    0.0632   26.1897 C   0  0  0  0  0  0  0  0  0  0  0  0
   -7.6476   -0.6142   26.9428 N   0  0  0  0  0  0  0  0  0  0  0  0
   -6.8506   -0.7892   27.6055 C   0  0  0  0  0  0  0  0  0  0  0  0
   -5.7222    0.1690   27.3601 C   0  0  0  0  0  0  0  0  0  0  0  0
   -4.4362   -0.0488   27.9050 C   0  0  0  0  0  0  0  0  0  0  0  0
   -3.4319    0.9503   27.6231 C   0  0  0  0  0  0  0  0  0  0  0  0
   -2.6718    1.0593   26.9432 N   0  0  0  0  0  0  0  0  0  0  0  0
   -8.6418   -1.8972   27.0397 C   0  0  0  0  0  0  0  0  0  0  0  0
   -9.9528   -1.4274   27.5997 C   0  0  0  0  0  0  0  0  0  0  0  0
  3  4  1  0
  4  8  1  0
  9 14  1  0
 14 15  1  0
 15 16  1  0
 16 17  2  3
 17 18  1  0
 18 19  1  0
 19 20  1  0
 15 21  1  0
 10 22  1  0
 21 22  1  0
  8  9  2  0
  9 10  1  0
 10 11  2  0
 11 12  1  0
 12 13  2  0
 13  8  1  0
  1  2  2  0
  2  5  1  0
  5  6  2  0
  6  7  1  0
  7  3  2  0
  3  1  1  0
M  END
$$$$
