No_7890-complexes_sdf/6BKW-FPZ/2024-09-17-14-21-01/
     RDKit          3D

 23 25  0  0  0  0  0  0  0  0999 V2000
   -7.2496    3.8871   27.4508 C   0  0  0  0  0  0  0  0  0  0  0  0
   -7.6161    2.7143   27.1523 C   0  0  0  0  0  0  0  0  0  0  0  0
   -8.8302    2.4659   26.5056 C   0  0  0  0  0  0  0  0  0  0  0  0
   -8.1584    5.0089   27.3234 C   0  0  0  0  0  0  0  0  0  0  0  0
   -9.3788    4.7965   26.7695 C   0  0  0  0  0  0  0  0  0  0  0  0
   -9.7028    3.5649   26.3276 C   0  0  0  0  0  0  0  0  0  0  0  0
   -6.5552    1.6737   27.4428 C   0  0  0  0  0  0  0  0  0  0  0  0
   -6.9794    0.3269   27.6483 C   0  0  0  0  0  0  0  0  0  0  0  0
   -6.0232   -0.6304   27.9899 C   0  0  0  0  0  0  0  0  0  0  0  0
   -4.7022   -0.2003   28.2459 C   0  0  0  0  0  0  0  0  0  0  0  0
   -4.3683    1.1180   28.0802 C   0  0  0  0  0  0  0  0  0  0  0  0
   -5.2478    2.0128   27.7808 C   0  0  0  0  0  0  0  0  0  0  0  0
   -7.7142    6.3744   27.7621 C   0  0  0  0  0  0  0  0  0  0  0  0
   -3.7220   -1.2569   28.7051 C   0  0  0  0  0  0  0  0  0  0  0  0
   -3.3802   -1.3088   29.9576 C   0  0  0  0  0  0  0  0  0  0  0  0
   -2.3914   -2.1153   30.4345 C   0  0  0  0  0  0  0  0  0  0  0  0
   -1.7289   -2.9251   29.4997 C   0  0  0  0  0  0  0  0  0  0  0  0
   -2.0186   -2.8109   28.1951 C   0  0  0  0  0  0  0  0  0  0  0  0
   -2.9877   -1.9066   27.7122 C   0  0  0  0  0  0  0  0  0  0  0  0
   -7.6935    7.3716   26.7156 C   0  0  0  0  0  0  0  0  0  0  0  0
   -4.0528   -0.4343   31.0672 C   0  0  0  0  0  0  0  0  0  0  0  0
   -3.7649   -0.5894   32.3347 C   0  0  0  0  0  0  0  0  0  0  0  0
   -2.7029   -1.4365   32.7530 C   0  0  0  0  0  0  0  0  0  0  0  0
  2  7  1  0
  4 13  1  0
 10 14  1  0
 13 20  1  0
 15 21  1  0
 21 22  2  3
 22 23  1  0
 14 15  2  0
 15 16  1  0
 16 17  2  0
 17 18  1  0
 18 19  2  0
 19 14  1  0
  1  2  2  0
  2  3  1  0
  3  6  2  0
  6  5  1  0
  5  4  2  0
  4  1  1  0
  7  8  2  0
  8  9  1  0
  9 10  2  0
 10 11  1  0
 11 12  2  0
 12  7  1  0
M  END
$$$$
