No_7413-complexes_sdf/6BKW-FPZ/2024-09-17-14-21-01/
     RDKit          3D

 40 44  0  0  0  0  0  0  0  0999 V2000
   -7.2496    3.8871   27.4508 C   0  0  0  0  0  0  0  0  0  0  0  0
   -7.9379    4.9063   27.8518 C   0  0  0  0  0  0  0  0  0  0  0  0
   -7.5112    6.1898   27.6280 C   0  0  0  0  0  0  0  0  0  0  0  0
   -7.4783    2.5435   27.5904 C   0  0  1  0  0  0  0  0  0  0  0  0
   -8.8194    2.2030   27.8879 C   0  0  0  0  0  0  0  0  0  0  0  0
   -9.7541    3.2253   28.0908 C   0  0  2  0  0  0  0  0  0  0  0  0
   -9.3329    4.6048   28.1115 C   0  0  0  0  0  0  0  0  0  0  0  0
   -6.4665    1.6036   27.1149 C   0  0  0  0  0  0  0  0  0  0  0  0
   -5.4121    1.5577   27.8974 N   0  0  0  0  0  0  0  0  0  0  0  0
   -4.3940    0.5899   27.8017 C   0  0  0  0  0  0  0  0  0  0  0  0
   -4.6243   -0.5960   28.4709 C   0  0  0  0  0  0  0  0  0  0  0  0
   -5.6435   -0.7336   29.3112 C   0  0  0  0  0  0  0  0  0  0  0  0
   -3.7689   -1.7034   28.2182 C   0  0  0  0  0  0  0  0  0  0  0  0
  -11.1345    2.9020   28.5031 C   0  0  0  0  0  0  0  0  0  0  0  0
  -11.6981    1.6603   28.4467 C   0  0  0  0  0  0  0  0  0  0  0  0
  -12.9801    1.3937   28.8612 C   0  0  0  0  0  0  0  0  0  0  0  0
  -13.7420    2.4697   29.4235 C   0  0  0  0  0  0  0  0  0  0  0  0
  -13.2479    3.7408   29.4670 C   0  0  0  0  0  0  0  0  0  0  0  0
  -11.9615    3.9999   29.0092 C   0  0  0  0  0  0  0  0  0  0  0  0
   -3.2316    1.0233   27.4646 O   0  0  0  0  0  0  0  0  0  0  0  0
   -6.0213   -2.0866   29.9448 C   0  0  0  0  0  0  0  0  0  0  0  0
   -4.0988   -2.9770   28.7686 C   0  0  0  0  0  0  0  0  0  0  0  0
   -5.1248   -3.0802   29.7102 C   0  0  0  0  0  0  0  0  0  0  0  0
   -6.7850    0.6735   26.3801 O   0  0  0  0  0  0  0  0  0  0  0  0
   -8.2340    7.2660   26.8741 C   0  0  0  0  0  0  0  0  0  0  0  0
  -15.1451    2.1747   29.8562 C   0  0  0  0  0  0  0  0  0  0  0  0
  -15.7123    1.2346   29.5856 C   0  0  0  0  0  0  0  0  0  0  0  0
  -17.0423    0.9758   30.0269 C   0  0  0  0  0  0  0  0  0  0  0  0
  -17.6667    1.9784   30.7969 C   0  0  0  0  0  0  0  0  0  0  0  0
  -17.0295    3.1151   31.1077 C   0  0  0  0  0  0  0  0  0  0  0  0
  -15.7083    3.3243   30.6961 C   0  0  0  0  0  0  0  0  0  0  0  0
   -9.4267    7.0392   26.4533 O   0  0  0  0  0  0  0  0  0  0  0  0
   -7.8973    8.4517   27.1854 O   0  0  0  0  0  0  0  0  0  0  0  0
   -5.4659   -4.3966   30.2993 C   0  0  0  0  0  0  0  0  0  0  0  0
   -6.3931   -4.8758   30.6231 C   0  0  0  0  0  0  0  0  0  0  0  0
   -6.6106   -6.1532   31.2971 C   0  0  0  0  0  0  0  0  0  0  0  0
   -5.4469   -6.9015   31.4333 C   0  0  0  0  0  0  0  0  0  0  0  0
   -4.2748   -6.4508   31.0205 C   0  0  0  0  0  0  0  0  0  0  0  0
   -4.1230   -5.1621   30.4765 C   0  0  0  0  0  0  0  0  0  0  0  0
   -3.0233   -7.2103   31.1973 C   0  0  0  0  0  0  0  0  0  0  0  0
  1  2  1  0
  2  3  2  3
  1  4  1  0
  4  5  1  0
  5  6  1  0
  2  7  1  0
  6  7  1  0
  4  8  1  6
  8  9  1  0
  9 10  1  0
 10 11  1  0
  6 14  1  1
 10 20  2  0
  8 24  2  0
  3 25  1  0
 17 26  1  0
 25 32  1  0
 25 33  2  0
 23 34  1  0
 38 40  1  0
 11 12  2  0
 12 21  1  0
 21 23  2  0
 23 22  1  0
 22 13  2  0
 13 11  1  0
 14 15  2  0
 15 16  1  0
 16 17  2  0
 17 18  1  0
 18 19  2  0
 19 14  1  0
 34 35  2  0
 35 36  1  0
 36 37  2  0
 37 38  1  0
 38 39  2  0
 39 34  1  0
 26 27  2  0
 27 28  1  0
 28 29  2  0
 29 30  1  0
 30 31  2  0
 31 26  1  0
M  END
$$$$
