No_7434-complexes_sdf/6BKW-FPZ/2024-09-17-14-21-01/
     RDKit          3D

 20 22  0  0  0  0  0  0  0  0999 V2000
   -7.7129    4.2099   27.0854 C   0  0  0  0  0  0  0  0  0  0  0  0
   -8.9133    4.4736   27.0998 C   0  0  0  0  0  0  0  0  0  0  0  0
   -9.7937    3.7368   26.2091 C   0  0  0  0  0  0  0  0  0  0  0  0
   -6.8266    5.0441   28.0594 C   0  0  0  0  0  0  0  0  0  0  0  0
   -9.2322    2.6276   25.6126 C   0  0  0  0  0  0  0  0  0  0  0  0
   -7.9794    2.1924   25.9863 C   0  0  0  0  0  0  0  0  0  0  0  0
   -7.2411    2.9387   26.9009 C   0  0  0  0  0  0  0  0  0  0  0  0
  -10.0593    1.7685   24.7435 C   0  0  0  0  0  0  0  0  0  0  0  0
   -9.4294    1.0407   23.8340 C   0  0  0  0  0  0  0  0  0  0  0  0
  -11.0948    2.6765   23.9486 C   0  0  0  0  0  0  0  0  0  0  0  0
  -10.7916    0.8186   25.6251 C   0  0  0  0  0  0  0  0  0  0  0  0
  -11.5735    2.4123   23.0877 C   0  0  0  0  0  0  0  0  0  0  0  0
   -9.8130    0.6789   22.5223 C   0  0  0  0  0  0  0  0  0  0  0  0
  -10.8884    1.5443   22.0725 C   0  0  0  0  0  0  0  0  0  0  0  0
  -11.6613    0.0280   25.2485 C   0  0  0  0  0  0  0  0  0  0  0  0
  -12.2795   -0.6860   25.9833 C   0  0  0  0  0  0  0  0  0  0  0  0
  -12.0471   -0.6734   27.4602 C   0  0  0  0  0  0  0  0  0  0  0  0
  -11.0905    0.2270   27.9157 C   0  0  0  0  0  0  0  0  0  0  0  0
  -10.4844    1.0055   27.1030 C   0  0  0  0  0  0  0  0  0  0  0  0
   -9.4848    5.8354   27.4875 C   0  0  0  0  0  0  0  0  0  0  0  0
  1  4  1  0
  5  8  1  0
  8  9  1  0
  8 10  1  0
  8 11  1  0
 12 14  1  0
 13 14  1  0
  2 20  1  0
  9 13  1  0
 12 10  1  0
 11 15  2  0
 15 16  1  0
 16 17  2  0
 17 18  1  0
 18 19  2  0
 19 11  1  0
  1  2  2  0
  2  3  1  0
  3  5  2  0
  5  6  1  0
  6  7  2  0
  7  1  1  0
M  END
$$$$
