No_7805-complexes_sdf/6BKW-FPZ/2024-09-17-14-21-01/
     RDKit          3D

 29 31  0  0  0  0  0  0  0  0999 V2000
   -7.9040    3.9820   27.1177 C   0  0  0  0  0  0  0  0  0  0  0  0
   -7.8663    4.8694   27.9238 C   0  0  0  0  0  0  0  0  0  0  0  0
   -9.0491    3.8523   26.2542 C   0  0  0  0  0  0  0  0  0  0  0  0
   -8.7661    5.9491   27.9690 C   0  0  0  0  0  0  0  0  0  0  0  0
   -9.9295    4.8502   26.2323 C   0  0  0  0  0  0  0  0  0  0  0  0
   -9.8077    5.9288   27.0933 C   0  0  0  0  0  0  0  0  0  0  0  0
   -6.6950    2.5005   27.2061 Br  0  0  0  0  0  0  0  0  0  0  0  0
   -9.1250    2.6961   25.2945 C   0  0  0  0  0  0  0  0  0  0  0  0
  -10.1020    2.8334   24.2760 C   0  0  0  0  0  0  0  0  0  0  0  0
  -10.3148    1.6926   23.4966 C   0  0  0  0  0  0  0  0  0  0  0  0
   -9.4713    0.5330   23.6376 C   0  0  0  0  0  0  0  0  0  0  0  0
   -8.5496    0.4869   24.6521 C   0  0  0  0  0  0  0  0  0  0  0  0
   -8.3722    1.5157   25.4861 C   0  0  0  0  0  0  0  0  0  0  0  0
   -7.9065   -0.8002   24.5841 C   0  0  0  0  0  0  0  0  0  0  0  0
   -7.3982   -1.2992   23.7882 N   0  0  0  0  0  0  0  0  0  0  0  0
   -6.8935   -0.7719   22.7549 C   0  0  0  0  0  0  0  0  0  0  0  0
   -7.2758   -2.7540   23.7136 C   0  0  0  0  0  0  0  0  0  0  0  0
   -7.7404   -1.2131   25.9589 O   0  0  0  0  0  0  0  0  0  0  0  0
  -11.2156    1.8615   22.3790 C   0  0  1  0  0  0  0  0  0  0  0  0
  -11.9853    1.2599   22.0178 N   0  0  0  0  0  0  0  0  0  0  0  0
  -12.7412    1.2542   20.9332 C   0  0  0  0  0  0  0  0  0  0  0  0
  -11.7794    3.5390   22.2010 P   0  0  0  0  0  0  0  0  0  0  0  0
  -12.7273    3.9227   23.0383 O   0  0  0  0  0  0  0  0  0  0  0  0
  -10.5119    4.4793   22.4000 O   0  0  0  0  0  0  0  0  0  0  0  0
  -12.0661    3.7228   20.6738 O   0  0  0  0  0  0  0  0  0  0  0  0
  -12.9559   -0.1087   20.5757 C   0  0  0  0  0  0  0  0  0  0  0  0
  -12.3569   -0.8492   21.4460 C   0  0  2  0  0  0  0  0  0  0  0  0
  -11.9602   -0.0966   22.5779 C   0  0  0  0  0  0  0  0  0  0  0  0
  -11.2724   -1.5880   21.1680 F   0  0  0  0  0  0  0  0  0  0  0  0
  1  7  1  0
  3  8  1  0
 12 14  1  0
 14 15  1  0
 15 16  1  0
 15 17  1  0
 14 18  2  0
 10 19  1  0
 19 20  1  1
 20 21  1  0
 19 22  1  0
 22 23  2  0
 22 24  1  0
 22 25  1  0
 21 26  2  0
 26 27  1  0
 20 28  1  0
 27 28  1  0
 27 29  1  6
  1  2  2  0
  2  4  1  0
  4  6  2  0
  6  5  1  0
  5  3  2  0
  3  1  1  0
  8  9  2  0
  9 10  1  0
 10 11  2  0
 11 12  1  0
 12 13  2  0
 13  8  1  0
M  END
$$$$
