No_7383-complexes_sdf/6BKW-FPZ/2024-09-17-14-21-01/
     RDKit          3D

 15 17  0  0  0  0  0  0  0  0999 V2000
   -7.2496    3.8871   27.4508 C   0  0  0  0  0  0  0  0  0  0  0  0
   -7.6161    2.7143   27.1523 C   0  0  0  0  0  0  0  0  0  0  0  0
   -8.8302    2.4659   26.5056 C   0  0  0  0  0  0  0  0  0  0  0  0
   -8.1584    5.0090   27.3234 C   0  0  0  0  0  0  0  0  0  0  0  0
   -7.8138    6.3406   27.7108 C   0  0  0  0  0  0  0  0  0  0  0  0
   -9.7360    3.4989   26.3532 C   0  0  0  0  0  0  0  0  0  0  0  0
   -9.3942    4.8432   26.7521 C   0  0  0  0  0  0  0  0  0  0  0  0
   -9.1857    1.0968   26.1448 C   0  0  0  0  0  0  0  0  0  0  0  0
   -9.1439    0.7658   24.9721 C   0  0  0  0  0  0  0  0  0  0  0  0
   -9.2441   -0.0227   24.3251 C   0  0  0  0  0  0  0  0  0  0  0  0
   -9.1818   -0.1159   22.7596 C   0  0  0  0  0  0  0  0  0  0  0  0
   -9.1033    1.1235   22.1197 C   0  0  0  0  0  0  0  0  0  0  0  0
   -9.1852    2.2739   22.8900 C   0  0  0  0  0  0  0  0  0  0  0  0
   -9.2005    2.2364   24.2201 C   0  0  0  0  0  0  0  0  0  0  0  0
   -9.6903    3.5647   24.7055 C   0  0  0  0  0  0  0  0  0  0  0  0
  4  5  1  0
  1  2  2  0
  2  3  1  0
  6  7  1  0
  7  4  2  0
  4  1  1  0
  9 10  1  0
 10 11  2  0
 11 12  1  0
 12 13  2  0
 13 14  1  0
  3  6  2  0
  6 15  1  0
 15 14  2  0
 14  9  1  0
  9  8  2  0
  8  3  1  0
M  END
$$$$
