No_7151-complexes_sdf/6BKW-FPZ/2024-09-17-14-21-01/
     RDKit          3D

 13 13  0  0  0  0  0  0  0  0999 V2000
   -7.7129    4.2099   27.0854 C   0  0  0  0  0  0  0  0  0  0  0  0
   -8.9133    4.4736   27.0998 C   0  0  0  0  0  0  0  0  0  0  0  0
   -9.7937    3.7367   26.2091 C   0  0  0  0  0  0  0  0  0  0  0  0
   -7.4126    2.9835   27.2940 C   0  0  0  0  0  0  0  0  0  0  0  0
   -8.2271    1.9809   26.6470 C   0  0  0  0  0  0  0  0  0  0  0  0
   -9.4184    2.4342   26.1916 C   0  0  0  0  0  0  0  0  0  0  0  0
   -9.3148    6.0266   27.1123 C   0  0  0  0  0  0  0  0  0  0  0  0
   -7.7913    0.5712   26.6610 C   0  0  0  0  0  0  0  0  0  0  0  0
   -7.0952    0.0409   27.3912 O   0  0  0  0  0  0  0  0  0  0  0  0
   -8.6556   -0.2460   25.9103 O   0  0  0  0  0  0  0  0  0  0  0  0
   -8.4364    7.0503   26.6777 C   0  0  0  0  0  0  0  0  0  0  0  0
   -8.1275   -1.3500   25.4567 C   0  0  0  0  0  0  0  0  0  0  0  0
   -7.5189    7.7132   27.0547 N   0  0  0  0  0  0  0  0  0  0  0  0
  2  7  1  0
  5  8  1  0
  8  9  2  0
  8 10  1  0
  7 11  1  0
 10 12  1  0
 11 13  3  0
  1  2  2  0
  2  3  1  0
  3  6  2  0
  6  5  1  0
  5  4  2  0
  4  1  1  0
M  END
$$$$
