No_7780-complexes_sdf/6BKW-FPZ/2024-09-17-14-21-01/
     RDKit          3D

 19 20  0  0  0  0  0  0  0  0999 V2000
   -7.7129    4.2099   27.0854 C   0  0  0  0  0  0  0  0  0  0  0  0
   -8.9133    4.4736   27.0998 C   0  0  0  0  0  0  0  0  0  0  0  0
   -9.4643    5.5426   27.7628 C   0  0  0  0  0  0  0  0  0  0  0  0
   -6.8373    4.9942   27.9785 C   0  0  0  0  0  0  0  0  0  0  0  0
   -7.3717    6.0428   28.6744 C   0  0  0  0  0  0  0  0  0  0  0  0
   -8.6869    6.3937   28.5345 C   0  0  0  0  0  0  0  0  0  0  0  0
   -9.8077    3.6184   26.2213 C   0  0  0  0  0  0  0  0  0  0  0  0
   -9.9184    4.0253   24.8835 C   0  0  0  0  0  0  0  0  0  0  0  0
  -10.6241    3.3348   23.9331 C   0  0  0  0  0  0  0  0  0  0  0  0
  -11.1761    2.1164   24.2285 C   0  0  0  0  0  0  0  0  0  0  0  0
  -10.5204    2.5835   26.7001 C   0  0  0  0  0  0  0  0  0  0  0  0
  -11.1762    1.6806   25.6771 C   0  0  0  0  0  0  0  0  0  0  0  0
  -10.4629    2.0503   28.0422 C   0  0  0  0  0  0  0  0  0  0  0  0
  -11.7112    1.6918   28.6137 C   0  0  0  0  0  0  0  0  0  0  0  0
  -12.6908    1.7993   28.0175 C   0  0  0  0  0  0  0  0  0  0  0  0
  -13.7732    1.8342   28.4141 C   0  0  0  0  0  0  0  0  0  0  0  0
  -15.0752    1.8175   27.6587 C   0  0  0  0  0  0  0  0  0  0  0  0
  -14.8438    1.8119   26.2946 C   0  0  0  0  0  0  0  0  0  0  0  0
  -13.6597    1.8222   25.7395 C   0  0  0  0  0  0  0  0  0  0  0  0
  2  7  1  0
 11 13  1  0
 13 14  1  0
 14 15  2  3
 15 16  1  0
 16 17  2  3
 17 18  1  0
 18 19  2  0
  7  8  2  0
  8  9  1  0
  9 10  2  0
 10 12  1  0
 12 11  2  0
 11  7  1  0
  1  2  2  0
  2  3  1  0
  3  6  2  0
  6  5  1  0
  5  4  2  0
  4  1  1  0
M  END
$$$$
