No_7778-complexes_sdf/6BKW-FPZ/2024-09-17-14-21-01/
     RDKit          3D

 27 29  0  0  0  0  0  0  0  0999 V2000
   -7.9040    3.9820   27.1177 C   0  0  0  0  0  0  0  0  0  0  0  0
   -9.0711    4.3164   27.0630 C   0  0  0  0  0  0  0  0  0  0  0  0
   -9.5294    5.4517   27.7215 C   0  0  0  0  0  0  0  0  0  0  0  0
   -6.9328    4.7309   27.8881 C   0  0  0  0  0  0  0  0  0  0  0  0
   -7.3666    5.8455   28.5488 C   0  0  0  0  0  0  0  0  0  0  0  0
   -8.6669    6.2428   28.4199 C   0  0  0  0  0  0  0  0  0  0  0  0
  -10.0479    3.5083   26.2510 C   0  0  0  0  0  0  0  0  0  0  0  0
   -9.7487    3.3856   24.9113 C   0  0  0  0  0  0  0  0  0  0  0  0
  -10.5142    2.6814   23.9902 C   0  0  0  0  0  0  0  0  0  0  0  0
  -11.6898    2.1313   24.4168 C   0  0  0  0  0  0  0  0  0  0  0  0
  -11.2523    3.0120   26.5975 C   0  0  0  0  0  0  0  0  0  0  0  0
  -12.0785    2.2965   25.7808 C   0  0  0  0  0  0  0  0  0  0  0  0
  -10.0567    2.5731   22.6004 C   0  0  0  0  0  0  0  0  0  0  0  0
  -10.9278    2.4824   21.5845 C   0  0  0  0  0  0  0  0  0  0  0  0
  -11.7952    3.1706   21.4319 C   0  0  0  0  0  0  0  0  0  0  0  0
  -12.7713    3.1074   20.3017 C   0  0  0  0  0  0  0  0  0  0  0  0
  -12.4533    2.1511   19.2975 C   0  0  0  0  0  0  0  0  0  0  0  0
  -11.3661    1.2990   19.4704 C   0  0  0  0  0  0  0  0  0  0  0  0
  -10.5346    1.4178   20.5597 C   0  0  0  0  0  0  0  0  0  0  0  0
  -13.3658    1.7790   26.2001 C   0  0  1  0  0  0  0  0  0  0  0  0
  -14.1403    1.6805   27.4542 Cl  0  0  0  0  0  0  0  0  0  0  0  0
  -14.2110    1.2266   24.9954 C   0  0  0  0  0  0  0  0  0  0  0  0
  -15.4267    1.2557   24.9742 C   0  0  0  0  0  0  0  0  0  0  0  0
  -16.1561    0.6818   23.8630 C   0  0  0  0  0  0  0  0  0  0  0  0
  -17.4672    0.7002   23.7168 C   0  0  0  0  0  0  0  0  0  0  0  0
  -15.3068    0.0698   22.7893 C   0  0  0  0  0  0  0  0  0  0  0  0
  -13.8897    0.0497   22.8648 C   0  0  0  0  0  0  0  0  0  0  0  0
  2  7  1  0
  9 13  1  0
 12 20  1  0
 20 21  1  6
 20 22  1  0
 22 23  2  3
 23 24  1  0
 24 25  2  0
 24 26  1  0
 26 27  2  0
 13 14  1  0
  7  8  2  0
  8  9  1  0
  9 10  2  0
 10 12  1  0
 12 11  2  0
 11  7  1  0
 14 15  2  0
 15 16  1  0
 16 17  2  0
 17 18  1  0
 18 19  2  0
 19 14  1  0
  1  2  2  0
  2  3  1  0
  3  6  2  0
  6  5  1  0
  5  4  2  0
  4  1  1  0
M  END
$$$$
