No_7461-complexes_sdf/6BKW-FPZ/2024-09-17-14-21-01/
     RDKit          3D

 13 13  0  0  0  0  0  0  0  0999 V2000
   -7.7129    4.2099   27.0854 C   0  0  0  0  0  0  0  0  0  0  0  0
   -8.2112    3.0637   26.9225 C   0  0  0  0  0  0  0  0  0  0  0  0
   -7.0021    4.5281   28.2396 C   0  0  0  0  0  0  0  0  0  0  0  0
   -9.4237    2.7810   26.2714 C   0  0  1  0  0  0  0  0  0  0  0  0
   -9.8781    3.7859   25.4663 C   0  0  2  0  0  0  0  0  0  0  0  0
   -9.3689    5.0975   25.5965 C   0  0  0  0  0  0  0  0  0  0  0  0
   -8.4784    5.3402   26.5448 C   0  0  0  0  0  0  0  0  0  0  0  0
  -11.0301    3.3989   24.6567 C   0  0  0  0  0  0  0  0  0  0  0  0
  -11.0421    4.1905   23.6891 F   0  0  0  0  0  0  0  0  0  0  0  0
  -12.1402    3.6447   25.3150 F   0  0  0  0  0  0  0  0  0  0  0  0
  -10.9959    2.1987   24.2009 F   0  0  0  0  0  0  0  0  0  0  0  0
   -9.0587    3.7098   24.7981 F   0  0  0  0  0  0  0  0  0  0  0  0
   -9.5406    1.4949   25.7037 O   0  0  0  0  0  0  0  0  0  0  0  0
  1  2  1  0
  1  3  2  0
  2  4  1  0
  4  5  1  0
  5  6  1  0
  1  7  1  0
  6  7  1  0
  5  8  1  0
  8  9  1  0
  8 10  1  0
  8 11  1  0
  5 12  1  6
  4 13  1  6
M  END
$$$$
