No_7036-complexes_sdf/6BKW-FPZ/2024-09-17-14-21-01/
     RDKit          3D

 17 18  0  0  0  0  0  0  0  0999 V2000
   -7.9040    3.9820   27.1177 C   0  0  0  0  0  0  0  0  0  0  0  0
   -8.2057    2.8231   26.8733 C   0  0  0  0  0  0  0  0  0  0  0  0
   -9.2962    2.4021   26.1155 C   0  0  0  0  0  0  0  0  0  0  0  0
   -8.7358    5.0662   26.5917 C   0  0  0  0  0  0  0  0  0  0  0  0
   -9.7618    4.7023   25.7546 C   0  0  0  0  0  0  0  0  0  0  0  0
  -10.0066    3.4105   25.4922 C   0  0  0  0  0  0  0  0  0  0  0  0
   -8.3466    6.7110   26.9171 Cl  0  0  0  0  0  0  0  0  0  0  0  0
   -9.5261    0.9772   25.8277 C   0  0  0  0  0  0  0  0  0  0  0  0
   -8.9095    0.3388   25.0024 C   0  0  0  0  0  0  0  0  0  0  0  0
   -9.1000   -1.0704   24.7309 C   0  0  0  0  0  0  0  0  0  0  0  0
   -8.4407   -1.7140   23.7219 C   0  0  0  0  0  0  0  0  0  0  0  0
   -7.4659   -1.0293   22.8766 C   0  0  0  0  0  0  0  0  0  0  0  0
   -7.2962    0.3192   23.0868 C   0  0  0  0  0  0  0  0  0  0  0  0
   -7.8996    1.0021   24.0605 C   0  0  0  0  0  0  0  0  0  0  0  0
   -8.3981    1.0694   24.5268 P   0  0  0  0  0  0  0  0  0  0  0  0
   -9.5111    1.5293   23.4944 O   0  0  0  0  0  0  0  0  0  0  0  0
   -7.0237    1.6688   23.8547 F   0  0  0  0  0  0  0  0  0  0  0  0
  4  7  1  0
  3  8  1  0
  8  9  2  3
  9 10  1  0
 10 11  2  0
 11 12  1  0
 12 13  2  0
 13 14  1  0
  9 15  1  0
 14 15  1  0
 15 16  1  0
 14 17  1  0
  1  2  2  0
  2  3  1  0
  3  6  2  0
  6  5  1  0
  5  4  2  0
  4  1  1  0
M  END
$$$$
