No_7594-complexes_sdf/6BKW-FPZ/2024-09-17-14-21-01/
     RDKit          3D

 16 17  0  0  0  0  0  0  0  0999 V2000
   -7.9040    3.9820   27.1177 C   0  0  0  0  0  0  0  0  0  0  0  0
   -9.0711    4.3164   27.0630 C   0  0  0  0  0  0  0  0  0  0  0  0
   -9.5182    5.5541   27.5777 C   0  0  0  0  0  0  0  0  0  0  0  0
   -7.4468    2.6843   26.6499 C   0  0  0  0  0  0  0  0  0  0  0  0
   -8.3856    1.7878   26.2216 C   0  0  0  0  0  0  0  0  0  0  0  0
   -9.6812    2.2328   26.0889 C   0  0  0  0  0  0  0  0  0  0  0  0
  -10.0147    3.4312   26.5259 C   0  0  0  0  0  0  0  0  0  0  0  0
   -7.9132    0.4733   25.8127 C   0  0  1  0  0  0  0  0  0  0  0  0
   -8.1299    0.0169   24.7318 N   0  0  0  0  0  0  0  0  0  0  0  0
   -7.3985   -0.8938   24.0492 C   0  0  0  0  0  0  0  0  0  0  0  0
   -6.4721    0.1442   26.2881 C   0  0  0  0  0  0  0  0  0  0  0  0
   -6.1646    0.3468   27.7121 C   0  0  0  0  0  0  0  0  0  0  0  0
   -5.1795   -0.2009   28.1565 C   0  0  0  0  0  0  0  0  0  0  0  0
   -4.2174   -0.8946   27.4444 C   0  0  0  0  0  0  0  0  0  0  0  0
   -4.5253   -1.0820   26.0578 C   0  0  0  0  0  0  0  0  0  0  0  0
   -5.6887   -0.6248   25.5423 C   0  0  0  0  0  0  0  0  0  0  0  0
  2  3  1  0
  5  8  1  0
  8  9  1  6
  9 10  1  0
  8 11  1  0
 11 12  2  0
 12 13  1  0
 13 14  2  0
 14 15  1  0
 15 16  2  0
 16 11  1  0
  1  2  2  0
  2  7  1  0
  7  6  2  0
  6  5  1  0
  5  4  2  0
  4  1  1  0
M  END
$$$$
