No_7310-complexes_sdf/6BKW-FPZ/2024-09-17-14-21-01/
     RDKit          3D

 13 13  0  0  0  0  0  0  0  0999 V2000
   -7.9040    3.9820   27.1177 C   0  0  0  0  0  0  0  0  0  0  0  0
   -7.8663    4.8694   27.9238 C   0  0  0  0  0  0  0  0  0  0  0  0
   -9.0501    3.8017   26.2617 C   0  0  0  0  0  0  0  0  0  0  0  0
  -10.0189    4.7608   26.3707 C   0  0  0  0  0  0  0  0  0  0  0  0
   -8.6973    5.9722   27.8968 C   0  0  0  0  0  0  0  0  0  0  0  0
   -9.8216    5.8946   27.1241 C   0  0  0  0  0  0  0  0  0  0  0  0
   -9.1437    2.6293   25.4175 C   0  0  0  0  0  0  0  0  0  0  0  0
   -8.3787    1.0858   25.7666 Br  0  0  0  0  0  0  0  0  0  0  0  0
   -9.8922    2.7416   24.1697 C   0  0  0  0  0  0  0  0  0  0  0  0
   -9.8348    1.7488   23.2931 C   0  0  0  0  0  0  0  0  0  0  0  0
  -10.5206    1.8838   22.0138 C   0  0  0  0  0  0  0  0  0  0  0  0
  -11.1757    3.1094   21.7830 C   0  0  0  0  0  0  0  0  0  0  0  0
  -11.1624    4.1099   22.7493 C   0  0  0  0  0  0  0  0  0  0  0  0
  3  7  1  0
  7  8  1  0
  7  9  1  0
  9 10  2  3
 10 11  1  0
 11 12  2  3
 12 13  1  0
  1  2  2  0
  2  5  1  0
  5  6  2  0
  6  4  1  0
  4  3  2  0
  3  1  1  0
M  END
$$$$
