No_7404-complexes_sdf/6BKW-FPZ/2024-09-17-14-21-01/
     RDKit          3D

 28 31  0  0  0  0  0  0  0  0999 V2000
   -7.2496    3.8871   27.4508 C   0  0  0  0  0  0  0  0  0  0  0  0
   -7.9379    4.9063   27.8518 C   0  0  0  0  0  0  0  0  0  0  0  0
   -9.3460    4.8223   27.8695 C   0  0  0  0  0  0  0  0  0  0  0  0
   -7.8628    2.6163   27.1065 C   0  0  0  0  0  0  0  0  0  0  0  0
   -9.2787    2.5744   27.1970 C   0  0  0  0  0  0  0  0  0  0  0  0
  -10.0108    3.6770   27.6340 C   0  0  0  0  0  0  0  0  0  0  0  0
  -11.4855    3.5731   27.7420 C   0  0  0  0  0  0  0  0  0  0  0  0
  -11.9299    2.8562   28.8221 C   0  0  0  0  0  0  0  0  0  0  0  0
  -13.2794    2.8349   29.2460 C   0  0  0  0  0  0  0  0  0  0  0  0
  -14.1511    3.6034   28.4508 C   0  0  0  0  0  0  0  0  0  0  0  0
  -13.7255    4.3534   27.3764 C   0  0  0  0  0  0  0  0  0  0  0  0
  -12.3282    4.4505   27.0679 C   0  0  0  0  0  0  0  0  0  0  0  0
   -7.2761    1.3781   26.8619 C   0  0  0  0  0  0  0  0  0  0  0  0
   -7.3514    0.3343   27.6357 C   0  0  0  0  0  0  0  0  0  0  0  0
   -8.3524   -0.4359   27.7422 C   0  0  0  0  0  0  0  0  0  0  0  0
   -8.4544   -1.6479   28.5197 C   0  0  0  0  0  0  0  0  0  0  0  0
   -7.3212   -2.0153   29.2384 C   0  0  0  0  0  0  0  0  0  0  0  0
   -6.1369   -1.2690   29.0948 C   0  0  0  0  0  0  0  0  0  0  0  0
   -6.0625   -0.1473   28.2943 C   0  0  0  0  0  0  0  0  0  0  0  0
   -4.8101    0.6150   28.2279 C   0  0  0  0  0  0  0  0  0  0  0  0
   -4.4344    1.1997   27.2927 C   0  0  0  0  0  0  0  0  0  0  0  0
   -4.0282    0.5215   29.4966 C   0  0  0  0  0  0  0  0  0  0  0  0
   -3.5133   -0.6939   30.0011 C   0  0  0  0  0  0  0  0  0  0  0  0
   -2.5210   -0.3759   31.0068 C   0  0  0  0  0  0  0  0  0  0  0  0
   -2.0334   -1.6370   31.5925 C   0  0  0  0  0  0  0  0  0  0  0  0
   -2.2507   -2.7186   30.9849 C   0  0  0  0  0  0  0  0  0  0  0  0
   -3.5384   -2.0350   29.7356 C   0  0  0  0  0  0  0  0  0  0  0  0
   -7.3163    6.0908   28.0947 O   0  0  0  0  0  0  0  0  0  0  0  0
  6  7  1  0
  4 13  1  0
 13 14  1  0
 19 20  1  0
 20 21  1  0
 20 22  1  0
 22 23  1  0
 23 24  1  0
 24 25  1  0
 25 26  2  0
 23 27  1  0
 26 27  1  0
  2 28  1  0
 14 15  2  0
 15 16  1  0
 16 17  2  0
 17 18  1  0
 18 19  2  0
 19 14  1  0
  1  2  2  0
  2  3  1  0
  3  6  2  0
  6  5  1  0
  5  4  2  0
  4  1  1  0
  7  8  2  0
  8  9  1  0
  9 10  2  0
 10 11  1  0
 11 12  2  0
 12  7  1  0
M  END
$$$$
