No_7230-complexes_sdf/6BKW-FPZ/2024-09-17-14-21-01/
     RDKit          3D

 40 43  0  0  0  0  0  0  0  0999 V2000
   -7.9040    3.9820   27.1177 C   0  0  0  0  0  0  0  0  0  0  0  0
   -7.8663    4.8694   27.9238 C   0  0  0  0  0  0  0  0  0  0  0  0
   -9.0501    3.8017   26.2617 C   0  0  0  0  0  0  0  0  0  0  0  0
   -9.1826    2.7026   25.3575 C   0  0  0  0  0  0  0  0  0  0  0  0
   -8.6940    6.0131   27.8614 C   0  0  0  0  0  0  0  0  0  0  0  0
   -9.9755    4.8547   26.2361 C   0  0  0  0  0  0  0  0  0  0  0  0
   -9.7463    5.9398   27.0364 C   0  0  0  0  0  0  0  0  0  0  0  0
  -10.1245    1.8871   25.7330 C   0  0  0  0  0  0  0  0  0  0  0  0
  -10.1275    0.7205   25.0793 C   0  0  0  0  0  0  0  0  0  0  0  0
  -10.6688   -0.3473   25.7208 C   0  0  0  0  0  0  0  0  0  0  0  0
  -10.9230    1.9252   26.8840 C   0  0  0  0  0  0  0  0  0  0  0  0
  -11.5588    0.8684   27.5123 C   0  0  0  0  0  0  0  0  0  0  0  0
  -11.4620   -0.3406   26.8454 C   0  0  0  0  0  0  0  0  0  0  0  0
   -7.0353    2.9082   27.2180 O   0  0  0  0  0  0  0  0  0  0  0  0
  -12.2862    0.9571   28.8041 C   0  0  0  0  0  0  0  0  0  0  0  0
  -12.7565    0.0325   29.3189 O   0  0  0  0  0  0  0  0  0  0  0  0
  -12.3351    2.2185   29.3304 O   0  0  0  0  0  0  0  0  0  0  0  0
  -13.4563    2.6231   30.0292 C   0  0  0  0  0  0  0  0  0  0  0  0
  -13.6231    4.0680   29.6845 C   0  0  0  0  0  0  0  0  0  0  0  0
  -14.7051    4.2631   28.7588 C   0  0  0  0  0  0  0  0  0  0  0  0
  -14.4132    4.1596   27.6030 N   0  0  0  0  0  0  0  0  0  0  0  0
  -13.3198    4.3165   27.0746 C   0  0  0  0  0  0  0  0  0  0  0  0
  -15.4490    3.6785   26.6339 C   0  0  0  0  0  0  0  0  0  0  0  0
  -13.0724    4.1811   25.6803 N   0  0  0  0  0  0  0  0  0  0  0  0
  -13.8958    3.8534   24.8698 C   0  0  0  0  0  0  0  0  0  0  0  0
  -15.1989    3.5829   25.3238 C   0  0  0  0  0  0  0  0  0  0  0  0
  -13.6191    3.7351   23.6323 F   0  0  0  0  0  0  0  0  0  0  0  0
   -5.8673    3.0465   27.8455 C   0  0  0  0  0  0  0  0  0  0  0  0
   -5.0899    1.7826   27.9433 C   0  0  0  0  0  0  0  0  0  0  0  0
   -5.5944    0.6103   27.4776 C   0  0  0  0  0  0  0  0  0  0  0  0
   -4.8552   -0.5632   27.5564 C   0  0  0  0  0  0  0  0  0  0  0  0
   -5.3628   -1.8031   27.1068 C   0  0  0  0  0  0  0  0  0  0  0  0
   -6.6543   -1.7582   26.4754 C   0  0  0  0  0  0  0  0  0  0  0  0
   -7.1516   -2.9983   26.0365 C   0  0  0  0  0  0  0  0  0  0  0  0
   -7.4060   -0.6142   26.5518 C   0  0  0  0  0  0  0  0  0  0  0  0
   -6.8480    0.6202   26.9983 C   0  0  0  0  0  0  0  0  0  0  0  0
   -8.0138   -3.6951   26.7363 C   0  0  0  0  0  0  0  0  0  0  0  0
   -8.6807   -4.8275   26.2783 C   0  0  0  0  0  0  0  0  0  0  0  0
   -6.8464   -3.3967   24.7364 C   0  0  0  0  0  0  0  0  0  0  0  0
   -7.4528   -4.5768   24.2076 C   0  0  0  0  0  0  0  0  0  0  0  0
  3  4  1  0
  4  8  1  0
  1 14  1  0
 12 15  1  0
 15 16  2  0
 15 17  1  0
 17 18  1  0
 18 19  1  0
 19 20  1  0
 20 21  1  0
 21 22  1  0
 21 23  1  0
 24 25  1  0
 25 27  1  0
 14 28  1  0
 28 29  2  3
 29 30  1  0
 33 34  1  0
 34 37  1  0
 37 38  2  0
 34 39  1  0
 39 40  2  0
 22 24  1  0
 25 26  1  0
 26 23  1  0
  8  9  2  0
  9 10  1  0
 10 13  2  0
 13 12  1  0
 12 11  2  0
 11  8  1  0
 30 31  2  0
 31 32  1  0
 32 33  2  0
 33 35  1  0
 35 36  2  0
 36 30  1  0
  1  2  2  0
  2  5  1  0
  5  7  2  0
  7  6  1  0
  6  3  2  0
  3  1  1  0
M  END
$$$$
