No_7274-complexes_sdf/6BKW-FPZ/2024-09-17-14-21-01/
     RDKit          3D

 40 44  0  0  0  0  0  0  0  0999 V2000
   -7.9040    3.9820   27.1177 C   0  0  0  0  0  0  0  0  0  0  0  0
   -7.8663    4.8694   27.9238 C   0  0  0  0  0  0  0  0  0  0  0  0
   -7.4547    2.7080   27.4594 C   0  0  0  0  0  0  0  0  0  0  0  0
   -8.0927    6.2909   27.5184 C   0  0  0  0  0  0  0  0  0  0  0  0
   -8.9150    6.5640   26.4331 C   0  0  0  0  0  0  0  0  0  0  0  0
   -7.6563    1.4669   26.7412 C   0  0  0  0  0  0  0  0  0  0  0  0
   -8.6545    4.2283   25.9171 C   0  0  0  0  0  0  0  0  0  0  0  0
   -9.1529    5.4633   25.5735 C   0  0  0  0  0  0  0  0  0  0  0  0
   -7.0798    0.3183   27.0998 C   0  0  0  0  0  0  0  0  0  0  0  0
   -5.9509    0.3445   27.9399 C   0  0  0  0  0  0  0  0  0  0  0  0
   -5.4666    1.6237   28.4092 C   0  0  0  0  0  0  0  0  0  0  0  0
   -6.0699    2.7366   28.0868 C   0  0  0  0  0  0  0  0  0  0  0  0
   -5.3612   -0.9768   28.1758 C   0  0  2  0  0  0  0  0  0  0  0  0
   -5.8018   -2.3545   28.3502 Cl  0  0  0  0  0  0  0  0  0  0  0  0
   -3.7928   -0.7751   28.4664 C   0  0  0  0  0  0  0  0  0  0  0  0
   -3.0867   -1.6409   27.8269 C   0  0  0  0  0  0  0  0  0  0  0  0
   -3.4086   -2.4368   26.9780 C   0  0  0  0  0  0  0  0  0  0  0  0
   -3.2618   -2.1887   25.7267 C   0  0  0  0  0  0  0  0  0  0  0  0
   -3.5707   -3.0884   24.5997 C   0  0  0  0  0  0  0  0  0  0  0  0
   -4.1245   -4.2895   24.9494 C   0  0  0  0  0  0  0  0  0  0  0  0
   -4.2601   -4.5983   26.2903 C   0  0  0  0  0  0  0  0  0  0  0  0
   -3.8989   -3.7368   27.2336 C   0  0  0  0  0  0  0  0  0  0  0  0
   -4.4570   -5.1986   23.8286 C   0  0  0  0  0  0  0  0  0  0  0  0
   -4.1726   -5.4245   22.8770 O   0  0  0  0  0  0  0  0  0  0  0  0
   -5.4836   -6.0417   24.2941 N   0  0  0  0  0  0  0  0  0  0  0  0
   -6.2740   -6.6587   23.6897 C   0  0  0  0  0  0  0  0  0  0  0  0
   -7.4536   -6.6967   23.7478 C   0  0  0  0  0  0  0  0  0  0  0  0
   -8.0862   -5.8350   24.7554 C   0  0  2  0  0  0  0  0  0  0  0  0
   -7.3117   -5.3378   25.7405 C   0  0  0  0  0  0  0  0  0  0  0  0
   -6.0657   -5.5142   25.6048 C   0  0  2  0  0  0  0  0  0  0  0  0
   -5.2761   -5.0510   26.6196 N   0  0  0  0  0  0  0  0  0  0  0  0
   -9.5934   -5.9476   24.9594 C   0  0  1  0  0  0  0  0  0  0  0  0
  -10.2442   -5.2910   26.3165 Cl  0  0  0  0  0  0  0  0  0  0  0  0
  -10.4524   -6.3841   23.9635 C   0  0  0  0  0  0  0  0  0  0  0  0
  -11.3224   -5.7327   23.5346 C   0  0  0  0  0  0  0  0  0  0  0  0
  -12.0276   -5.4322   22.8666 C   0  0  0  0  0  0  0  0  0  0  0  0
  -12.3858   -4.0833   22.5662 C   0  0  0  0  0  0  0  0  0  0  0  0
  -13.4195   -3.6462   21.6803 C   0  0  0  0  0  0  0  0  0  0  0  0
  -12.9239   -6.3205   22.0683 C   0  0  0  0  0  0  0  0  0  0  0  0
  -13.9108   -5.9350   21.1806 C   0  0  0  0  0  0  0  0  0  0  0  0
  1  3  1  0
 10 13  1  0
 13 14  1  1
 13 15  1  0
 15 16  2  3
 16 17  1  0
 20 23  1  0
 23 24  2  0
 23 25  1  0
 25 26  1  0
 28 27  1  1
 25 30  1  0
 30 29  1  6
 21 31  1  0
 30 31  1  0
 28 32  1  0
 32 33  1  6
 32 34  1  0
 34 35  2  3
 35 36  1  0
 36 37  1  0
 37 38  2  0
 36 39  1  0
 39 40  1  0
 26 27  1  0
 28 29  1  0
  3  6  2  0
  6  9  1  0
  9 10  2  0
 10 11  1  0
 11 12  2  0
 12  3  1  0
  1  2  2  0
  2  4  1  0
  4  5  2  0
  5  8  1  0
  8  7  2  0
  7  1  1  0
 17 18  2  0
 18 19  1  0
 19 20  2  0
 20 21  1  0
 21 22  2  0
 22 17  1  0
M  END
$$$$
