No_7635-complexes_sdf/6BKW-FPZ/2024-09-17-14-21-01/
     RDKit          3D

 18 19  0  0  0  0  0  0  0  0999 V2000
   -7.7129    4.2099   27.0854 C   0  0  0  0  0  0  0  0  0  0  0  0
   -8.9133    4.4736   27.0998 C   0  0  0  0  0  0  0  0  0  0  0  0
   -9.7937    3.7368   26.2091 C   0  0  0  0  0  0  0  0  0  0  0  0
   -6.8266    5.0441   28.0594 C   0  0  0  0  0  0  0  0  0  0  0  0
   -9.2322    2.6276   25.6126 C   0  0  0  0  0  0  0  0  0  0  0  0
   -7.9794    2.1924   25.9863 C   0  0  0  0  0  0  0  0  0  0  0  0
   -7.2411    2.9387   26.9009 C   0  0  0  0  0  0  0  0  0  0  0  0
  -10.0894    1.7793   24.7540 C   0  0  0  0  0  0  0  0  0  0  0  0
  -10.0344    0.5790   24.7192 C   0  0  0  0  0  0  0  0  0  0  0  0
  -10.7962   -0.2560   23.7737 C   0  0  0  0  0  0  0  0  0  0  0  0
  -11.6025    0.4324   22.8290 C   0  0  0  0  0  0  0  0  0  0  0  0
  -10.9517    2.4790   23.7612 C   0  0  0  0  0  0  0  0  0  0  0  0
  -11.6391    1.8017   22.8732 C   0  0  0  0  0  0  0  0  0  0  0  0
   -9.4860    5.8320   27.5017 C   0  0  0  0  0  0  0  0  0  0  0  0
  -12.6696    2.5904   21.7457 Cl  0  0  0  0  0  0  0  0  0  0  0  0
   -8.5835    6.8082   27.5763 F   0  0  0  0  0  0  0  0  0  0  0  0
   -9.9718    5.7336   28.8708 F   0  0  0  0  0  0  0  0  0  0  0  0
  -10.6640    6.0837   26.9507 F   0  0  0  0  0  0  0  0  0  0  0  0
  1  4  1  0
  5  8  1  0
  2 14  1  0
 13 15  1  0
 14 16  1  0
 14 17  1  0
 14 18  1  0
  8  9  2  0
  9 10  1  0
 10 11  2  0
 11 13  1  0
 13 12  2  0
 12  8  1  0
  1  2  2  0
  2  3  1  0
  3  5  2  0
  5  6  1  0
  6  7  2  0
  7  1  1  0
M  END
$$$$
