No_726-complexes_sdf/6BKW-FPZ/2024-09-17-14-21-01/
     RDKit          3D

 22 25  0  0  0  0  0  0  0  0999 V2000
   -7.7129    4.2099   27.0854 C   0  0  0  0  0  0  0  0  0  0  0  0
   -8.9133    4.4736   27.0998 C   0  0  0  0  0  0  0  0  0  0  0  0
   -9.4643    5.5426   27.7628 C   0  0  0  0  0  0  0  0  0  0  0  0
   -6.8373    4.9942   27.9785 C   0  0  0  0  0  0  0  0  0  0  0  0
   -7.3717    6.0428   28.6744 C   0  0  0  0  0  0  0  0  0  0  0  0
   -8.6869    6.3937   28.5345 C   0  0  0  0  0  0  0  0  0  0  0  0
   -9.6413    3.5082   26.1378 C   0  0  0  0  0  0  0  0  0  0  0  0
   -9.5445    2.2570   26.1793 C   0  0  0  0  0  0  0  0  0  0  0  0
  -10.1107    1.3992   25.1942 C   0  0  0  0  0  0  0  0  0  0  0  0
  -10.8610    1.9950   24.1798 C   0  0  0  0  0  0  0  0  0  0  0  0
  -10.9981    3.3951   24.1417 C   0  0  0  0  0  0  0  0  0  0  0  0
  -10.3904    4.2219   25.0976 C   0  0  0  0  0  0  0  0  0  0  0  0
  -11.8286    4.0301   23.0808 C   0  0  0  0  0  0  0  0  0  0  0  0
  -11.9351    3.7309   21.9180 C   0  0  0  0  0  0  0  0  0  0  0  0
  -12.8080    4.2168   20.9960 C   0  0  0  0  0  0  0  0  0  0  0  0
  -13.7506    5.1441   21.4688 C   0  0  0  0  0  0  0  0  0  0  0  0
  -13.7668    5.5392   22.8452 C   0  0  0  0  0  0  0  0  0  0  0  0
  -12.7916    4.9502   23.6746 C   0  0  0  0  0  0  0  0  0  0  0  0
   -9.9314   -0.0348   25.1951 C   0  0  0  0  0  0  0  0  0  0  0  0
   -9.6686   -0.5870   24.1406 C   0  0  0  0  0  0  0  0  0  0  0  0
   -9.4066    0.0506   22.9883 C   0  0  0  0  0  0  0  0  0  0  0  0
  -10.0511    1.3704   22.7966 C   0  0  0  0  0  0  0  0  0  0  0  0
  2  7  1  0
 11 13  1  0
 13 14  2  0
 14 15  1  0
 15 16  2  0
 16 17  1  0
 17 18  2  0
 18 13  1  0
  1  2  2  0
  2  3  1  0
  3  6  2  0
  6  5  1  0
  5  4  2  0
  4  1  1  0
 10 22  2  0
 22 21  1  0
 21 20  2  0
 20 19  1  0
 19  9  2  0
  7  8  2  0
  8  9  1  0
  9 10  1  0
 10 11  1  0
 11 12  2  0
 12  7  1  0
M  END
$$$$
