No_7534-complexes_sdf/6BKW-FPZ/2024-09-17-14-21-01/
     RDKit          3D

 33 35  0  0  0  0  0  0  0  0999 V2000
   -7.2496    3.8871   27.4508 C   0  0  0  0  0  0  0  0  0  0  0  0
   -8.5096    4.0291   27.2770 C   0  0  0  0  0  0  0  0  0  0  0  0
   -9.3451    2.8786   26.9046 C   0  0  0  0  0  0  0  0  0  0  0  0
   -6.6065    2.5680   27.5073 C   0  0  0  0  0  0  0  0  0  0  0  0
   -7.3970    1.4834   27.2271 C   0  0  0  0  0  0  0  0  0  0  0  0
   -8.7029    1.6398   26.9934 C   0  0  0  0  0  0  0  0  0  0  0  0
   -9.1106    5.3702   27.2076 C   0  0  0  0  0  0  0  0  0  0  0  0
   -8.2923    6.5067   27.0515 C   0  0  0  0  0  0  0  0  0  0  0  0
   -6.7529    0.1818   27.3050 C   0  0  0  0  0  0  0  0  0  0  0  0
   -7.3667   -0.9186   27.3836 C   0  0  0  0  0  0  0  0  0  0  0  0
   -5.2796    0.1824   27.2440 C   0  0  0  0  0  0  0  0  0  0  0  0
   -4.5928    0.5361   28.3705 C   0  0  0  0  0  0  0  0  0  0  0  0
   -3.1550    0.4404   28.3653 C   0  0  1  0  0  0  0  0  0  0  0  0
   -8.7776    7.8184   26.7934 C   0  0  0  0  0  0  0  0  0  0  0  0
   -2.6207   -0.5199   29.2971 C   0  0  0  0  0  0  0  0  0  0  0  0
   -6.8171   -2.0759   27.4192 C   0  0  0  0  0  0  0  0  0  0  0  0
   -5.6732   -2.3555   27.2741 C   0  0  0  0  0  0  0  0  0  0  0  0
   -4.8003   -0.9049   26.5240 C   0  0  0  0  0  0  0  0  0  0  0  0
   -3.1477   -0.5085   30.5872 C   0  0  0  0  0  0  0  0  0  0  0  0
   -2.5832   -1.3260   31.6012 C   0  0  0  0  0  0  0  0  0  0  0  0
   -1.5224   -2.1433   31.2366 C   0  0  0  0  0  0  0  0  0  0  0  0
   -1.0026   -2.1743   29.9859 C   0  0  0  0  0  0  0  0  0  0  0  0
   -1.5120   -1.2971   28.9969 C   0  0  0  0  0  0  0  0  0  0  0  0
   -4.8775   -3.5519   27.0348 C   0  0  0  0  0  0  0  0  0  0  0  0
   -4.5818   -4.0909   28.0461 O   0  0  0  0  0  0  0  0  0  0  0  0
   -4.2475   -3.7099   25.9718 O   0  0  0  0  0  0  0  0  0  0  0  0
   -9.9951    5.6525   28.4470 C   0  0  0  0  0  0  0  0  0  0  0  0
  -10.0018    5.4098   25.8208 C   0  0  0  0  0  0  0  0  0  0  0  0
   -3.1261   -1.2401   32.9658 C   0  0  0  0  0  0  0  0  0  0  0  0
   -4.3718   -1.0468   33.0342 O   0  0  0  0  0  0  0  0  0  0  0  0
   -2.3720   -1.2887   33.9740 O   0  0  0  0  0  0  0  0  0  0  0  0
   -2.6760    0.1919   27.0386 O   0  0  0  0  0  0  0  0  0  0  0  0
   -2.1128    1.3528   26.4271 C   0  0  0  0  0  0  0  0  0  0  0  0
  2  7  1  0
  7  8  1  0
  5  9  1  0
 11 12  1  0
 13 12  1  6
  8 14  2  0
 13 15  1  0
 17 24  1  0
 24 25  2  0
 24 26  1  0
  7 27  1  0
  7 28  1  0
 20 29  1  0
 29 30  2  0
 29 31  1  0
 13 32  1  0
 32 33  1  0
 15 19  2  0
 19 20  1  0
 20 21  2  0
 21 22  1  0
 22 23  2  0
 23 15  1  0
  9 10  2  0
 10 16  1  0
 16 17  2  0
 17 18  1  0
 18 11  2  0
 11  9  1  0
  1  2  2  0
  2  3  1  0
  3  6  2  0
  6  5  1  0
  5  4  2  0
  4  1  1  0
M  END
$$$$
