No_7989-complexes_sdf/6BKW-FPZ/2024-09-17-14-21-01/
     RDKit          3D

 21 22  0  0  0  0  0  0  0  0999 V2000
   -7.7129    4.2099   27.0854 C   0  0  0  0  0  0  0  0  0  0  0  0
   -8.2112    3.0637   26.9225 C   0  0  0  0  0  0  0  0  0  0  0  0
   -9.4446    2.8304   26.1868 C   0  0  0  0  0  0  0  0  0  0  0  0
   -8.4697    5.3956   26.7238 C   0  0  0  0  0  0  0  0  0  0  0  0
   -9.6172    5.2111   25.9513 C   0  0  0  0  0  0  0  0  0  0  0  0
  -10.0424    3.9782   25.6873 C   0  0  0  0  0  0  0  0  0  0  0  0
   -7.6599    6.8603   27.0717 Cl  0  0  0  0  0  0  0  0  0  0  0  0
   -7.7296    1.7109   27.3353 C   0  0  0  0  0  0  0  0  0  0  0  0
   -6.3373    1.6589   27.7099 C   0  0  0  0  0  0  0  0  0  0  0  0
   -5.7304    0.4658   28.0737 C   0  0  0  0  0  0  0  0  0  0  0  0
   -6.4518   -0.6987   28.0793 C   0  0  0  0  0  0  0  0  0  0  0  0
   -8.2862    0.5000   27.3150 C   0  0  0  0  0  0  0  0  0  0  0  0
   -7.7683   -0.6406   27.7209 C   0  0  0  0  0  0  0  0  0  0  0  0
   -4.2809    0.4877   28.4914 C   0  0  0  0  0  0  0  0  0  0  0  0
   -4.1568    0.7745   29.6389 F   0  0  0  0  0  0  0  0  0  0  0  0
   -3.5724    1.3887   27.7211 F   0  0  0  0  0  0  0  0  0  0  0  0
   -3.7257   -0.7060   28.2767 F   0  0  0  0  0  0  0  0  0  0  0  0
  -11.2717    3.8808   24.8580 C   0  0  0  0  0  0  0  0  0  0  0  0
  -12.2930    4.2251   25.5494 F   0  0  0  0  0  0  0  0  0  0  0  0
  -11.1761    4.6178   23.7210 F   0  0  0  0  0  0  0  0  0  0  0  0
  -11.4275    2.6147   24.4045 F   0  0  0  0  0  0  0  0  0  0  0  0
  4  7  1  0
  2  8  1  0
 10 14  1  0
 14 15  1  0
 14 16  1  0
 14 17  1  0
  6 18  1  0
 18 19  1  0
 18 20  1  0
 18 21  1  0
  1  2  2  0
  2  3  1  0
  3  6  2  0
  6  5  1  0
  5  4  2  0
  4  1  1  0
  8  9  2  0
  9 10  1  0
 10 11  2  0
 11 13  1  0
 13 12  2  0
 12  8  1  0
M  END
$$$$
