No_7485-complexes_sdf/6BKW-FPZ/2024-09-17-14-21-01/
     RDKit          3D

 40 45  0  0  0  0  0  0  0  0999 V2000
   -7.7129    4.2099   27.0854 C   0  0  0  0  0  0  0  0  0  0  0  0
   -7.7814    5.1722   27.8972 C   0  0  0  0  0  0  0  0  0  0  0  0
   -8.8998    3.8713   26.3707 C   0  0  0  0  0  0  0  0  0  0  0  0
   -9.9938    4.6774   26.5446 C   0  0  0  0  0  0  0  0  0  0  0  0
   -8.7789    6.1536   27.9256 C   0  0  0  0  0  0  0  0  0  0  0  0
   -9.9428    5.8398   27.2296 C   0  0  0  0  0  0  0  0  0  0  0  0
   -8.7380    2.6148   25.5921 C   0  0  0  0  0  0  0  0  0  0  0  0
   -8.3857    1.4504   26.2975 C   0  0  0  0  0  0  0  0  0  0  0  0
   -7.9780    1.4979   27.4648 C   0  0  0  0  0  0  0  0  0  0  0  0
   -8.4406    0.2762   25.4355 C   0  0  0  0  0  0  0  0  0  0  0  0
   -7.7405   -0.8177   25.8483 C   0  0  0  0  0  0  0  0  0  0  0  0
   -7.2580    0.1845   27.9630 C   0  0  0  0  0  0  0  0  0  0  0  0
   -7.2474   -0.9045   27.1437 C   0  0  0  0  0  0  0  0  0  0  0  0
  -11.1927    4.3327   25.7626 C   0  0  0  0  0  0  0  0  0  0  0  0
  -12.3321    3.9385   26.4119 C   0  0  0  0  0  0  0  0  0  0  0  0
  -13.4736    3.6142   25.7400 C   0  0  0  0  0  0  0  0  0  0  0  0
  -13.4135    3.5619   24.3380 C   0  0  0  0  0  0  0  0  0  0  0  0
  -11.2499    4.2864   24.3634 C   0  0  0  0  0  0  0  0  0  0  0  0
  -12.2836    4.0065   23.6695 C   0  0  0  0  0  0  0  0  0  0  0  0
   -6.6114    5.5892   28.5855 O   0  0  0  0  0  0  0  0  0  0  0  0
   -8.9174    0.3118   24.0582 C   0  0  0  0  0  0  0  0  0  0  0  0
  -10.0076    0.3936   23.7373 C   0  0  0  0  0  0  0  0  0  0  0  0
  -10.5552    0.4795   22.4117 C   0  0  0  0  0  0  0  0  0  0  0  0
   -9.5659    0.5714   21.4181 C   0  0  0  0  0  0  0  0  0  0  0  0
   -8.2320    0.4888   21.7608 C   0  0  0  0  0  0  0  0  0  0  0  0
   -7.8158    0.3702   23.0866 C   0  0  0  0  0  0  0  0  0  0  0  0
  -11.2181    0.4008   24.7710 C   0  0  0  0  0  0  0  0  0  0  0  0
  -11.1935    0.2193   25.9877 C   0  0  0  0  0  0  0  0  0  0  0  0
  -12.3613    0.1036   26.8488 C   0  0  0  0  0  0  0  0  0  0  0  0
  -12.8926   -0.8605   27.1502 C   0  0  0  0  0  0  0  0  0  0  0  0
  -12.3382   -2.1375   26.8396 C   0  0  0  0  0  0  0  0  0  0  0  0
  -10.9984   -2.2785   26.8939 C   0  0  0  0  0  0  0  0  0  0  0  0
  -10.3718   -1.3106   26.2965 C   0  0  0  0  0  0  0  0  0  0  0  0
  -12.5851    0.6297   24.1968 C   0  0  0  0  0  0  0  0  0  0  0  0
  -12.9933    0.0200   22.9569 C   0  0  0  0  0  0  0  0  0  0  0  0
  -14.3095    0.0216   22.5603 C   0  0  0  0  0  0  0  0  0  0  0  0
  -11.8845    0.3647   22.0032 C   0  0  0  0  0  0  0  0  0  0  0  0
  -14.8450   -1.1107   22.4266 C   0  0  0  0  0  0  0  0  0  0  0  0
  -16.2685   -1.2886   22.0443 C   0  0  0  0  0  0  0  0  0  0  0  0
  -16.9648   -0.1114   21.8574 C   0  0  0  0  0  0  0  0  0  0  0  0
  3  7  1  0
  7  8  1  0
  4 14  1  0
  2 20  1  0
 10 21  1  0
 35 36  1  0
 36 38  2  3
 38 39  1  0
 39 40  2  0
 28 27  1  0
  1  2  2  0
  2  5  1  0
  5  6  2  0
  6  4  1  0
  4  3  2  0
  3  1  1  0
 23 37  1  0
 37 35  2  0
 35 34  1  0
 34 27  2  0
 27 22  1  0
 14 15  2  0
 15 16  1  0
 16 17  2  0
 17 19  1  0
 19 18  2  0
 18 14  1  0
 28 29  2  0
 29 30  1  0
 30 31  2  0
 31 32  1  0
 32 33  2  0
 33 28  1  0
  8  9  2  0
  9 12  1  0
 12 13  2  0
 13 11  1  0
 11 10  2  0
 10  8  1  0
 21 22  2  0
 22 23  1  0
 23 24  2  0
 24 25  1  0
 25 26  2  0
 26 21  1  0
M  END
$$$$
