No_7478-complexes_sdf/6BKW-FPZ/2024-09-17-14-21-01/
     RDKit          3D

 27 29  0  0  0  0  0  0  0  0999 V2000
   -7.2496    3.8871   27.4508 C   0  0  0  0  0  0  0  0  0  0  0  0
   -8.5096    4.0291   27.2770 C   0  0  0  0  0  0  0  0  0  0  0  0
   -9.3451    2.8786   26.9046 C   0  0  0  0  0  0  0  0  0  0  0  0
   -8.7138    1.7135   26.7541 C   0  0  0  0  0  0  0  0  0  0  0  0
   -6.5992    2.6226   27.4994 C   0  0  0  0  0  0  0  0  0  0  0  0
   -7.3741    1.5404   27.1241 C   0  0  0  0  0  0  0  0  0  0  0  0
   -9.1432    5.3791   27.3104 C   0  0  0  0  0  0  0  0  0  0  0  0
   -8.3203    6.5255   27.1234 C   0  0  0  0  0  0  0  0  0  0  0  0
   -8.8593    7.8178   26.9810 C   0  0  0  0  0  0  0  0  0  0  0  0
   -6.8780    0.1774   27.0449 C   0  0  0  0  0  0  0  0  0  0  0  0
   -5.6412   -0.0560   27.7587 C   0  0  0  0  0  0  0  0  0  0  0  0
   -5.0881   -1.3581   27.7795 C   0  0  0  0  0  0  0  0  0  0  0  0
   -5.7138   -2.2811   27.0399 C   0  0  0  0  0  0  0  0  0  0  0  0
   -7.2838   -0.9141   26.4280 C   0  0  0  0  0  0  0  0  0  0  0  0
   -6.8029   -2.0943   26.3591 C   0  0  0  0  0  0  0  0  0  0  0  0
  -10.7248    3.0503   26.5428 C   0  0  0  0  0  0  0  0  0  0  0  0
  -11.5138    1.8800   26.5241 C   0  0  0  0  0  0  0  0  0  0  0  0
  -12.4807    1.6422   26.8230 C   0  0  0  0  0  0  0  0  0  0  0  0
  -13.3339    2.7471   27.3772 C   0  0  0  0  0  0  0  0  0  0  0  0
  -14.5881    2.7041   27.7557 C   0  0  0  0  0  0  0  0  0  0  0  0
  -12.6237    4.0427   27.4319 C   0  0  0  0  0  0  0  0  0  0  0  0
  -11.4486    4.2085   26.8414 C   0  0  0  0  0  0  0  0  0  0  0  0
  -15.2176    1.8279   27.8781 C   0  0  0  0  0  0  0  0  0  0  0  0
  -15.7397    1.0696   26.9714 C   0  0  0  0  0  0  0  0  0  0  0  0
  -16.5151   -0.1708   27.1836 C   0  0  0  0  0  0  0  0  0  0  0  0
  -16.6932   -0.5539   28.4955 C   0  0  0  0  0  0  0  0  0  0  0  0
  -16.2056    0.1412   29.5406 C   0  0  0  0  0  0  0  0  0  0  0  0
  2  7  1  0
  7  8  2  3
  8  9  1  0
  6 10  1  0
  3 16  1  0
 20 23  1  0
 23 24  2  3
 24 25  1  0
 25 26  2  3
 26 27  1  0
 20 19  1  0
 16 17  2  0
 17 18  1  0
 18 19  2  0
 19 21  1  0
 21 22  2  0
 22 16  1  0
  1  2  2  0
  2  3  1  0
  3  4  2  0
  4  6  1  0
  6  5  2  0
  5  1  1  0
 10 11  2  0
 11 12  1  0
 12 13  2  0
 13 15  1  0
 15 14  2  0
 14 10  1  0
M  END
$$$$
