No_7454-complexes_sdf/6BKW-FPZ/2024-09-17-14-21-01/
     RDKit          3D

 23 27  0  0  0  0  0  0  0  0999 V2000
   -7.2496    3.8871   27.4508 C   0  0  0  0  0  0  0  0  0  0  0  0
   -7.6161    2.7143   27.1523 C   0  0  0  0  0  0  0  0  0  0  0  0
   -8.8302    2.4659   26.5056 C   0  0  0  0  0  0  0  0  0  0  0  0
   -8.1584    5.0089   27.3234 C   0  0  0  0  0  0  0  0  0  0  0  0
   -9.3788    4.7965   26.7695 C   0  0  0  0  0  0  0  0  0  0  0  0
   -9.7028    3.5649   26.3276 C   0  0  0  0  0  0  0  0  0  0  0  0
   -6.6031    1.7711   27.4433 N   0  0  0  0  0  0  0  0  0  0  0  0
   -5.4022    2.0094   27.7908 C   0  0  0  0  0  0  0  0  0  0  0  0
   -6.8136    0.3964   26.8907 C   0  0  2  0  0  0  0  0  0  0  0  0
   -7.6447    6.5994   27.8779 Cl  0  0  0  0  0  0  0  0  0  0  0  0
   -4.4904    0.8605   28.1639 C   0  0  0  0  0  0  0  0  0  0  0  0
   -8.1024    0.0522   26.5289 C   0  0  0  0  0  0  0  0  0  0  0  0
   -9.0914    1.0936   26.2000 C   0  0  0  0  0  0  0  0  0  0  0  0
   -4.6929   -0.3538   28.0188 C   0  0  0  0  0  0  0  0  0  0  0  0
   -6.0873   -0.5300   27.8562 C   0  0  0  0  0  0  0  0  0  0  0  0
  -10.3176    0.7388   25.5922 C   0  0  0  0  0  0  0  0  0  0  0  0
  -10.4172   -0.3633   25.1581 C   0  0  0  0  0  0  0  0  0  0  0  0
   -9.4998   -1.4335   25.4676 C   0  0  0  0  0  0  0  0  0  0  0  0
   -8.3892   -1.2252   26.1240 C   0  0  0  0  0  0  0  0  0  0  0  0
   -3.8255   -1.3798   28.1374 C   0  0  0  0  0  0  0  0  0  0  0  0
   -2.6230   -1.2695   27.9338 C   0  0  0  0  0  0  0  0  0  0  0  0
   -2.0867    0.0135   27.7048 C   0  0  0  0  0  0  0  0  0  0  0  0
   -3.0264    1.1755   27.8380 C   0  0  0  0  0  0  0  0  0  0  0  0
  2  7  1  0
  7  8  1  0
  7  9  1  0
  4 10  1  0
  9 12  1  0
  3 13  1  0
  9 15  1  1
 14 15  1  0
  8 11  1  0
  1  2  2  0
  2  3  1  0
  3  6  2  0
  6  5  1  0
  5  4  2  0
  4  1  1  0
 11 14  2  0
 14 20  1  0
 20 21  2  0
 21 22  1  0
 22 23  2  0
 23 11  1  0
 12 13  2  0
 13 16  1  0
 16 17  2  0
 17 18  1  0
 18 19  2  0
 19 12  1  0
M  END
$$$$
