No_7046-complexes_sdf/6BKW-FPZ/2024-09-17-14-21-01/
     RDKit          3D

 17 19  0  0  0  0  0  0  0  0999 V2000
   -7.7129    4.2099   27.0854 C   0  0  0  0  0  0  0  0  0  0  0  0
   -7.7814    5.1722   27.8972 C   0  0  0  0  0  0  0  0  0  0  0  0
   -8.7889    3.2468   27.2220 C   0  0  0  0  0  0  0  0  0  0  0  0
   -8.5940    1.9755   26.6525 C   0  0  0  0  0  0  0  0  0  0  0  0
   -6.8210    6.2568   27.8517 C   0  0  0  0  0  0  0  0  0  0  0  0
   -9.9978    3.5833   27.8380 C   0  0  0  0  0  0  0  0  0  0  0  0
  -10.2891    4.8784   28.3254 C   0  0  0  0  0  0  0  0  0  0  0  0
   -9.1647    5.7144   28.4024 C   0  0  0  0  0  0  0  0  0  0  0  0
   -9.3015    0.9548   26.7090 C   0  0  0  0  0  0  0  0  0  0  0  0
  -10.5633    1.0171   27.3287 C   0  0  0  0  0  0  0  0  0  0  0  0
  -10.9683    2.4027   27.9076 C   0  0  0  0  0  0  0  0  0  0  0  0
  -12.2455    2.5225   28.6094 C   0  0  0  0  0  0  0  0  0  0  0  0
  -12.8722    1.5323   29.1376 C   0  0  0  0  0  0  0  0  0  0  0  0
  -14.0907    1.6968   29.8249 C   0  0  0  0  0  0  0  0  0  0  0  0
  -14.5810    3.0131   29.9773 C   0  0  0  0  0  0  0  0  0  0  0  0
  -13.9375    4.0919   29.4276 C   0  0  0  0  0  0  0  0  0  0  0  0
  -12.7587    3.8911   28.7691 C   0  0  0  0  0  0  0  0  0  0  0  0
  2  5  1  0
 11 12  1  0
 12 13  2  0
 13 14  1  0
 14 15  2  0
 15 16  1  0
 16 17  2  0
 17 12  1  0
  3  4  2  0
  4  9  1  0
  9 10  2  0
 10 11  1  0
 11  6  2  0
  1  2  2  0
  2  8  1  0
  8  7  2  0
  7  6  1  0
  6  3  1  0
  3  1  1  0
M  END
$$$$
