No_7936-complexes_sdf/6BKW-FPZ/2024-09-17-14-21-01/
     RDKit          3D

 26 29  0  0  0  0  0  0  0  0999 V2000
   -7.7129    4.2099   27.0854 C   0  0  0  0  0  0  0  0  0  0  0  0
   -7.7814    5.1722   27.8972 C   0  0  0  0  0  0  0  0  0  0  0  0
   -7.2983    2.9533   27.5684 C   0  0  0  0  0  0  0  0  0  0  0  0
   -7.6908    1.8111   26.9553 C   0  0  1  0  0  0  0  0  0  0  0  0
   -8.6533    1.9165   25.9430 C   0  0  0  0  0  0  0  0  0  0  0  0
   -9.2376    3.0581   25.6387 C   0  0  1  0  0  0  0  0  0  0  0  0
   -8.8901    4.1760   26.2867 C   0  0  0  0  0  0  0  0  0  0  0  0
   -8.3432    6.4292   27.5920 N   0  0  0  0  0  0  0  0  0  0  0  0
   -9.4193    5.4820   25.9990 C   0  0  0  0  0  0  0  0  0  0  0  0
   -9.1096    6.5898   26.6840 C   0  0  0  0  0  0  0  0  0  0  0  0
   -7.0394    0.5390   27.2227 C   0  0  0  0  0  0  0  0  0  0  0  0
   -5.7976    0.4716   27.8814 C   0  0  0  0  0  0  0  0  0  0  0  0
   -5.1987   -0.7402   28.1909 C   0  0  0  0  0  0  0  0  0  0  0  0
   -5.9001   -1.8806   27.9563 C   0  0  0  0  0  0  0  0  0  0  0  0
   -7.5430   -0.7418   27.1126 C   0  0  0  0  0  0  0  0  0  0  0  0
   -7.1045   -1.8658   27.4613 C   0  0  0  0  0  0  0  0  0  0  0  0
   -3.8341   -0.6880   28.8762 C   0  0  0  0  0  0  0  0  0  0  0  0
   -2.9063    0.1453   28.2963 C   0  0  0  0  0  0  0  0  0  0  0  0
   -3.5491   -1.4036   30.0549 C   0  0  0  0  0  0  0  0  0  0  0  0
   -2.4331   -1.9835   30.1490 C   0  0  0  0  0  0  0  0  0  0  0  0
   -2.1394   -2.5464   31.8125 Cl  0  0  0  0  0  0  0  0  0  0  0  0
   -1.6419   -0.5660   28.0093 C   0  0  0  0  0  0  0  0  0  0  0  0
   -1.2691   -1.3524   29.3391 C   0  0  0  0  0  0  0  0  0  0  0  0
  -10.2087    3.0639   24.5275 C   0  0  0  0  0  0  0  0  0  0  0  0
  -11.1669    3.8658   24.5318 N   0  0  0  0  0  0  0  0  0  0  0  0
  -12.1038    3.8345   23.5517 C   0  0  0  0  0  0  0  0  0  0  0  0
  1  3  1  0
  3  4  1  0
  4  5  1  0
  6  5  1  6
  6  7  1  0
  4 11  1  6
 13 17  1  0
 20 21  1  0
  6 24  1  0
 24 25  2  3
 25 26  1  0
  1  2  2  0
  2  8  1  0
  8 10  2  0
 10  9  1  0
  9  7  2  0
  7  1  1  0
 17 18  2  0
 18 22  1  0
 22 23  2  0
 23 20  1  0
 20 19  2  0
 19 17  1  0
 11 12  2  0
 12 13  1  0
 13 14  2  0
 14 16  1  0
 16 15  2  0
 15 11  1  0
M  END
$$$$
