No_7757-complexes_sdf/6BKW-FPZ/2024-09-17-14-21-01/
     RDKit          3D

 24 25  0  0  0  0  0  0  0  0999 V2000
   -7.2496    3.8871   27.4508 C   0  0  0  0  0  0  0  0  0  0  0  0
   -7.9379    4.9063   27.8518 C   0  0  1  0  0  0  0  0  0  0  0  0
   -7.5112    6.1898   27.6280 C   0  0  0  0  0  0  0  0  0  0  0  0
   -9.3085    4.6933   28.2930 C   0  0  0  0  0  0  0  0  0  0  0  0
   -7.7804    2.5137   27.6845 C   0  0  0  0  0  0  0  0  0  0  0  0
   -8.5337    2.1142   26.6680 C   0  0  0  0  0  0  0  0  0  0  0  0
   -8.7294    2.8037   25.5984 C   0  0  0  0  0  0  0  0  0  0  0  0
   -9.6275    2.3706   24.5428 C   0  0  0  0  0  0  0  0  0  0  0  0
  -10.3580    3.3521   23.8010 C   0  0  0  0  0  0  0  0  0  0  0  0
  -10.9097    3.1027   22.6275 C   0  0  0  0  0  0  0  0  0  0  0  0
  -10.8064    1.8143   22.0437 C   0  0  0  0  0  0  0  0  0  0  0  0
   -9.4018    1.2285   23.7798 C   0  0  0  0  0  0  0  0  0  0  0  0
   -9.9341    0.9368   22.6198 C   0  0  0  0  0  0  0  0  0  0  0  0
   -8.3523    7.2863   27.1012 C   0  0  0  0  0  0  0  0  0  0  0  0
   -9.1642    0.7834   26.8207 C   0  0  2  0  0  0  0  0  0  0  0  0
  -10.3617    0.7241   27.5011 C   0  0  0  0  0  0  0  0  0  0  0  0
  -11.0099    1.8482   27.9555 C   0  0  0  0  0  0  0  0  0  0  0  0
  -12.2686    1.7329   28.6556 C   0  0  0  0  0  0  0  0  0  0  0  0
  -12.7424    0.4773   29.0202 C   0  0  0  0  0  0  0  0  0  0  0  0
  -12.0794   -0.6577   28.5705 C   0  0  0  0  0  0  0  0  0  0  0  0
  -10.9091   -0.5639   27.8448 C   0  0  0  0  0  0  0  0  0  0  0  0
   -8.4651   -0.3596   26.4261 C   0  0  0  0  0  0  0  0  0  0  0  0
   -8.6336   -1.0735   25.3147 C   0  0  0  0  0  0  0  0  0  0  0  0
   -7.9651   -2.2115   25.0128 C   0  0  0  0  0  0  0  0  0  0  0  0
  1  2  1  0
  2  3  1  0
  2  4  1  6
  1  5  1  0
  5  6  1  0
  6  7  2  3
  7  8  1  0
  3 14  1  0
  6 15  1  0
 15 16  1  1
 15 22  1  0
 22 23  2  3
 23 24  1  0
 16 17  2  0
 17 18  1  0
 18 19  2  0
 19 20  1  0
 20 21  2  0
 21 16  1  0
  8  9  2  0
  9 10  1  0
 10 11  2  0
 11 13  1  0
 13 12  2  0
 12  8  1  0
M  END
$$$$
