No_7846-complexes_sdf/6BKW-FPZ/2024-09-17-14-21-01/
     RDKit          3D

 40 47  0  0  0  0  0  0  0  0999 V2000
   -7.2496    3.8871   27.4508 C   0  0  0  0  0  0  0  0  0  0  0  0
   -7.6161    2.7143   27.1523 C   0  0  0  0  0  0  0  0  0  0  0  0
   -8.8302    2.4659   26.5056 C   0  0  0  0  0  0  0  0  0  0  0  0
   -8.1584    5.0090   27.3234 C   0  0  2  0  0  0  0  0  0  0  0  0
   -9.3788    4.7965   26.7695 C   0  0  0  0  0  0  0  0  0  0  0  0
   -9.7028    3.5649   26.3276 C   0  0  1  0  0  0  0  0  0  0  0  0
   -6.7182    1.5519   27.3631 C   0  0  0  0  0  0  0  0  0  0  0  0
   -7.0500    0.2083   27.2450 C   0  0  0  0  0  0  0  0  0  0  0  0
   -8.3879    0.0846   26.7095 C   0  0  0  0  0  0  0  0  0  0  0  0
   -9.2609    1.1266   26.3193 C   0  0  0  0  0  0  0  0  0  0  0  0
   -7.5039    6.2771   27.7171 C   0  0  0  0  0  0  0  0  0  0  0  0
  -10.2471    3.4987   24.9146 C   0  0  0  0  0  0  0  0  0  0  0  0
  -11.5804    3.1335   24.9456 C   0  0  0  0  0  0  0  0  0  0  0  0
  -12.2577    3.1115   23.7710 C   0  0  0  0  0  0  0  0  0  0  0  0
  -11.5540    3.4325   22.5405 C   0  0  0  0  0  0  0  0  0  0  0  0
  -10.2211    3.8259   22.5909 C   0  0  0  0  0  0  0  0  0  0  0  0
   -9.5927    3.8866   23.8198 C   0  0  0  0  0  0  0  0  0  0  0  0
  -10.9647    3.2386   27.2889 C   0  0  1  0  0  0  0  0  0  0  0  0
  -12.0998    2.9815   26.1968 N   0  0  0  0  0  0  0  0  0  0  0  0
  -13.3937    2.6621   26.5717 C   0  0  0  0  0  0  0  0  0  0  0  0
  -13.7381    2.5095   27.9370 C   0  0  0  0  0  0  0  0  0  0  0  0
  -12.8051    2.8370   28.8465 C   0  0  0  0  0  0  0  0  0  0  0  0
  -11.3517    2.9862   28.4959 C   0  0  0  0  0  0  0  0  0  0  0  0
  -14.2152    2.5813   25.6978 O   0  0  0  0  0  0  0  0  0  0  0  0
   -8.8376   -1.3353   26.4705 C   0  0  0  0  0  0  0  0  0  0  0  0
   -8.4746   -2.2115   27.0882 C   0  0  0  0  0  0  0  0  0  0  0  0
   -7.0871   -2.2093   27.6694 C   0  0  0  0  0  0  0  0  0  0  0  0
   -6.4187   -0.9010   27.8079 C   0  0  0  0  0  0  0  0  0  0  0  0
   -5.1420   -0.7678   28.4857 C   0  0  0  0  0  0  0  0  0  0  0  0
   -5.0652   -0.9087   29.8364 C   0  0  0  0  0  0  0  0  0  0  0  0
   -3.8215   -0.5891   30.5186 C   0  0  0  0  0  0  0  0  0  0  0  0
   -2.7721   -0.0869   29.7139 C   0  0  0  0  0  0  0  0  0  0  0  0
   -4.0472   -0.4841   27.6779 C   0  0  0  0  0  0  0  0  0  0  0  0
   -2.8611   -0.0422   28.3446 C   0  0  0  0  0  0  0  0  0  0  0  0
   -3.7252   -0.6292   31.9749 C   0  0  0  0  0  0  0  0  0  0  0  0
   -2.4819   -0.4577   32.5181 C   0  0  0  0  0  0  0  0  0  0  0  0
   -2.3195   -0.4897   33.9532 C   0  0  0  0  0  0  0  0  0  0  0  0
   -3.4078   -0.7943   34.6922 N   0  0  0  0  0  0  0  0  0  0  0  0
   -4.5832   -1.0969   34.1189 C   0  0  0  0  0  0  0  0  0  0  0  0
   -4.7932   -0.9968   32.7659 C   0  0  0  0  0  0  0  0  0  0  0  0
  1  4  1  0
  3  6  1  0
  6  5  1  1
  4 11  1  6
  6 12  1  0
  6 18  1  0
 13 19  1  0
 18 19  1  0
 19 20  1  0
 20 21  1  0
 21 22  1  0
 18 23  1  6
 20 24  2  0
 28 29  1  0
 31 35  1  0
 23 22  1  0
  2  1  1  0
  4  5  1  0
 12 13  1  0
 13 14  2  0
 14 15  1  0
 15 16  2  0
 16 17  1  0
 17 12  2  0
  9 25  1  0
 25 26  2  0
 26 27  1  0
 27 28  2  0
 28  8  1  0
 29 30  2  0
 30 31  1  0
 31 32  2  0
 32 34  1  0
 34 33  2  0
 33 29  1  0
  2  3  2  0
  3 10  1  0
 10  9  2  0
  9  8  1  0
  8  7  2  0
  7  2  1  0
 35 36  2  0
 36 37  1  0
 37 38  2  0
 38 39  1  0
 39 40  2  0
 40 35  1  0
M  END
$$$$
