No_7183-complexes_sdf/6BKW-FPZ/2024-09-17-14-21-01/
     RDKit          3D

 20 23  0  0  0  0  0  0  0  0999 V2000
   -7.9040    3.9820   27.1177 C   0  0  0  0  0  0  0  0  0  0  0  0
   -7.8663    4.8694   27.9238 C   0  0  0  0  0  0  0  0  0  0  0  0
   -9.0491    3.8523   26.2542 C   0  0  0  0  0  0  0  0  0  0  0  0
   -8.7661    5.9491   27.9690 C   0  0  0  0  0  0  0  0  0  0  0  0
   -9.1715    2.7136   25.4037 C   0  0  0  0  0  0  0  0  0  0  0  0
   -9.8832    5.8611   27.1405 C   0  0  0  0  0  0  0  0  0  0  0  0
  -10.0016    4.7998   26.3324 C   0  0  0  0  0  0  0  0  0  0  0  0
   -8.6397    1.4769   25.7660 C   0  0  0  0  0  0  0  0  0  0  0  0
   -9.8368    2.8536   24.1596 C   0  0  0  0  0  0  0  0  0  0  0  0
   -8.0564    1.2583   27.0104 C   0  0  2  0  0  0  0  0  0  0  0  0
  -10.4287    4.0340   23.7938 C   0  0  0  0  0  0  0  0  0  0  0  0
  -10.6091    5.0922   24.9335 C   0  0  0  0  0  0  0  0  0  0  0  0
   -7.3874    2.5711   27.6109 C   0  0  0  0  0  0  0  0  0  0  0  0
   -7.4062    0.0992   27.4092 C   0  0  0  0  0  0  0  0  0  0  0  0
   -6.1057   -0.1636   27.7141 C   0  0  0  0  0  0  0  0  0  0  0  0
   -5.0641    0.9096   27.4666 C   0  0  0  0  0  0  0  0  0  0  0  0
   -3.7029    0.6357   27.8698 C   0  0  0  0  0  0  0  0  0  0  0  0
   -3.4124   -0.5357   28.5415 C   0  0  0  0  0  0  0  0  0  0  0  0
   -4.3738   -1.5074   28.7442 C   0  0  0  0  0  0  0  0  0  0  0  0
   -5.6748   -1.2768   28.3965 C   0  0  0  0  0  0  0  0  0  0  0  0
  1  2  2  0
  1  3  1  0
  2  4  1  0
  3  5  1  0
  4  6  2  0
  3  7  2  0
  6  7  1  0
  5  8  2  0
  5  9  1  0
  8 10  1  0
  9 11  2  0
  7 12  1  0
 11 12  1  0
  1 13  1  0
 10 13  1  6
 10 14  1  0
 14 15  2  3
 15 16  1  0
 16 17  2  0
 17 18  1  0
 18 19  2  0
 15 20  1  0
 19 20  1  0
M  END
$$$$
