No_7848-complexes_sdf/6BKW-FPZ/2024-09-17-14-21-01/
     RDKit          3D

 35 39  0  0  0  0  0  0  0  0999 V2000
   -7.7129    4.2099   27.0854 C   0  0  0  0  0  0  0  0  0  0  0  0
   -8.2112    3.0637   26.9225 C   0  0  2  0  0  0  0  0  0  0  0  0
   -7.0021    4.5281   28.2396 C   0  0  0  0  0  0  0  0  0  0  0  0
   -9.4237    2.7810   26.2714 C   0  0  0  0  0  0  0  0  0  0  0  0
   -9.8781    3.7859   25.4663 C   0  0  2  0  0  0  0  0  0  0  0  0
   -9.3689    5.0975   25.5965 C   0  0  0  0  0  0  0  0  0  0  0  0
   -8.4784    5.3402   26.5448 C   0  0  0  0  0  0  0  0  0  0  0  0
  -11.0301    3.3989   24.6567 C   0  0  0  0  0  0  0  0  0  0  0  0
  -12.2779    3.5176   25.0932 C   0  0  0  0  0  0  0  0  0  0  0  0
  -10.8234    3.1876   23.2693 C   0  0  0  0  0  0  0  0  0  0  0  0
  -11.7783    3.0671   22.3453 C   0  0  0  0  0  0  0  0  0  0  0  0
  -13.3989    3.4177   24.2165 C   0  0  0  0  0  0  0  0  0  0  0  0
  -13.1320    3.1351   22.8675 C   0  0  0  0  0  0  0  0  0  0  0  0
  -12.5881    3.9118   26.4883 C   0  0  0  0  0  0  0  0  0  0  0  0
  -12.9578    3.0043   27.4062 C   0  0  0  0  0  0  0  0  0  0  0  0
  -13.1076    3.4011   28.7381 C   0  0  0  0  0  0  0  0  0  0  0  0
  -12.7962    4.6473   29.1766 C   0  0  0  0  0  0  0  0  0  0  0  0
  -12.2644    5.1195   26.9978 N   0  0  0  0  0  0  0  0  0  0  0  0
  -12.3265    5.5168   28.2089 C   0  0  0  0  0  0  0  0  0  0  0  0
  -13.5450    2.3394   29.7728 C   0  0  0  0  0  0  0  0  0  0  0  0
  -13.4933    1.0243   29.3215 C   0  0  0  0  0  0  0  0  0  0  0  0
  -13.2505    0.7604   27.9610 C   0  0  0  0  0  0  0  0  0  0  0  0
  -12.9899    1.6845   27.0285 C   0  0  0  0  0  0  0  0  0  0  0  0
   -7.5317    1.8655   27.6163 C   0  0  0  0  0  0  0  0  0  0  0  0
   -6.1581    1.6283   27.2504 C   0  0  0  0  0  0  0  0  0  0  0  0
   -5.5517    0.4503   27.8538 C   0  0  0  0  0  0  0  0  0  0  0  0
   -4.2120    0.5623   28.2436 C   0  0  0  0  0  0  0  0  0  0  0  0
   -3.6355   -0.5057   28.9568 C   0  0  0  0  0  0  0  0  0  0  0  0
   -2.4206   -0.4130   29.4664 C   0  0  0  0  0  0  0  0  0  0  0  0
   -4.4650   -1.5989   29.2541 C   0  0  0  0  0  0  0  0  0  0  0  0
   -5.7700   -1.6830   28.7959 C   0  0  0  0  0  0  0  0  0  0  0  0
   -6.3190   -0.5898   28.1829 C   0  0  0  0  0  0  0  0  0  0  0  0
   -1.6089   -1.5271   29.8874 C   0  0  0  0  0  0  0  0  0  0  0  0
   -2.1952   -2.3363   30.8056 C   0  0  0  0  0  0  0  0  0  0  0  0
   -3.4054   -3.0918   30.6168 C   0  0  0  0  0  0  0  0  0  0  0  0
  1  2  1  0
  1  3  2  0
  2  4  1  0
  4  5  1  0
  5  6  1  0
  1  7  1  0
  6  7  1  0
  5  8  1  1
  9 14  1  0
  2 24  1  1
 24 25  1  0
 28 29  1  0
 29 33  2  3
 33 34  1  0
 34 35  2  0
 25 26  1  0
 16 20  1  0
 20 21  2  0
 21 22  1  0
 22 23  2  0
 23 15  1  0
 26 27  2  0
 27 28  1  0
 28 30  2  0
 30 31  1  0
 31 32  2  0
 32 26  1  0
 14 15  2  0
 15 16  1  0
 16 17  2  0
 17 19  1  0
 19 18  2  0
 18 14  1  0
  8  9  2  0
  9 12  1  0
 12 13  2  0
 13 11  1  0
 11 10  2  0
 10  8  1  0
M  END
$$$$
