No_725-complexes_sdf/6BKW-FPZ/2024-09-17-14-21-01/
     RDKit          3D

 38 42  0  0  0  0  0  0  0  0999 V2000
   -7.9040    3.9820   27.1177 C   0  0  0  0  0  0  0  0  0  0  0  0
   -7.8663    4.8694   27.9238 C   0  0  0  0  0  0  0  0  0  0  0  0
   -9.0501    3.8017   26.2617 C   0  0  0  0  0  0  0  0  0  0  0  0
   -9.1826    2.7026   25.3575 C   0  0  0  0  0  0  0  0  0  0  0  0
   -8.6940    6.0131   27.8614 C   0  0  0  0  0  0  0  0  0  0  0  0
   -9.7382    4.9916   26.1006 C   0  0  0  0  0  0  0  0  0  0  0  0
   -9.4392    5.9832   26.9279 C   0  0  0  0  0  0  0  0  0  0  0  0
   -8.7536    1.5371   25.7686 N   0  0  0  0  0  0  0  0  0  0  0  0
   -8.5621    0.4927   24.9587 C   0  0  0  0  0  0  0  0  0  0  0  0
   -7.8478   -0.6361   25.4379 C   0  0  0  0  0  0  0  0  0  0  0  0
   -7.4037   -0.5456   26.7806 C   0  0  1  0  0  0  0  0  0  0  0  0
   -7.5811    0.5323   27.6240 C   0  0  0  0  0  0  0  0  0  0  0  0
   -8.2233    1.6143   27.1056 C   0  0  1  0  0  0  0  0  0  0  0  0
   -8.0004    2.7607   27.7270 N   0  0  0  0  0  0  0  0  0  0  0  0
  -10.0383    2.7534   24.4321 O   0  0  0  0  0  0  0  0  0  0  0  0
   -6.7238   -1.8314   27.2961 C   0  0  0  0  0  0  0  0  0  0  0  0
   -6.5820   -1.9323   28.5641 C   0  0  0  0  0  0  0  0  0  0  0  0
   -5.7748   -1.1563   29.2446 C   0  0  0  0  0  0  0  0  0  0  0  0
   -5.4729   -1.3088   30.6969 C   0  0  0  0  0  0  0  0  0  0  0  0
   -6.1797   -2.2519   31.3961 C   0  0  0  0  0  0  0  0  0  0  0  0
   -7.0948   -3.0223   30.7060 C   0  0  0  0  0  0  0  0  0  0  0  0
   -7.2893   -2.8832   29.3971 C   0  0  0  0  0  0  0  0  0  0  0  0
   -4.4879   -0.3965   31.3784 C   0  0  0  0  0  0  0  0  0  0  0  0
   -4.6542   -0.3346   32.6227 F   0  0  0  0  0  0  0  0  0  0  0  0
   -4.4426    0.9052   30.8718 F   0  0  0  0  0  0  0  0  0  0  0  0
   -3.2762   -0.9957   31.1776 F   0  0  0  0  0  0  0  0  0  0  0  0
   -6.2606   -2.8093   26.4277 C   0  0  0  0  0  0  0  0  0  0  0  0
   -4.9976   -2.5427   25.7463 C   0  0  0  0  0  0  0  0  0  0  0  0
   -4.2303   -1.3726   26.0697 C   0  0  0  0  0  0  0  0  0  0  0  0
   -4.2735   -0.4091   25.7387 C   0  0  0  0  0  0  0  0  0  0  0  0
   -3.3063    0.7046   26.1175 C   0  0  0  0  0  0  0  0  0  0  0  0
   -2.2393    0.3268   26.9557 C   0  0  0  0  0  0  0  0  0  0  0  0
   -3.0065   -1.5080   27.1288 C   0  0  2  0  0  0  0  0  0  0  0  0
   -1.9099   -0.8797   27.5311 C   0  0  1  0  0  0  0  0  0  0  0  0
   -1.0378   -1.0906   28.4908 C   0  0  0  0  0  0  0  0  0  0  0  0
   -0.9095   -1.2470   26.7279 C   0  0  0  0  0  0  0  0  0  0  0  0
   -1.4550    1.4446   27.2861 O   0  0  0  0  0  0  0  0  0  0  0  0
   -1.4380   -1.1998   29.5943 N   0  0  0  0  0  0  0  0  0  0  0  0
  3  4  1  0
  4  8  1  0
  8  9  1  0
 10 11  1  0
  8 13  1  0
 13 12  1  6
  1 14  1  0
 13 14  1  0
  4 15  2  0
 11 16  1  1
 16 17  1  0
 19 23  1  0
 23 24  1  0
 23 25  1  0
 23 26  1  0
 16 27  1  0
 27 28  2  3
 28 29  1  0
 29 30  2  0
 30 31  1  0
 31 32  2  0
 33 29  1  6
 32 33  1  0
 33 34  1  0
 34 35  1  0
 34 36  1  6
 32 37  1  0
 35 38  2  0
  9 10  1  0
 11 12  1  0
 17 18  2  0
 18 19  1  0
 19 20  2  0
 20 21  1  0
 21 22  2  0
 22 17  1  0
  1  2  2  0
  2  5  1  0
  5  7  2  0
  7  6  1  0
  6  3  2  0
  3  1  1  0
M  END
$$$$
