No_7639-complexes_sdf/6BKW-FPZ/2024-09-17-14-21-01/
     RDKit          3D

 15 16  0  0  0  0  0  0  0  0999 V2000
   -7.7129    4.2099   27.0854 C   0  0  0  0  0  0  0  0  0  0  0  0
   -7.7814    5.1722   27.8972 C   0  0  0  0  0  0  0  0  0  0  0  0
   -7.2983    2.9533   27.5684 C   0  0  0  0  0  0  0  0  0  0  0  0
   -7.6908    1.8111   26.9553 C   0  0  0  0  0  0  0  0  0  0  0  0
   -8.6533    1.9165   25.9430 C   0  0  0  0  0  0  0  0  0  0  0  0
   -9.2376    3.0581   25.6387 C   0  0  0  0  0  0  0  0  0  0  0  0
   -8.8901    4.1760   26.2867 C   0  0  0  0  0  0  0  0  0  0  0  0
   -8.3894    6.3916   27.5666 N   0  0  0  0  0  0  0  0  0  0  0  0
   -9.4225    5.4806   26.0539 C   0  0  0  0  0  0  0  0  0  0  0  0
   -9.1307    6.5890   26.7090 C   0  0  0  0  0  0  0  0  0  0  0  0
   -7.0379    0.5242   27.2196 C   0  0  0  0  0  0  0  0  0  0  0  0
   -5.9339    0.4749   27.9216 N   0  0  0  0  0  0  0  0  0  0  0  0
   -5.1565   -0.3012   28.0803 C   0  0  0  0  0  0  0  0  0  0  0  0
   -3.8843    0.0043   28.7957 C   0  0  0  0  0  0  0  0  0  0  0  0
   -2.9245   -0.9690   29.1186 C   0  0  0  0  0  0  0  0  0  0  0  0
  4 11  1  0
 11 12  1  0
 12 13  1  0
 13 14  2  3
 14 15  1  0
  1  2  2  0
  2  8  1  0
  8 10  2  0
 10  9  1  0
  9  7  2  0
  1  3  1  0
  3  4  2  0
  4  5  1  0
  5  6  2  0
  6  7  1  0
  7  1  1  0
M  END
$$$$
