No_755-complexes_sdf/6BKW-FPZ/2024-09-17-14-21-01/
     RDKit          3D

 14 15  0  0  0  0  0  0  0  0999 V2000
   -7.2496    3.8871   27.4508 C   0  0  0  0  0  0  0  0  0  0  0  0
   -8.5096    4.0291   27.2770 C   0  0  0  0  0  0  0  0  0  0  0  0
   -9.3451    2.8786   26.9046 C   0  0  0  0  0  0  0  0  0  0  0  0
   -6.6065    2.5680   27.5073 C   0  0  0  0  0  0  0  0  0  0  0  0
   -7.3970    1.4834   27.2271 C   0  0  0  0  0  0  0  0  0  0  0  0
   -8.7029    1.6398   26.9934 C   0  0  0  0  0  0  0  0  0  0  0  0
   -9.1085    5.3654   27.2135 C   0  0  0  0  0  0  0  0  0  0  0  0
  -10.3473    5.4348   27.5967 F   0  0  0  0  0  0  0  0  0  0  0  0
   -8.4164    6.2595   28.0559 F   0  0  0  0  0  0  0  0  0  0  0  0
   -8.9877    5.8674   25.9593 F   0  0  0  0  0  0  0  0  0  0  0  0
   -5.3198    2.4953   27.8054 O   0  0  0  0  0  0  0  0  0  0  0  0
   -6.7567    0.1748   27.2250 C   0  0  0  0  0  0  0  0  0  0  0  0
   -5.6869   -0.0784   27.7843 C   0  0  0  0  0  0  0  0  0  0  0  0
   -4.7543    1.1456   27.9003 C   0  0  0  0  0  0  0  0  0  0  0  0
  2  7  1  0
  7  8  1  0
  7  9  1  0
  7 10  1  0
  4 11  1  0
  5 12  1  0
 12 13  1  0
 11 14  1  0
 13 14  2  0
  1  2  2  0
  2  3  1  0
  3  6  2  0
  6  5  1  0
  5  4  2  0
  4  1  1  0
M  END
$$$$
