No_7422-complexes_sdf/6BKW-FPZ/2024-09-17-14-21-01/
     RDKit          3D

 13 14  0  0  0  0  0  0  0  0999 V2000
   -7.2496    3.8871   27.4508 C   0  0  0  0  0  0  0  0  0  0  0  0
   -7.6161    2.7143   27.1523 C   0  0  0  0  0  0  0  0  0  0  0  0
   -6.9719    1.5838   27.5324 C   0  0  0  0  0  0  0  0  0  0  0  0
   -7.4590    0.2827   27.2615 C   0  0  0  0  0  0  0  0  0  0  0  0
   -8.7521    2.5117   26.3068 C   0  0  0  0  0  0  0  0  0  0  0  0
   -9.2100    1.2391   25.9794 C   0  0  0  0  0  0  0  0  0  0  0  0
   -8.5134    0.1313   26.5112 C   0  0  0  0  0  0  0  0  0  0  0  0
   -8.1589    4.9383   27.5999 C   0  0  0  0  0  0  0  0  0  0  0  0
   -7.7484    6.1730   28.3371 C   0  0  0  0  0  0  0  0  0  0  0  0
   -9.4515    4.9298   27.1267 C   0  0  0  0  0  0  0  0  0  0  0  0
  -10.3831    4.2737   27.1341 C   0  0  0  0  0  0  0  0  0  0  0  0
   -9.9755    2.9404   26.3765 C   0  0  1  0  0  0  0  0  0  0  0  0
  -11.0062    2.7084   25.2645 C   0  0  0  0  0  0  0  0  0  0  0  0
  1  8  1  0
  8  9  1  0
  8 10  1  0
 10 11  2  0
  5 12  1  0
 11 12  1  0
 12 13  1  6
  1  2  1  0
  2  3  2  0
  3  4  1  0
  4  7  2  0
  7  6  1  0
  6  5  2  0
  5  2  1  0
M  END
$$$$
