No_7168-complexes_sdf/6BKW-FPZ/2024-09-17-14-21-01/
     RDKit          3D

 38 43  0  0  0  0  0  0  0  0999 V2000
   -7.2496    3.8871   27.4508 C   0  0  0  0  0  0  0  0  0  0  0  0
   -7.9379    4.9063   27.8518 C   0  0  0  0  0  0  0  0  0  0  0  0
   -9.3376    4.8647   27.7795 C   0  0  0  0  0  0  0  0  0  0  0  0
   -7.8544    2.6294   27.0414 C   0  0  0  0  0  0  0  0  0  0  0  0
   -9.2665    2.6175   27.0340 C   0  0  0  0  0  0  0  0  0  0  0  0
   -9.9836    3.7042   27.4150 C   0  0  0  0  0  0  0  0  0  0  0  0
   -9.9053    1.3367   26.6546 C   0  0  0  0  0  0  0  0  0  0  0  0
   -9.3787    0.4312   26.0896 C   0  0  0  0  0  0  0  0  0  0  0  0
  -10.0956   -0.6558   25.7000 C   0  0  0  0  0  0  0  0  0  0  0  0
  -11.2994    1.4798   26.4126 C   0  0  0  0  0  0  0  0  0  0  0  0
  -12.0597    0.3453   26.1260 C   0  0  0  0  0  0  0  0  0  0  0  0
  -11.3974   -0.7121   25.6618 C   0  0  0  0  0  0  0  0  0  0  0  0
   -7.3405    6.0261   28.1830 F   0  0  0  0  0  0  0  0  0  0  0  0
   -9.3074   -1.9148   25.1177 C   0  0  0  0  0  0  0  0  0  0  0  0
   -8.2747   -1.6683   24.5255 C   0  0  0  0  0  0  0  0  0  0  0  0
   -7.3585   -0.5097   24.8772 C   0  0  0  0  0  0  0  0  0  0  0  0
   -7.8852    0.4219   25.6664 C   0  0  0  0  0  0  0  0  0  0  0  0
   -7.1284    1.5301   26.4445 C   0  0  0  0  0  0  0  0  0  0  0  0
  -11.3010    3.7761   27.5145 F   0  0  0  0  0  0  0  0  0  0  0  0
  -12.1009   -1.7961   25.3923 O   0  0  0  0  0  0  0  0  0  0  0  0
  -12.5613   -2.6746   26.1014 C   0  0  0  0  0  0  0  0  0  0  0  0
  -13.7897   -2.9476   25.9904 C   0  0  0  0  0  0  0  0  0  0  0  0
  -14.5945   -2.6154   25.0727 C   0  0  0  0  0  0  0  0  0  0  0  0
  -15.9890   -2.8930   25.0147 C   0  0  0  0  0  0  0  0  0  0  0  0
  -16.8391   -2.4729   23.9610 C   0  0  0  0  0  0  0  0  0  0  0  0
  -16.4169   -1.9202   23.1110 C   0  0  0  0  0  0  0  0  0  0  0  0
  -15.0419   -1.5252   22.8803 C   0  0  0  0  0  0  0  0  0  0  0  0
  -14.1978   -1.8609   23.8648 C   0  0  0  0  0  0  0  0  0  0  0  0
  -11.6990   -3.2725   27.1111 C   0  0  0  0  0  0  0  0  0  0  0  0
  -12.0190   -4.0074   27.9297 N   0  0  0  0  0  0  0  0  0  0  0  0
  -14.2844   -3.9278   27.0147 C   0  0  0  0  0  0  0  0  0  0  0  0
  -13.3275   -4.4549   27.9652 C   0  0  0  0  0  0  0  0  0  0  0  0
  -14.5512   -0.7719   21.7368 C   0  0  0  0  0  0  0  0  0  0  0  0
  -14.1362   -1.2686   20.8145 O   0  0  0  0  0  0  0  0  0  0  0  0
  -14.5682    0.5659   21.9150 O   0  0  0  0  0  0  0  0  0  0  0  0
  -13.8092   -5.3412   28.8717 N   0  0  0  0  0  0  0  0  0  0  0  0
  -13.2206   -5.5980   29.9443 C   0  0  0  0  0  0  0  0  0  0  0  0
  -11.9427   -5.4332   29.9551 C   0  0  0  0  0  0  0  0  0  0  0  0
  5  7  1  0
  2 13  1  0
  4 18  1  0
 17 18  1  0
  6 19  1  0
 12 20  1  0
 20 21  1  0
 22 23  1  0
 27 33  1  0
 33 34  2  0
 33 35  1  0
 32 36  1  0
 36 37  1  0
 37 38  2  0
 23 24  2  0
 24 25  1  0
 25 26  2  0
 26 27  1  0
 27 28  2  0
 28 23  1  0
  1  2  2  0
  2  3  1  0
  3  6  2  0
  6  5  1  0
  5  4  2  0
  4  1  1  0
  7  8  2  0
  9 12  2  0
 12 11  1  0
 11 10  2  0
 10  7  1  0
 21 22  2  0
 22 31  1  0
 31 32  2  0
 32 30  1  0
 30 29  2  0
 29 21  1  0
  8  9  1  0
  9 14  1  0
 14 15  2  0
 15 16  1  0
 16 17  2  0
 17  8  1  0
M  END
$$$$
