No_7474-complexes_sdf/6BKW-FPZ/2024-09-17-14-21-01/
     RDKit          3D

 38 44  0  0  0  0  0  0  0  0999 V2000
   -7.9040    3.9820   27.1177 C   0  0  0  0  0  0  0  0  0  0  0  0
   -8.2057    2.8231   26.8733 C   0  0  0  0  0  0  0  0  0  0  0  0
   -8.7695    5.0740   26.7916 C   0  0  0  0  0  0  0  0  0  0  0  0
   -8.4337    6.4678   27.0913 C   0  0  0  0  0  0  0  0  0  0  0  0
   -9.3742    2.4311   26.2346 C   0  0  0  0  0  0  0  0  0  0  0  0
  -10.2395    3.4267   25.8887 C   0  0  0  0  0  0  0  0  0  0  0  0
   -9.9567    4.7548   26.1374 C   0  0  0  0  0  0  0  0  0  0  0  0
   -7.9449    7.5014   26.9590 N   0  0  0  0  0  0  0  0  0  0  0  0
   -7.3078    1.7582   27.2741 N   0  0  0  0  0  0  0  0  0  0  0  0
   -6.0950    2.0519   27.8506 C   0  0  0  0  0  0  0  0  0  0  0  0
   -5.2596    0.8350   28.1847 C   0  0  0  0  0  0  0  0  0  0  0  0
   -5.9631   -0.3052   27.9502 C   0  0  2  0  0  0  0  0  0  0  0  0
   -7.3779    0.3490   27.3053 C   0  0  0  0  0  0  0  0  0  0  0  0
   -3.9506    0.9056   28.7821 C   0  0  0  0  0  0  0  0  0  0  0  0
   -3.2240   -0.3054   28.8430 C   0  0  0  0  0  0  0  0  0  0  0  0
   -3.5518   -1.3310   29.2307 C   0  0  0  0  0  0  0  0  0  0  0  0
   -4.8392   -1.9346   28.7163 C   0  0  0  0  0  0  0  0  0  0  0  0
   -5.9130   -1.5281   28.2272 C   0  0  0  0  0  0  0  0  0  0  0  0
   -8.3017   -0.2856   27.0102 O   0  0  0  0  0  0  0  0  0  0  0  0
  -11.4595    3.1244   25.1022 C   0  0  0  0  0  0  0  0  0  0  0  0
  -11.6664    3.6520   23.9312 C   0  0  0  0  0  0  0  0  0  0  0  0
  -12.8104    3.4097   23.1108 C   0  0  0  0  0  0  0  0  0  0  0  0
  -13.7321    2.5577   23.6015 C   0  0  0  0  0  0  0  0  0  0  0  0
  -12.4410    2.2510   25.5660 C   0  0  0  0  0  0  0  0  0  0  0  0
  -13.5568    2.0020   24.8536 C   0  0  0  0  0  0  0  0  0  0  0  0
   -2.5737   -2.3746   29.7061 C   0  0  0  0  0  0  0  0  0  0  0  0
   -1.3698   -2.2457   29.3015 C   0  0  0  0  0  0  0  0  0  0  0  0
   -0.8149   -0.8539   29.0601 C   0  0  0  0  0  0  0  0  0  0  0  0
   -1.7238    0.0715   28.8225 C   0  0  0  0  0  0  0  0  0  0  0  0
  -14.9423    2.2986   22.7891 C   0  0  0  0  0  0  0  0  0  0  0  0
  -15.1576    2.6686   21.7331 C   0  0  0  0  0  0  0  0  0  0  0  0
  -14.1094    3.6529   21.1171 C   0  0  0  0  0  0  0  0  0  0  0  0
  -12.9911    4.0086   21.8135 C   0  0  0  0  0  0  0  0  0  0  0  0
  -16.2678    2.4660   20.8154 C   0  0  0  0  0  0  0  0  0  0  0  0
  -17.3339    1.9399   21.3055 C   0  0  0  0  0  0  0  0  0  0  0  0
  -17.1603    1.4203   22.6724 C   0  0  0  0  0  0  0  0  0  0  0  0
  -16.0525    1.5814   23.4525 C   0  0  0  0  0  0  0  0  0  0  0  0
  -18.2445    0.6999   23.1973 O   0  0  0  0  0  0  0  0  0  0  0  0
  3  4  1  0
  4  8  3  0
  2  9  1  0
  9 10  1  0
 10 11  2  0
 11 12  1  0
  9 13  1  0
 12 13  1  0
 11 14  1  0
 14 15  1  0
 16 17  1  0
 12 18  1  1
 17 18  2  0
 13 19  2  0
  6 20  1  0
 31 34  1  0
 35 36  1  0
 30 37  1  0
 36 37  1  0
 36 38  2  0
 35 34  1  0
  1  2  2  0
  2  5  1  0
  5  6  2  0
  6  7  1  0
  7  3  2  0
  3  1  1  0
 15 16  2  0
 16 26  1  0
 26 27  2  0
 27 28  1  0
 28 29  2  0
 29 15  1  0
 23 30  2  0
 30 31  1  0
 31 32  2  0
 32 33  1  0
 33 22  2  0
 20 21  2  0
 21 22  1  0
 22 23  1  0
 23 25  1  0
 25 24  2  0
 24 20  1  0
M  END
$$$$
