No_722-complexes_sdf/6BKW-FPZ/2024-09-17-14-21-01/
     RDKit          3D

 33 39  0  0  0  0  0  0  0  0999 V2000
   -7.7129    4.2099   27.0854 C   0  0  0  0  0  0  0  0  0  0  0  0
   -7.7814    5.1722   27.8972 C   0  0  0  0  0  0  0  0  0  0  0  0
   -7.3155    2.9700   27.6145 C   0  0  0  0  0  0  0  0  0  0  0  0
   -7.6814    1.8188   26.9581 C   0  0  0  0  0  0  0  0  0  0  0  0
   -8.6377    1.9131   25.9324 C   0  0  0  0  0  0  0  0  0  0  0  0
   -9.1866    3.0673   25.6037 C   0  0  0  0  0  0  0  0  0  0  0  0
   -8.8394    4.1752   26.2513 C   0  0  0  0  0  0  0  0  0  0  0  0
   -8.2782    6.4669   27.5870 N   0  0  0  0  0  0  0  0  0  0  0  0
   -9.1782    6.6191   26.5818 C   0  0  0  0  0  0  0  0  0  0  0  0
   -9.4874    5.4604   25.8830 C   0  0  0  0  0  0  0  0  0  0  0  0
   -7.0154    0.5462   27.2654 C   0  0  1  0  0  0  0  0  0  0  0  0
   -5.8082    0.4824   27.9784 C   0  0  0  0  0  0  0  0  0  0  0  0
   -4.8549    1.4722   27.9428 C   0  0  0  0  0  0  0  0  0  0  0  0
   -3.5795    1.2613   28.5867 C   0  0  0  0  0  0  0  0  0  0  0  0
   -5.4000   -0.7278   28.6170 C   0  0  0  0  0  0  0  0  0  0  0  0
   -6.3687   -1.7841   28.6905 C   0  0  0  0  0  0  0  0  0  0  0  0
   -3.3011    0.1096   29.2580 C   0  0  0  0  0  0  0  0  0  0  0  0
   -4.2200   -0.8722   29.3209 C   0  0  0  0  0  0  0  0  0  0  0  0
   -7.6927   -0.6562   26.9099 C   0  0  0  0  0  0  0  0  0  0  0  0
   -7.5386   -1.7068   27.8961 C   0  0  0  0  0  0  0  0  0  0  0  0
   -3.9089   -2.0734   30.0984 C   0  0  0  0  0  0  0  0  0  0  0  0
   -2.8511   -2.2449   30.5609 C   0  0  0  0  0  0  0  0  0  0  0  0
   -5.0315   -2.9860   30.2651 C   0  0  0  0  0  0  0  0  0  0  0  0
   -6.2137   -2.9440   29.5034 C   0  0  0  0  0  0  0  0  0  0  0  0
   -2.3126   -3.5084   30.8011 C   0  0  0  0  0  0  0  0  0  0  0  0
   -1.0261   -3.6176   31.1999 C   0  0  0  0  0  0  0  0  0  0  0  0
   -0.1787   -2.5486   31.5178 C   0  0  0  0  0  0  0  0  0  0  0  0
   -0.7411   -1.3290   31.3377 N   0  0  0  0  0  0  0  0  0  0  0  0
   -1.9526   -1.1187   30.8598 C   0  0  0  0  0  0  0  0  0  0  0  0
   -2.2494    0.0643   30.3307 O   0  0  0  0  0  0  0  0  0  0  0  0
  -10.1582    3.0457   24.4846 C   0  0  0  0  0  0  0  0  0  0  0  0
  -11.2474    3.8786   24.4860 C   0  0  0  0  0  0  0  0  0  0  0  0
  -12.2204    3.7464   23.5393 C   0  0  0  0  0  0  0  0  0  0  0  0
 11  4  1  1
 11 12  1  0
 11 19  1  0
 16 20  1  0
 19 20  1  0
 21 22  1  0
 17 30  1  0
 29 30  1  0
  6 31  1  0
 31 32  2  3
 32 33  1  0
  1  2  2  0
  2  8  1  0
  8  9  2  0
  9 10  1  0
 10  7  2  0
  1  3  1  0
  3  4  2  0
  4  5  1  0
  5  6  2  0
  6  7  1  0
  7  1  1  0
 12 13  2  0
 13 14  1  0
 14 17  2  0
 17 18  1  0
 15 12  1  0
 22 25  2  0
 25 26  1  0
 26 27  2  0
 27 28  1  0
 28 29  2  0
 29 22  1  0
 15 16  2  0
 16 24  1  0
 24 23  2  0
 23 21  1  0
 21 18  2  0
 18 15  1  0
M  END
$$$$
