No_7063-complexes_sdf/6BKW-FPZ/2024-09-17-14-21-01/
     RDKit          3D

 11 11  0  0  0  0  0  0  0  0999 V2000
   -7.2496    3.8871   27.4508 C   0  0  0  0  0  0  0  0  0  0  0  0
   -7.6161    2.7143   27.1523 C   0  0  0  0  0  0  0  0  0  0  0  0
   -8.6212    2.2239   26.4074 C   0  0  0  0  0  0  0  0  0  0  0  0
   -8.2539    4.9237   27.1712 C   0  0  0  0  0  0  0  0  0  0  0  0
   -9.3709    4.6019   26.4511 C   0  0  0  0  0  0  0  0  0  0  0  0
   -9.5922    3.3274   26.0949 C   0  0  0  0  0  0  0  0  0  0  0  0
   -7.9343    6.2319   27.5330 N   0  0  0  0  0  0  0  0  0  0  0  0
   -9.0471    0.9406   26.0420 C   0  0  0  0  0  0  0  0  0  0  0  0
   -9.2527    0.0260   26.9344 C   0  0  0  0  0  0  0  0  0  0  0  0
   -9.5633   -0.9433   27.1651 C   0  0  0  0  0  0  0  0  0  0  0  0
   -9.8891   -1.5819   28.0737 C   0  0  0  0  0  0  0  0  0  0  0  0
  4  7  1  0
  3  8  1  0
  8  9  2  3
  9 10  1  0
 10 11  2  0
  1  2  2  0
  2  3  1  0
  3  6  2  0
  6  5  1  0
  5  4  2  0
  4  1  1  0
M  END
$$$$
