No_7742-complexes_sdf/6BKW-FPZ/2024-09-17-14-21-01/
     RDKit          3D

 34 39  0  0  0  0  0  0  0  0999 V2000
   -7.7129    4.2099   27.0854 C   0  0  0  0  0  0  0  0  0  0  0  0
   -8.2112    3.0637   26.9225 C   0  0  0  0  0  0  0  0  0  0  0  0
   -7.5138    1.9223   27.4249 C   0  0  0  0  0  0  0  0  0  0  0  0
   -8.5309    5.4147   26.8151 C   0  0  0  0  0  0  0  0  0  0  0  0
   -9.6817    5.2393   26.1100 C   0  0  0  0  0  0  0  0  0  0  0  0
  -10.1032    3.9957   25.8534 C   0  0  0  0  0  0  0  0  0  0  0  0
   -9.4034    2.8430   26.2573 C   0  0  0  0  0  0  0  0  0  0  0  0
   -7.9625    0.5664   27.2655 C   0  0  0  0  0  0  0  0  0  0  0  0
   -9.2649    0.5125   26.5943 C   0  0  0  0  0  0  0  0  0  0  0  0
   -9.9476    1.5566   26.0984 C   0  0  0  0  0  0  0  0  0  0  0  0
   -7.9719    6.7766   27.0741 C   0  0  0  0  0  0  0  0  0  0  0  0
   -7.0335    6.8801   27.9324 N   0  0  0  0  0  0  0  0  0  0  0  0
   -8.4849    7.8771   26.5698 N   0  0  0  0  0  0  0  0  0  0  0  0
   -7.2791   -0.5298   27.8070 C   0  0  2  0  0  0  0  0  0  0  0  0
   -7.9079   -1.6537   28.1489 N   0  0  0  0  0  0  0  0  0  0  0  0
   -8.9635   -1.8846   28.2643 C   0  0  0  0  0  0  0  0  0  0  0  0
  -10.1328   -1.4077   27.7097 N   0  0  0  0  0  0  0  0  0  0  0  0
  -10.1589   -0.2173   27.1492 C   0  0  0  0  0  0  0  0  0  0  0  0
   -5.8770   -0.3106   28.0432 C   0  0  1  0  0  0  0  0  0  0  0  0
   -5.0442   -0.8571   27.5573 C   0  0  0  0  0  0  0  0  0  0  0  0
   -5.0419   -1.9049   26.7907 C   0  0  0  0  0  0  0  0  0  0  0  0
   -3.9081   -2.3879   26.0470 C   0  0  0  0  0  0  0  0  0  0  0  0
   -2.6714   -1.7329   26.2730 C   0  0  0  0  0  0  0  0  0  0  0  0
   -2.5727   -0.6077   27.0563 C   0  0  0  0  0  0  0  0  0  0  0  0
   -3.6493   -0.0914   27.7039 C   0  0  0  0  0  0  0  0  0  0  0  0
   -3.6583    1.0627   28.5973 C   0  0  0  0  0  0  0  0  0  0  0  0
   -5.5553    0.9324   28.9515 C   0  0  0  0  0  0  0  0  0  0  0  0
  -10.9143    1.2949   25.0690 C   0  0  0  0  0  0  0  0  0  0  0  0
  -10.6086    0.8151   23.8807 C   0  0  0  0  0  0  0  0  0  0  0  0
   -9.1946    0.5901   23.4853 C   0  0  0  0  0  0  0  0  0  0  0  0
   -8.8203    0.1099   22.2430 C   0  0  0  0  0  0  0  0  0  0  0  0
   -9.7944    0.0446   21.2532 C   0  0  0  0  0  0  0  0  0  0  0  0
  -11.1356    0.2695   21.5754 C   0  0  0  0  0  0  0  0  0  0  0  0
  -11.4843    0.7907   22.9057 C   0  0  0  0  0  0  0  0  0  0  0  0
  4 11  1  0
 11 12  2  0
 11 13  1  0
  8 14  1  0
 14 15  1  1
 15 16  2  0
 16 17  2  0
  9 18  1  0
 17 18  1  0
 14 19  1  0
 19 20  1  0
 25 26  1  0
 19 27  1  6
 26 27  1  0
 10 28  1  0
 28 29  1  0
 29 30  2  0
 30 31  1  0
 31 32  2  0
 32 33  1  0
 33 34  2  0
 34 29  1  0
  1  2  2  0
  7  6  2  0
  6  5  1  0
  5  4  2  0
  4  1  1  0
 20 21  2  0
 21 22  1  0
 22 23  2  0
 23 24  1  0
 24 25  2  0
 25 20  1  0
  2  3  1  0
  3  8  2  0
  8  9  1  0
  9 10  2  0
 10  7  1  0
  7  2  1  0
M  END
$$$$
