No_7911-complexes_sdf/6BKW-FPZ/2024-09-17-14-21-01/
     RDKit          3D

 26 30  0  0  0  0  0  0  0  0999 V2000
   -7.9040    3.9820   27.1177 C   0  0  0  0  0  0  0  0  0  0  0  0
   -7.8663    4.8694   27.9238 C   0  0  0  0  0  0  0  0  0  0  0  0
   -7.4547    2.7080   27.4594 C   0  0  0  0  0  0  0  0  0  0  0  0
   -7.9337    1.5946   26.8372 C   0  0  0  0  0  0  0  0  0  0  0  0
   -8.9032    1.7881   25.8510 C   0  0  0  0  0  0  0  0  0  0  0  0
   -9.3787    2.9871   25.5530 C   0  0  0  0  0  0  0  0  0  0  0  0
   -8.9781    4.0300   26.2200 C   0  0  0  0  0  0  0  0  0  0  0  0
   -8.2132    6.2312   27.6173 N   0  0  0  0  0  0  0  0  0  0  0  0
   -9.1696    6.5863   26.7528 C   0  0  0  0  0  0  0  0  0  0  0  0
   -9.5393    5.4067   25.9211 C   0  0  0  0  0  0  0  0  0  0  0  0
   -7.3285    0.2615   27.1217 C   0  0  0  0  0  0  0  0  0  0  0  0
   -6.0542    0.1237   27.6096 C   0  0  0  0  0  0  0  0  0  0  0  0
   -5.5312   -1.0783   28.0224 C   0  0  0  0  0  0  0  0  0  0  0  0
   -6.3764   -2.1686   27.9003 C   0  0  0  0  0  0  0  0  0  0  0  0
   -8.0087   -0.9634   27.1605 C   0  0  0  0  0  0  0  0  0  0  0  0
   -7.6033   -2.0968   27.5262 C   0  0  0  0  0  0  0  0  0  0  0  0
   -4.1236   -1.1175   28.5134 C   0  0  0  0  0  0  0  0  0  0  0  0
   -3.2035   -0.2107   28.1278 C   0  0  0  0  0  0  0  0  0  0  0  0
   -1.8445   -0.2749   28.6461 C   0  0  0  0  0  0  0  0  0  0  0  0
   -1.4652   -1.2085   29.5658 C   0  0  0  0  0  0  0  0  0  0  0  0
   -2.4586   -2.0317   30.0159 C   0  0  0  0  0  0  0  0  0  0  0  0
   -3.7836   -2.0109   29.5658 C   0  0  0  0  0  0  0  0  0  0  0  0
   -2.0870   -3.0372   31.0832 C   0  0  0  0  0  0  0  0  0  0  0  0
   -1.1856   -3.4824   31.2110 C   0  0  0  0  0  0  0  0  0  0  0  0
    0.0660   -2.7603   30.5905 C   0  0  0  0  0  0  0  0  0  0  0  0
   -0.1378   -1.6774   29.7560 C   0  0  0  0  0  0  0  0  0  0  0  0
  4 11  1  0
 13 17  1  0
  1  2  2  0
  2  8  1  0
  8  9  2  0
  9 10  1  0
 10  7  2  0
  1  3  1  0
  3  4  2  0
  4  5  1  0
  5  6  2  0
  6  7  1  0
  7  1  1  0
 21 23  1  0
 23 24  2  0
 24 25  1  0
 25 26  2  0
 26 20  1  0
 11 12  2  0
 12 13  1  0
 13 14  2  0
 14 16  1  0
 16 15  2  0
 15 11  1  0
 17 18  2  0
 18 19  1  0
 19 20  2  0
 20 21  1  0
 21 22  2  0
 22 17  1  0
M  END
$$$$
