No_7899-complexes_sdf/6BKW-FPZ/2024-09-17-14-21-01/
     RDKit          3D

 13 14  0  0  0  0  0  0  0  0999 V2000
   -7.2496    3.8871   27.4508 C   0  0  0  0  0  0  0  0  0  0  0  0
   -7.9379    4.9063   27.8518 C   0  0  0  0  0  0  0  0  0  0  0  0
   -7.4895    6.2027   27.7481 C   0  0  0  0  0  0  0  0  0  0  0  0
   -7.8057    2.6324   27.3137 C   0  0  0  0  0  0  0  0  0  0  0  0
   -7.1675    1.4766   26.8108 C   0  0  0  0  0  0  0  0  0  0  0  0
   -9.2453    2.6252   27.4957 C   0  0  0  0  0  0  0  0  0  0  0  0
  -10.0227    3.6309   27.9717 C   0  0  0  0  0  0  0  0  0  0  0  0
   -9.3970    4.8596   28.0775 C   0  0  0  0  0  0  0  0  0  0  0  0
   -7.7589    0.4817   26.1151 C   0  0  0  0  0  0  0  0  0  0  0  0
   -7.4187   -0.7685   26.2711 C   0  0  0  0  0  0  0  0  0  0  0  0
   -6.1379   -1.0762   26.8559 C   0  0  0  0  0  0  0  0  0  0  0  0
   -5.4265   -0.0826   27.5103 C   0  0  0  0  0  0  0  0  0  0  0  0
   -6.0111    1.1429   27.6783 C   0  0  0  0  0  0  0  0  0  0  0  0
  2  3  1  0
  4  5  1  0
  1  2  2  0
  2  8  1  0
  8  7  2  0
  7  6  1  0
  6  4  2  0
  4  1  1  0
  5  9  2  0
  9 10  1  0
 10 11  2  0
 11 12  1  0
 12 13  2  0
 13  5  1  0
M  END
$$$$
