No_7135-complexes_sdf/6BKW-FPZ/2024-09-17-14-21-01/
     RDKit          3D

 26 29  0  0  0  0  0  0  0  0999 V2000
   -7.7129    4.2099   27.0854 C   0  0  0  0  0  0  0  0  0  0  0  0
   -8.2112    3.0637   26.9225 C   0  0  0  0  0  0  0  0  0  0  0  0
   -8.5108    5.3904   26.9436 C   0  0  0  0  0  0  0  0  0  0  0  0
   -9.7256    5.1955   26.3518 C   0  0  0  0  0  0  0  0  0  0  0  0
   -9.4995    2.8258   26.4878 C   0  0  0  0  0  0  0  0  0  0  0  0
  -10.2542    3.9691   26.2055 C   0  0  0  0  0  0  0  0  0  0  0  0
   -7.9135    6.7086   27.1885 C   0  0  0  0  0  0  0  0  0  0  0  0
   -7.1774    1.9276   27.3070 C   0  0  2  0  0  0  0  0  0  0  0  0
   -6.0403    2.2368   27.7297 N   0  0  0  0  0  0  0  0  0  0  0  0
   -7.5435    0.5856   27.0488 C   0  0  0  0  0  0  0  0  0  0  0  0
   -8.7328    0.1218   26.5359 C   0  0  0  0  0  0  0  0  0  0  0  0
   -6.6426   -0.3924   27.5447 C   0  0  0  0  0  0  0  0  0  0  0  0
   -6.9258   -1.7426   27.4997 C   0  0  0  0  0  0  0  0  0  0  0  0
   -9.0227   -1.2082   26.4196 C   0  0  0  0  0  0  0  0  0  0  0  0
   -8.1020   -2.1212   26.9245 C   0  0  0  0  0  0  0  0  0  0  0  0
   -7.9571    7.5783   26.5696 O   0  0  0  0  0  0  0  0  0  0  0  0
   -6.8174    6.5470   28.1138 O   0  0  0  0  0  0  0  0  0  0  0  0
   -5.3908    0.0993   28.1678 C   0  0  1  0  0  0  0  0  0  0  0  0
   -4.3854   -0.7621   28.6788 C   0  0  0  0  0  0  0  0  0  0  0  0
   -5.1513    1.5659   28.1825 C   0  0  0  0  0  0  0  0  0  0  0  0
   -3.7020   -0.7003   29.5396 C   0  0  0  0  0  0  0  0  0  0  0  0
   -2.6423   -1.5908   29.9994 C   0  0  0  0  0  0  0  0  0  0  0  0
   -2.4913   -2.6897   29.2614 C   0  0  0  0  0  0  0  0  0  0  0  0
   -3.9721   -2.0613   28.0303 C   0  0  0  0  0  0  0  0  0  0  0  0
   -3.1440   -2.9066   28.2750 C   0  0  0  0  0  0  0  0  0  0  0  0
   -4.0638    1.9543   28.6480 O   0  0  0  0  0  0  0  0  0  0  0  0
  3  7  1  0
  8  2  1  6
  8 10  1  0
  7 16  2  0
  7 17  1  0
 12 18  1  0
 18 19  1  6
  9 20  1  0
 18 20  1  0
 20 26  2  0
  9  8  1  0
 10 11  2  0
 11 14  1  0
 14 15  2  0
 15 13  1  0
 13 12  2  0
 12 10  1  0
  1  2  2  0
  2  5  1  0
  5  6  2  0
  6  4  1  0
  4  3  2  0
  3  1  1  0
 19 21  2  0
 21 22  1  0
 22 23  2  0
 23 25  1  0
 25 24  2  0
 24 19  1  0
M  END
$$$$
