No_7678-complexes_sdf/6BKW-FPZ/2024-09-17-14-21-01/
     RDKit          3D

 13 14  0  0  0  0  0  0  0  0999 V2000
   -7.7129    4.2099   27.0854 C   0  0  0  0  0  0  0  0  0  0  0  0
   -7.7814    5.1722   27.8972 C   0  0  0  0  0  0  0  0  0  0  0  0
   -8.8776    3.8408   26.3416 C   0  0  0  0  0  0  0  0  0  0  0  0
   -8.9136    2.6330   25.5655 C   0  0  0  0  0  0  0  0  0  0  0  0
   -8.8361    6.1389   27.9032 C   0  0  0  0  0  0  0  0  0  0  0  0
   -9.8295    4.8219   26.2726 C   0  0  0  0  0  0  0  0  0  0  0  0
   -9.8494    5.9177   27.0428 C   0  0  0  0  0  0  0  0  0  0  0  0
   -8.3098    1.4829   26.1983 C   0  0  0  0  0  0  0  0  0  0  0  0
   -7.8595    1.5610   27.5897 C   0  0  0  0  0  0  0  0  0  0  0  0
   -8.3062    0.2633   25.4289 C   0  0  0  0  0  0  0  0  0  0  0  0
   -7.4628   -0.6154   25.8268 C   0  0  0  0  0  0  0  0  0  0  0  0
   -7.0537    0.3574   27.9812 C   0  0  0  0  0  0  0  0  0  0  0  0
   -6.9009   -0.6961   27.1475 C   0  0  0  0  0  0  0  0  0  0  0  0
  3  4  1  0
  4  8  1  0
  8  9  2  0
  9 12  1  0
 12 13  2  0
 13 11  1  0
 11 10  2  0
 10  8  1  0
  1  2  2  0
  2  5  1  0
  5  7  2  0
  7  6  1  0
  6  3  2  0
  3  1  1  0
M  END
$$$$
