No_7400-complexes_sdf/6BKW-FPZ/2024-09-17-14-21-01/
     RDKit          3D

 29 33  0  0  0  0  0  0  0  0999 V2000
   -7.9040    3.9820   27.1177 C   0  0  0  0  0  0  0  0  0  0  0  0
   -7.8663    4.8694   27.9238 C   0  0  0  0  0  0  0  0  0  0  0  0
   -7.4547    2.7080   27.4594 C   0  0  0  0  0  0  0  0  0  0  0  0
   -7.9337    1.5946   26.8372 C   0  0  0  0  0  0  0  0  0  0  0  0
   -8.9032    1.7881   25.8510 C   0  0  0  0  0  0  0  0  0  0  0  0
   -9.3787    2.9871   25.5530 C   0  0  0  0  0  0  0  0  0  0  0  0
   -8.9781    4.0300   26.2200 C   0  0  0  0  0  0  0  0  0  0  0  0
   -7.9493    6.0343   27.8952 N   0  0  0  0  0  0  0  0  0  0  0  0
  -10.3801    3.3527   24.4313 C   0  0  0  0  0  0  0  0  0  0  0  0
  -10.7876    2.5525   23.5519 C   0  0  0  0  0  0  0  0  0  0  0  0
  -10.4397    1.2178   23.6514 C   0  0  0  0  0  0  0  0  0  0  0  0
   -9.4289    0.8017   24.7200 C   0  0  0  0  0  0  0  0  0  0  0  0
   -8.5671    6.6278   26.8513 C   0  0  0  0  0  0  0  0  0  0  0  0
   -8.8146    7.9572   26.6453 C   0  0  0  0  0  0  0  0  0  0  0  0
   -9.2041    5.6609   25.9173 C   0  0  0  0  0  0  0  0  0  0  0  0
   -7.4027    0.1974   26.9832 C   0  0  0  0  0  0  0  0  0  0  0  0
   -6.2595   -0.1808   26.8630 C   0  0  0  0  0  0  0  0  0  0  0  0
   -5.7777   -1.4788   27.2254 C   0  0  0  0  0  0  0  0  0  0  0  0
   -8.3841   -0.6812   27.6326 C   0  0  0  0  0  0  0  0  0  0  0  0
   -7.9847   -1.9455   28.0461 C   0  0  0  0  0  0  0  0  0  0  0  0
   -6.6953   -2.3467   27.8602 C   0  0  0  0  0  0  0  0  0  0  0  0
   -6.2802   -3.7256   28.2678 C   0  0  0  0  0  0  0  0  0  0  0  0
   -6.2604   -4.5429   27.3892 F   0  0  0  0  0  0  0  0  0  0  0  0
   -6.6606   -4.0759   29.4403 F   0  0  0  0  0  0  0  0  0  0  0  0
   -4.9172   -3.5782   28.6899 F   0  0  0  0  0  0  0  0  0  0  0  0
  -11.7624    2.8635   22.5417 C   0  0  0  0  0  0  0  0  0  0  0  0
  -11.9631    4.0728   22.3046 C   0  0  0  0  0  0  0  0  0  0  0  0
  -11.5368    4.9611   22.6456 C   0  0  0  0  0  0  0  0  0  0  0  0
  -10.5504    4.7919   23.9492 C   0  0  0  0  0  0  0  0  0  0  0  0
 13 14  1  0
  4 16  1  0
 21 22  1  0
 22 23  1  0
 22 24  1  0
 22 25  1  0
  1  3  1  0
  3  4  2  0
  4  5  1  0
  6  7  1  0
  1  2  2  0
  2  8  1  0
  8 13  2  0
 13 15  1  0
 15  7  2  0
  7  1  1  0
 16 17  2  0
 17 18  1  0
 18 21  2  0
 21 20  1  0
 20 19  2  0
 19 16  1  0
  5  6  2  0
  6  9  1  0
 10 11  1  0
 11 12  2  0
 12  5  1  0
  9 10  2  0
 10 26  1  0
 26 27  2  0
 27 28  1  0
 28 29  2  0
 29  9  1  0
M  END
$$$$
