No_7549-complexes_sdf/6BKW-FPZ/2024-09-17-14-21-01/
     RDKit          3D

 24 26  0  0  0  0  0  0  0  0999 V2000
   -7.2496    3.8871   27.4508 C   0  0  0  0  0  0  0  0  0  0  0  0
   -7.6161    2.7143   27.1523 C   0  0  0  0  0  0  0  0  0  0  0  0
   -7.1618    1.8631   27.5232 C   0  0  0  0  0  0  0  0  0  0  0  0
   -8.0384    5.0866   27.3232 C   0  0  0  0  0  0  0  0  0  0  0  0
   -9.1224    5.1097   26.4856 C   0  0  0  0  0  0  0  0  0  0  0  0
   -8.9186    2.6660   26.4794 C   0  0  0  0  0  0  0  0  0  0  0  0
   -9.6149    3.8296   26.1383 C   0  0  0  0  0  0  0  0  0  0  0  0
   -7.4298    0.3969   27.3291 C   0  0  0  0  0  0  0  0  0  0  0  0
   -6.7122   -0.6438   27.7301 C   0  0  0  0  0  0  0  0  0  0  0  0
   -5.4265   -0.3319   28.2848 C   0  0  0  0  0  0  0  0  0  0  0  0
   -4.9365    0.9462   28.3815 C   0  0  0  0  0  0  0  0  0  0  0  0
   -5.6555    1.9534   28.0247 C   0  0  0  0  0  0  0  0  0  0  0  0
   -7.4695    6.4419   27.7644 C   0  0  0  0  0  0  0  0  0  0  0  0
   -4.6100   -1.5140   28.7960 C   0  0  0  0  0  0  0  0  0  0  0  0
   -3.4928   -1.6512   28.3043 C   0  0  0  0  0  0  0  0  0  0  0  0
   -5.1812   -2.3309   29.7955 C   0  0  0  0  0  0  0  0  0  0  0  0
   -5.8888   -2.0136   30.6852 C   0  0  0  0  0  0  0  0  0  0  0  0
   -6.4322   -2.8849   31.7622 C   0  0  0  0  0  0  0  0  0  0  0  0
   -7.1077   -2.3586   32.8910 C   0  0  0  0  0  0  0  0  0  0  0  0
   -7.8675   -3.1758   33.7127 C   0  0  0  0  0  0  0  0  0  0  0  0
   -8.0024   -4.5049   33.4038 C   0  0  0  0  0  0  0  0  0  0  0  0
   -7.3667   -5.0202   32.3103 C   0  0  0  0  0  0  0  0  0  0  0  0
   -6.6476   -4.2420   31.4273 C   0  0  0  0  0  0  0  0  0  0  0  0
   -2.9410   -2.8203   28.0604 C   0  0  0  0  0  0  0  0  0  0  0  0
  2  3  1  0
  4 13  1  0
 10 14  1  0
 14 15  1  0
 14 16  1  0
 16 17  2  3
 17 18  1  0
 15 24  2  0
  3  8  2  0
  8  9  1  0
  9 10  2  0
 10 11  1  0
 11 12  2  0
 12  3  1  0
 18 19  2  0
 19 20  1  0
 20 21  2  0
 21 22  1  0
 22 23  2  0
 23 18  1  0
  1  2  2  0
  2  6  1  0
  6  7  2  0
  7  5  1  0
  5  4  2  0
  4  1  1  0
M  END
$$$$
