No_7980-complexes_sdf/6BKW-FPZ/2024-09-17-14-21-01/
     RDKit          3D

 31 36  0  0  0  0  0  0  0  0999 V2000
   -7.2496    3.8871   27.4508 C   0  0  0  0  0  0  0  0  0  0  0  0
   -7.6161    2.7143   27.1523 C   0  0  0  0  0  0  0  0  0  0  0  0
   -8.8302    2.4659   26.5056 C   0  0  0  0  0  0  0  0  0  0  0  0
   -8.1584    5.0090   27.3234 C   0  0  0  0  0  0  0  0  0  0  0  0
   -9.3788    4.7965   26.7695 C   0  0  0  0  0  0  0  0  0  0  0  0
   -9.7028    3.5649   26.3276 C   0  0  0  0  0  0  0  0  0  0  0  0
   -6.7190    1.5585   27.3667 C   0  0  0  0  0  0  0  0  0  0  0  0
   -5.4774    1.7392   28.0696 C   0  0  0  0  0  0  0  0  0  0  0  0
   -4.6023    0.6521   28.2584 C   0  0  0  0  0  0  0  0  0  0  0  0
   -5.0190   -0.6205   27.9573 C   0  0  0  0  0  0  0  0  0  0  0  0
   -6.9220    0.1701   27.2370 C   0  0  0  0  0  0  0  0  0  0  0  0
   -8.2986   -0.0147   26.6420 C   0  0  0  0  0  0  0  0  0  0  0  0
   -6.2007   -0.8256   27.4914 C   0  0  0  0  0  0  0  0  0  0  0  0
   -8.8348   -1.2759   26.3474 C   0  0  0  0  0  0  0  0  0  0  0  0
   -9.1337    1.1951   26.3471 C   0  0  0  0  0  0  0  0  0  0  0  0
   -7.6873    6.3629   27.8094 C   0  0  0  0  0  0  0  0  0  0  0  0
   -9.9324   -1.3510   25.9563 C   0  0  0  0  0  0  0  0  0  0  0  0
  -10.3758    0.7086   25.8023 C   0  0  0  0  0  0  0  0  0  0  0  0
  -11.2148    1.8622   25.4500 N   0  0  0  0  0  0  0  0  0  0  0  0
  -10.8121   -0.4647   25.6001 C   0  0  0  0  0  0  0  0  0  0  0  0
  -10.9104    3.2133   25.7253 C   0  0  0  0  0  0  0  0  0  0  0  0
   -3.0508    1.1008   28.9989 Cl  0  0  0  0  0  0  0  0  0  0  0  0
  -11.7813    4.0470   25.4196 O   0  0  0  0  0  0  0  0  0  0  0  0
  -12.3917    1.7339   24.6441 C   0  0  0  0  0  0  0  0  0  0  0  0
  -13.5628    1.7837   25.3564 C   0  0  0  0  0  0  0  0  0  0  0  0
  -14.2847    2.4774   25.1436 C   0  0  0  0  0  0  0  0  0  0  0  0
  -15.4991    2.7767   25.9760 C   0  0  0  0  0  0  0  0  0  0  0  0
  -15.7274    1.9402   27.0558 C   0  0  0  0  0  0  0  0  0  0  0  0
  -14.7726    0.9585   27.3189 C   0  0  0  0  0  0  0  0  0  0  0  0
  -13.6876    0.8824   26.5969 C   0  0  0  0  0  0  0  0  0  0  0  0
  -12.2866    1.3928   23.4894 O   0  0  0  0  0  0  0  0  0  0  0  0
  2  7  1  0
 11 12  1  0
  3 15  1  0
  4 16  1  0
 18 19  1  0
  6 21  1  0
 19 21  1  0
  9 22  1  0
 21 23  2  0
 19 24  1  0
 24 25  1  0
 24 31  2  0
 25 26  2  0
 26 27  1  0
 27 28  2  0
 28 29  1  0
 29 30  2  0
 30 25  1  0
  1  2  2  0
  2  3  1  0
  3  6  2  0
  6  5  1  0
  5  4  2  0
  4  1  1  0
  7  8  2  0
  8  9  1  0
  9 10  2  0
 10 13  1  0
 13 11  2  0
 11  7  1  0
 12 14  2  0
 14 17  1  0
 17 20  2  0
 20 18  1  0
 18 15  2  0
 15 12  1  0
M  END
$$$$
