No_7396-complexes_sdf/6BKW-FPZ/2024-09-17-14-21-01/
     RDKit          3D

 16 17  0  0  0  0  0  0  0  0999 V2000
   -7.7129    4.2099   27.0854 C   0  0  0  0  0  0  0  0  0  0  0  0
   -8.9133    4.4736   27.0998 C   0  0  0  0  0  0  0  0  0  0  0  0
   -9.7134    3.9633   26.0300 C   0  0  0  0  0  0  0  0  0  0  0  0
   -6.8420    4.9760   28.0851 C   0  0  0  0  0  0  0  0  0  0  0  0
  -10.9164    3.4776   26.1172 C   0  0  0  0  0  0  0  0  0  0  0  0
  -11.6897    3.8137   27.2914 C   0  0  0  0  0  0  0  0  0  0  0  0
  -11.2341    4.2254   28.1774 C   0  0  0  0  0  0  0  0  0  0  0  0
   -9.7634    4.5641   28.3135 C   0  0  0  0  0  0  0  0  0  0  0  0
  -13.2033    3.4542   27.2161 C   0  0  0  0  0  0  0  0  0  0  0  0
  -13.6248    2.7014   27.8945 C   0  0  0  0  0  0  0  0  0  0  0  0
  -15.0023    2.4514   28.0348 C   0  0  0  0  0  0  0  0  0  0  0  0
  -15.8475    3.1260   27.1545 C   0  0  0  0  0  0  0  0  0  0  0  0
  -15.3508    4.0483   26.2839 C   0  0  0  0  0  0  0  0  0  0  0  0
  -13.9691    4.3583   26.3188 C   0  0  0  0  0  0  0  0  0  0  0  0
   -7.3888    6.0839   28.5300 N   0  0  0  0  0  0  0  0  0  0  0  0
   -5.7886    4.4434   28.4856 O   0  0  0  0  0  0  0  0  0  0  0  0
  1  2  1  0
  1  4  1  0
  6  9  1  0
  4 15  1  0
  4 16  2  0
  2  3  2  0
  3  5  1  0
  5  6  2  0
  6  7  1  0
  7  8  2  0
  8  2  1  0
  9 10  2  0
 10 11  1  0
 11 12  2  0
 12 13  1  0
 13 14  2  0
 14  9  1  0
M  END
$$$$
