No_7029-complexes_sdf/6BKW-FPZ/2024-09-17-14-21-01/
     RDKit          3D

 20 22  0  0  0  0  0  0  0  0999 V2000
   -7.2496    3.8871   27.4508 C   0  0  0  0  0  0  0  0  0  0  0  0
   -7.9379    4.9063   27.8518 C   0  0  0  0  0  0  0  0  0  0  0  0
   -7.5112    6.1898   27.6280 C   0  0  0  0  0  0  0  0  0  0  0  0
   -7.8078    2.6331   27.2522 C   0  0  0  0  0  0  0  0  0  0  0  0
   -9.1846    2.4724   27.5426 C   0  0  0  0  0  0  0  0  0  0  0  0
   -9.9168    3.5155   28.0405 C   0  0  0  0  0  0  0  0  0  0  0  0
   -9.3366    4.7963   28.1727 C   0  0  0  0  0  0  0  0  0  0  0  0
  -11.3249    3.2653   28.4083 C   0  0  0  0  0  0  0  0  0  0  0  0
  -12.1802    4.2448   28.6670 C   0  0  0  0  0  0  0  0  0  0  0  0
  -13.5622    4.0651   28.9769 C   0  0  0  0  0  0  0  0  0  0  0  0
  -13.9371    2.7393   29.2761 C   0  0  0  0  0  0  0  0  0  0  0  0
  -13.0546    1.6977   29.0904 C   0  0  0  0  0  0  0  0  0  0  0  0
  -11.7608    1.9295   28.7001 C   0  0  0  0  0  0  0  0  0  0  0  0
   -7.0548    1.4359   26.8606 C   0  0  0  0  0  0  0  0  0  0  0  0
   -5.9482    0.9940   27.6827 C   0  0  0  0  0  0  0  0  0  0  0  0
   -5.2326   -0.1509   27.4347 C   0  0  0  0  0  0  0  0  0  0  0  0
   -4.0525   -0.4337   28.2021 C   0  0  0  0  0  0  0  0  0  0  0  0
   -3.7270    0.4033   29.3076 C   0  0  0  0  0  0  0  0  0  0  0  0
   -4.4499    1.6006   29.4555 C   0  0  0  0  0  0  0  0  0  0  0  0
   -5.4170    1.8685   28.6845 C   0  0  0  0  0  0  0  0  0  0  0  0
  6  8  1  0
  4 14  1  0
  3  2  1  0
 14 15  1  0
 15 16  2  0
 16 17  1  0
 17 18  2  0
 18 19  1  0
 19 20  2  0
 20 15  1  0
  1  2  2  0
  2  7  1  0
  7  6  2  0
  6  5  1  0
  5  4  2  0
  4  1  1  0
  8  9  2  0
  9 10  1  0
 10 11  2  0
 11 12  1  0
 12 13  2  0
 13  8  1  0
M  END
$$$$
