No_7243-complexes_sdf/6BKW-FPZ/2024-09-17-14-21-01/
     RDKit          3D

 27 30  0  0  0  0  0  0  0  0999 V2000
   -7.9040    3.9820   27.1177 C   0  0  0  0  0  0  0  0  0  0  0  0
   -7.8663    4.8694   27.9238 C   0  0  0  0  0  0  0  0  0  0  0  0
   -7.4547    2.7080   27.4594 C   0  0  0  0  0  0  0  0  0  0  0  0
   -7.9337    1.5946   26.8372 C   0  0  0  0  0  0  0  0  0  0  0  0
   -8.9032    1.7881   25.8510 C   0  0  0  0  0  0  0  0  0  0  0  0
   -9.3787    2.9871   25.5530 C   0  0  0  0  0  0  0  0  0  0  0  0
   -8.9781    4.0300   26.2200 C   0  0  0  0  0  0  0  0  0  0  0  0
   -8.2454    6.2265   27.6332 N   0  0  0  0  0  0  0  0  0  0  0  0
   -9.1370    6.4942   26.6420 C   0  0  0  0  0  0  0  0  0  0  0  0
   -9.5342    5.3848   25.8994 C   0  0  0  0  0  0  0  0  0  0  0  0
   -7.3267    0.2684   27.1292 C   0  0  0  0  0  0  0  0  0  0  0  0
   -8.0667   -0.8536   27.1782 C   0  0  0  0  0  0  0  0  0  0  0  0
   -7.8589   -1.7638   27.6438 C   0  0  0  0  0  0  0  0  0  0  0  0
   -6.5073   -2.0243   28.2669 C   0  0  0  0  0  0  0  0  0  0  0  0
   -5.6680   -0.9488   28.3193 C   0  0  0  0  0  0  0  0  0  0  0  0
   -6.0855    0.2568   27.8591 C   0  0  0  0  0  0  0  0  0  0  0  0
   -4.3122   -1.0375   28.9498 C   0  0  1  0  0  0  0  0  0  0  0  0
   -4.2137   -0.5593   30.3004 C   0  0  0  0  0  0  0  0  0  0  0  0
   -4.0660   -1.3656   31.3980 C   0  0  0  0  0  0  0  0  0  0  0  0
   -4.6402   -1.4524   32.2164 C   0  0  0  0  0  0  0  0  0  0  0  0
   -4.4720   -2.3019   33.4455 C   0  0  0  0  0  0  0  0  0  0  0  0
   -3.3334   -3.0439   33.4399 C   0  0  0  0  0  0  0  0  0  0  0  0
   -2.7500   -2.1550   31.3868 C   0  0  0  0  0  0  0  0  0  0  0  0
   -2.4649   -2.9513   32.4093 C   0  0  0  0  0  0  0  0  0  0  0  0
   -3.2867   -1.6568   28.3084 C   0  0  0  0  0  0  0  0  0  0  0  0
   -2.2828   -1.3119   27.9537 C   0  0  0  0  0  0  0  0  0  0  0  0
   -1.5992   -1.0817   27.1491 C   0  0  0  0  0  0  0  0  0  0  0  0
  4 11  1  0
 15 17  1  0
 17 18  1  1
 18 19  1  0
 17 25  1  0
 25 26  2  3
 26 27  1  0
 11 12  2  0
 12 13  1  0
 13 14  2  0
 14 15  1  0
 15 16  2  0
 16 11  1  0
  1  2  2  0
  2  8  1  0
  8  9  2  0
  9 10  1  0
 10  7  2  0
 19 20  2  0
 20 21  1  0
 21 22  2  0
 22 24  1  0
 24 23  2  0
 23 19  1  0
  1  3  1  0
  3  4  2  0
  4  5  1  0
  5  6  2  0
  6  7  1  0
  7  1  1  0
M  END
$$$$
