No_7116-complexes_sdf/6BKW-FPZ/2024-09-17-14-21-01/
     RDKit          3D

 20 22  0  0  0  0  0  0  0  0999 V2000
   -7.7129    4.2099   27.0854 C   0  0  0  0  0  0  0  0  0  0  0  0
   -8.2112    3.0637   26.9225 C   0  0  0  0  0  0  0  0  0  0  0  0
   -8.5108    5.3904   26.9436 C   0  0  0  0  0  0  0  0  0  0  0  0
   -9.7256    5.1955   26.3518 C   0  0  0  0  0  0  0  0  0  0  0  0
   -9.4995    2.8258   26.4878 C   0  0  0  0  0  0  0  0  0  0  0  0
  -10.2542    3.9691   26.2055 C   0  0  0  0  0  0  0  0  0  0  0  0
   -7.9456    6.5695   27.1656 F   0  0  0  0  0  0  0  0  0  0  0  0
   -7.3632    1.8215   27.2517 C   0  0  0  0  0  0  0  0  0  0  0  0
   -6.0601    2.0021   27.7295 C   0  0  0  0  0  0  0  0  0  0  0  0
   -5.2804    0.8344   28.0543 C   0  0  0  0  0  0  0  0  0  0  0  0
   -5.8509   -0.3975   27.9030 C   0  0  0  0  0  0  0  0  0  0  0  0
   -7.9435    0.5159   27.1513 C   0  0  0  0  0  0  0  0  0  0  0  0
   -7.1802   -0.5308   27.5244 C   0  0  0  0  0  0  0  0  0  0  0  0
   -3.8963    1.0427   28.5154 C   0  0  0  0  0  0  0  0  0  0  0  0
   -3.1148    1.4803   27.9548 O   0  0  0  0  0  0  0  0  0  0  0  0
   -3.7070    0.8584   29.8834 O   0  0  0  0  0  0  0  0  0  0  0  0
   -7.7989   -1.8441   27.4252 C   0  0  0  0  0  0  0  0  0  0  0  0
   -8.9987   -1.9337   27.3274 C   0  0  0  0  0  0  0  0  0  0  0  0
   -9.8554   -0.7445   27.0205 C   0  0  0  0  0  0  0  0  0  0  0  0
   -9.2852    0.4097   26.9900 C   0  0  0  0  0  0  0  0  0  0  0  0
  3  7  1  0
  2  8  1  0
 10 14  1  0
 14 15  2  0
 14 16  1  0
 13 17  2  0
 17 18  1  0
 18 19  2  0
 19 20  1  0
 20 12  2  0
  1  2  2  0
  2  5  1  0
  5  6  2  0
  6  4  1  0
  4  3  2  0
  3  1  1  0
  8  9  2  0
  9 10  1  0
 10 11  2  0
 11 13  1  0
 13 12  1  0
 12  8  1  0
M  END
$$$$
