No_7030-complexes_sdf/6BKW-FPZ/2024-09-17-14-21-01/
     RDKit          3D

 32 35  0  0  0  0  0  0  0  0999 V2000
   -7.7129    4.2099   27.0854 C   0  0  0  0  0  0  0  0  0  0  0  0
   -7.7814    5.1722   27.8972 C   0  0  0  0  0  0  0  0  0  0  0  0
   -8.8998    3.8713   26.3707 C   0  0  0  0  0  0  0  0  0  0  0  0
   -9.9938    4.6774   26.5446 C   0  0  0  0  0  0  0  0  0  0  0  0
   -8.7789    6.1536   27.9256 C   0  0  0  0  0  0  0  0  0  0  0  0
   -9.9428    5.8398   27.2296 C   0  0  0  0  0  0  0  0  0  0  0  0
   -8.9208    2.6404   25.5721 C   0  0  0  0  0  0  0  0  0  0  0  0
   -9.8143    2.5212   24.5327 C   0  0  0  0  0  0  0  0  0  0  0  0
   -9.8784    1.3928   23.8415 C   0  0  0  0  0  0  0  0  0  0  0  0
   -8.9325    0.3260   24.0854 C   0  0  0  0  0  0  0  0  0  0  0  0
   -8.0777    0.4386   25.1449 C   0  0  0  0  0  0  0  0  0  0  0  0
   -8.0365    1.5929   25.9275 C   0  0  0  0  0  0  0  0  0  0  0  0
   -6.6225    5.5861   28.5818 O   0  0  0  0  0  0  0  0  0  0  0  0
   -7.1608   -0.6672   25.4623 C   0  0  0  0  0  0  0  0  0  0  0  0
   -6.4106   -1.0769   24.6339 O   0  0  0  0  0  0  0  0  0  0  0  0
   -7.0714   -1.0872   26.6905 O   0  0  0  0  0  0  0  0  0  0  0  0
   -6.3411   -1.6279   27.3167 C   0  0  0  0  0  0  0  0  0  0  0  0
   -5.4311   -0.9232   28.0266 C   0  0  0  0  0  0  0  0  0  0  0  0
   -5.0302    0.3076   27.7666 C   0  0  0  0  0  0  0  0  0  0  0  0
   -4.0971    1.1516   28.5440 C   0  0  0  0  0  0  0  0  0  0  0  0
   -3.5764    0.5554   29.7342 C   0  0  0  0  0  0  0  0  0  0  0  0
   -3.9761   -0.7010   30.1278 C   0  0  0  0  0  0  0  0  0  0  0  0
   -4.8852   -1.4009   29.3205 C   0  0  0  0  0  0  0  0  0  0  0  0
   -3.4391   -1.2613   31.3655 C   0  0  0  0  0  0  0  0  0  0  0  0
   -2.9490   -0.4868   32.1893 O   0  0  0  0  0  0  0  0  0  0  0  0
   -3.5056   -2.5497   31.6326 N   0  0  0  0  0  0  0  0  0  0  0  0
   -2.9863   -3.0851   32.8999 C   0  0  0  0  0  0  0  0  0  0  0  0
   -3.0120   -4.1258   33.0247 C   0  0  0  0  0  0  0  0  0  0  0  0
   -2.5392   -4.7083   34.3260 C   0  0  0  0  0  0  0  0  0  0  0  0
   -2.0467   -3.8838   35.3492 C   0  0  0  0  0  0  0  0  0  0  0  0
   -2.0549   -2.4745   35.0582 C   0  0  0  0  0  0  0  0  0  0  0  0
   -2.4849   -2.0221   33.9013 C   0  0  0  0  0  0  0  0  0  0  0  0
  3  7  1  0
  2 13  1  0
 11 14  1  0
 14 15  2  0
 14 16  1  0
 16 17  1  0
 17 18  1  0
 22 24  1  0
 24 25  2  0
 24 26  1  0
 26 27  1  0
 18 19  2  0
 19 20  1  0
 20 21  2  0
 21 22  1  0
 22 23  2  0
 23 18  1  0
 27 28  2  0
 28 29  1  0
 29 30  2  0
 30 31  1  0
 31 32  2  0
 32 27  1  0
  1  2  2  0
  2  5  1  0
  5  6  2  0
  6  4  1  0
  4  3  2  0
  3  1  1  0
  7  8  2  0
  8  9  1  0
  9 10  2  0
 10 11  1  0
 11 12  2  0
 12  7  1  0
M  END
$$$$
