No_7090-complexes_sdf/6BKW-FPZ/2024-09-17-14-21-01/
     RDKit          3D

 27 29  0  0  0  0  0  0  0  0999 V2000
   -7.2496    3.8871   27.4508 C   0  0  0  0  0  0  0  0  0  0  0  0
   -8.5096    4.0291   27.2770 C   0  0  0  0  0  0  0  0  0  0  0  0
   -9.3451    2.8786   26.9046 C   0  0  0  0  0  0  0  0  0  0  0  0
   -6.6893    2.5856   27.4759 N   0  0  0  0  0  0  0  0  0  0  0  0
   -7.4012    1.5331   27.2231 C   0  0  0  0  0  0  0  0  0  0  0  0
   -8.7264    1.6558   26.9999 C   0  0  0  0  0  0  0  0  0  0  0  0
   -9.0897    5.3805   27.2141 C   0  0  0  0  0  0  0  0  0  0  0  0
   -6.8071    0.3244   27.3632 N   0  0  0  0  0  0  0  0  0  0  0  0
   -8.1701    6.3959   27.4123 C   0  0  0  0  0  0  0  0  0  0  0  0
   -8.6794    7.7329   27.2482 C   0  0  0  0  0  0  0  0  0  0  0  0
   -5.4497    0.2499   27.7074 C   0  0  0  0  0  0  0  0  0  0  0  0
   -4.8656   -1.0377   27.8587 C   0  0  2  0  0  0  0  0  0  0  0  0
   -7.3209   -0.8143   26.8786 C   0  0  0  0  0  0  0  0  0  0  0  0
   -6.7848   -2.0463   27.1201 C   0  0  0  0  0  0  0  0  0  0  0  0
   -5.4931   -2.1497   27.5847 C   0  0  0  0  0  0  0  0  0  0  0  0
   -3.7946   -1.1185   28.8854 C   0  0  0  0  0  0  0  0  0  0  0  0
   -2.7090   -0.1762   28.6291 C   0  0  0  0  0  0  0  0  0  0  0  0
   -3.6174   -1.9918   29.9108 C   0  0  0  0  0  0  0  0  0  0  0  0
   -2.6097   -2.0021   30.7244 C   0  0  0  0  0  0  0  0  0  0  0  0
   -1.4855   -0.2655   29.4904 C   0  0  0  0  0  0  0  0  0  0  0  0
   -1.4703   -1.1267   30.5064 C   0  0  0  0  0  0  0  0  0  0  0  0
   -2.6911    0.7567   27.6850 O   0  0  0  0  0  0  0  0  0  0  0  0
   -1.8101    0.6926   26.6186 C   0  0  0  0  0  0  0  0  0  0  0  0
   -2.5444   -2.9295   31.8923 C   0  0  0  0  0  0  0  0  0  0  0  0
   -2.0444   -2.5281   32.7042 F   0  0  0  0  0  0  0  0  0  0  0  0
   -3.8350   -3.2445   32.1815 F   0  0  0  0  0  0  0  0  0  0  0  0
   -1.9825   -4.0680   31.3882 F   0  0  0  0  0  0  0  0  0  0  0  0
  2  7  1  0
  5  8  1  0
  7  9  2  3
  9 10  1  0
  8 11  1  0
  8 13  1  0
 12 15  1  0
 14 15  1  0
 12 16  1  1
 17 22  1  0
 22 23  1  0
 19 24  1  0
 24 25  1  0
 24 26  1  0
 24 27  1  0
 11 12  1  0
 14 13  1  0
 16 17  2  0
 17 20  1  0
 20 21  2  0
 21 19  1  0
 19 18  2  0
 18 16  1  0
  1  2  2  0
  2  3  1  0
  3  6  2  0
  6  5  1  0
  5  4  2  0
  4  1  1  0
M  END
$$$$
