No_7013-complexes_sdf/6BKW-FPZ/2024-09-17-14-21-01/
     RDKit          3D

 19 21  0  0  0  0  0  0  0  0999 V2000
   -7.9040    3.9820   27.1177 C   0  0  0  0  0  0  0  0  0  0  0  0
   -7.8663    4.8694   27.9238 C   0  0  0  0  0  0  0  0  0  0  0  0
   -7.4698    2.6989   27.4277 C   0  0  0  0  0  0  0  0  0  0  0  0
   -7.9683    1.5964   26.8266 C   0  0  1  0  0  0  0  0  0  0  0  0
   -8.9447    1.7923   25.8533 C   0  0  0  0  0  0  0  0  0  0  0  0
   -9.4405    2.9988   25.5757 C   0  0  1  0  0  0  0  0  0  0  0  0
   -8.9424    4.1117   26.2388 C   0  0  0  0  0  0  0  0  0  0  0  0
   -8.2732    6.2141   27.6484 N   0  0  0  0  0  0  0  0  0  0  0  0
   -9.1790    6.5361   26.7045 C   0  0  0  0  0  0  0  0  0  0  0  0
   -9.5395    5.4021   25.9218 C   0  0  0  0  0  0  0  0  0  0  0  0
   -7.3870    0.2618   27.0958 C   0  0  0  0  0  0  0  0  0  0  0  0
   -6.0772    0.1276   27.5398 C   0  0  0  0  0  0  0  0  0  0  0  0
   -5.5419   -1.0449   27.9518 C   0  0  0  0  0  0  0  0  0  0  0  0
   -6.3811   -2.1388   27.8963 C   0  0  0  0  0  0  0  0  0  0  0  0
   -8.0971   -0.9324   27.1847 C   0  0  0  0  0  0  0  0  0  0  0  0
   -7.6502   -2.0848   27.5569 C   0  0  0  0  0  0  0  0  0  0  0  0
  -10.3987    3.1065   24.4632 C   0  0  1  0  0  0  0  0  0  0  0  0
  -11.6032    4.1546   24.5498 Cl  0  0  0  0  0  0  0  0  0  0  0  0
   -9.7151    3.1197   23.1582 C   0  0  0  0  0  0  0  0  0  0  0  0
  1  3  1  0
  3  4  1  0
  4  5  1  0
  6  5  1  6
  6  7  1  0
  4 11  1  6
  6 17  1  0
 17 18  1  0
 17 19  1  6
  1  2  2  0
  2  8  1  0
  8  9  2  0
  9 10  1  0
 10  7  2  0
  7  1  1  0
 11 12  2  0
 12 13  1  0
 13 14  2  0
 14 16  1  0
 16 15  2  0
 15 11  1  0
M  END
$$$$
