No_7699-complexes_sdf/6BKW-FPZ/2024-09-17-14-21-01/
     RDKit          3D

 21 22  0  0  0  0  0  0  0  0999 V2000
   -7.9040    3.9820   27.1177 C   0  0  0  0  0  0  0  0  0  0  0  0
   -8.2057    2.8231   26.8733 C   0  0  0  0  0  0  0  0  0  0  0  0
   -8.7695    5.0740   26.7916 C   0  0  0  0  0  0  0  0  0  0  0  0
   -8.4337    6.4678   27.0913 C   0  0  0  0  0  0  0  0  0  0  0  0
   -9.3742    2.4311   26.2346 C   0  0  0  0  0  0  0  0  0  0  0  0
  -10.2395    3.4267   25.8887 C   0  0  0  0  0  0  0  0  0  0  0  0
   -9.9567    4.7548   26.1374 C   0  0  0  0  0  0  0  0  0  0  0  0
   -8.5581    6.7982   28.2290 F   0  0  0  0  0  0  0  0  0  0  0  0
   -9.2129    7.3305   26.2866 F   0  0  0  0  0  0  0  0  0  0  0  0
   -7.1026    6.7155   26.8328 F   0  0  0  0  0  0  0  0  0  0  0  0
   -7.0836    1.5271   27.4000 Cl  0  0  0  0  0  0  0  0  0  0  0  0
  -11.4546    3.1605   25.1187 C   0  0  2  0  0  0  0  0  0  0  0  0
  -12.9893    2.5168   25.7962 Br  0  0  0  0  0  0  0  0  0  0  0  0
  -11.1964    2.4843   23.6984 C   0  0  0  0  0  0  0  0  0  0  0  0
  -10.8794    1.3331   23.6300 C   0  0  0  0  0  0  0  0  0  0  0  0
  -10.7900    0.3336   24.6331 C   0  0  0  0  0  0  0  0  0  0  0  0
  -10.3780   -1.0084   24.3410 C   0  0  0  0  0  0  0  0  0  0  0  0
  -10.2257   -1.9562   25.3145 C   0  0  0  0  0  0  0  0  0  0  0  0
  -10.4909   -1.5921   26.6608 C   0  0  0  0  0  0  0  0  0  0  0  0
  -10.9400   -0.2999   26.9871 C   0  0  0  0  0  0  0  0  0  0  0  0
  -11.0281    0.6061   26.0825 C   0  0  0  0  0  0  0  0  0  0  0  0
  3  4  1  0
  4  8  1  0
  4  9  1  0
  4 10  1  0
  2 11  1  0
  6 12  1  0
 12 13  1  1
 12 14  1  0
 14 15  2  3
 15 16  1  0
  1  2  2  0
  2  5  1  0
  5  6  2  0
  6  7  1  0
  7  3  2  0
  3  1  1  0
 16 17  2  0
 17 18  1  0
 18 19  2  0
 19 20  1  0
 20 21  2  0
 21 16  1  0
M  END
$$$$
