No_7608-complexes_sdf/6BKW-FPZ/2024-09-17-14-21-01/
     RDKit          3D

 40 44  0  0  0  0  0  0  0  0999 V2000
   -7.9040    3.9820   27.1177 C   0  0  0  0  0  0  0  0  0  0  0  0
   -9.0711    4.3164   27.0630 C   0  0  0  0  0  0  0  0  0  0  0  0
   -9.8698    3.9665   25.9494 C   0  0  0  0  0  0  0  0  0  0  0  0
   -7.4046    2.7946   26.4568 C   0  0  0  0  0  0  0  0  0  0  0  0
   -8.3659    2.1310   25.6816 C   0  0  0  0  0  0  0  0  0  0  0  0
   -9.5390    2.7825   25.4030 C   0  0  0  0  0  0  0  0  0  0  0  0
   -6.7904    4.6933   28.2959 Cl  0  0  0  0  0  0  0  0  0  0  0  0
  -10.4510    2.1780   24.3668 C   0  0  0  0  0  0  0  0  0  0  0  0
  -10.0777    1.2427   23.6593 C   0  0  0  0  0  0  0  0  0  0  0  0
  -10.8980    0.6645   22.6329 C   0  0  0  0  0  0  0  0  0  0  0  0
  -12.1476    1.2294   22.4014 C   0  0  0  0  0  0  0  0  0  0  0  0
  -11.7368    2.7620   24.0652 C   0  0  0  0  0  0  0  0  0  0  0  0
  -12.3938    2.4863   23.2874 C   0  0  0  0  0  0  0  0  0  0  0  0
   -9.4815    5.7070   27.6916 C   0  0  0  0  0  0  0  0  0  0  0  0
  -13.7041    2.9103   22.9354 O   0  0  0  0  0  0  0  0  0  0  0  0
  -14.4088    3.3597   23.9128 C   0  0  0  0  0  0  0  0  0  0  0  0
  -14.6328    4.6845   23.8974 C   0  0  0  0  0  0  0  0  0  0  0  0
  -15.4851    5.2804   24.5565 C   0  0  0  0  0  0  0  0  0  0  0  0
  -16.1511    4.6933   25.6533 C   0  0  0  0  0  0  0  0  0  0  0  0
  -15.9519    3.3068   25.7006 C   0  0  0  0  0  0  0  0  0  0  0  0
  -15.0971    2.6534   24.8500 C   0  0  0  0  0  0  0  0  0  0  0  0
  -14.8872    1.3716   24.9604 O   0  0  0  0  0  0  0  0  0  0  0  0
  -15.4694    0.3978   24.3499 C   0  0  0  0  0  0  0  0  0  0  0  0
  -16.0203   -0.5471   25.2486 C   0  0  0  0  0  0  0  0  0  0  0  0
  -15.6724   -0.7766   26.3401 O   0  0  0  0  0  0  0  0  0  0  0  0
  -17.2476   -0.9693   24.8234 N   0  0  0  0  0  0  0  0  0  0  0  0
  -18.0643   -1.9004   25.6232 C   0  0  0  0  0  0  0  0  0  0  0  0
  -17.8457   -0.6876   23.5302 C   0  0  0  0  0  0  0  0  0  0  0  0
  -18.9909   -0.9596   23.3743 C   0  0  1  0  0  0  0  0  0  0  0  0
  -19.3597   -2.1620   25.2973 C   0  0  0  0  0  0  0  0  0  0  0  0
  -19.6064   -0.4817   22.0058 C   0  0  0  0  0  0  0  0  0  0  0  0
  -19.7965   -1.7089   24.1551 C   0  0  0  0  0  0  0  0  0  0  0  0
  -20.6430   -0.7009   21.6108 O   0  0  0  0  0  0  0  0  0  0  0  0
  -18.8963    0.5994   21.4378 N   0  0  0  0  0  0  0  0  0  0  0  0
  -19.2964    1.1765   20.2255 C   0  0  0  0  0  0  0  0  0  0  0  0
  -16.6786    2.6392   26.5726 F   0  0  0  0  0  0  0  0  0  0  0  0
  -18.7793    1.8598   19.6835 C   0  0  0  0  0  0  0  0  0  0  0  0
  -17.4406    2.4218   20.1861 C   0  0  0  0  0  0  0  0  0  0  0  0
  -16.9811    1.8712   21.3936 C   0  0  0  0  0  0  0  0  0  0  0  0
  -17.6941    0.9872   21.9852 C   0  0  0  0  0  0  0  0  0  0  0  0
  1  7  1  0
  6  8  1  0
  2 14  1  0
 13 15  1  0
 15 16  1  0
 21 22  1  0
 22 23  1  0
 23 24  1  0
 24 25  2  0
 24 26  1  0
 26 27  1  0
 26 28  1  0
 29 31  1  6
 29 32  1  0
 30 32  1  0
 31 33  2  0
 31 34  1  0
 34 35  1  0
 20 36  1  0
 37 38  1  0
 34 40  1  0
 39 40  1  0
 27 30  1  0
 29 28  1  0
 35 37  1  0
 38 39  1  0
  1  2  2  0
  2  3  1  0
  3  6  2  0
  6  5  1  0
  5  4  2  0
  4  1  1  0
  8  9  2  0
  9 10  1  0
 10 11  2  0
 11 13  1  0
 13 12  2  0
 12  8  1  0
 16 17  2  0
 17 18  1  0
 18 19  2  0
 19 20  1  0
 20 21  2  0
 21 16  1  0
M  END
$$$$
