No_7854-complexes_sdf/6BKW-FPZ/2024-09-17-14-21-01/
     RDKit          3D

  6  5  0  0  0  0  0  0  0  0999 V2000
   -7.2496    3.8871   27.4508 C   0  0  0  0  0  0  0  0  0  0  0  0
   -7.6161    2.7143   27.1523 C   0  0  0  0  0  0  0  0  0  0  0  0
   -7.1618    1.8631   27.5233 C   0  0  0  0  0  0  0  0  0  0  0  0
   -8.0082    5.1030   27.2636 C   0  0  0  0  0  0  0  0  0  0  0  0
   -7.6382    6.3256   27.9716 C   0  0  0  0  0  0  0  0  0  0  0  0
   -9.1493    5.1364   26.4394 C   0  0  0  0  0  0  0  0  0  0  0  0
  1  2  1  0
  2  3  3  0
  1  4  1  0
  4  5  1  0
  4  6  1  0
M  END
$$$$
