No_7558-complexes_sdf/6BKW-FPZ/2024-09-17-14-21-01/
     RDKit          3D

 12 13  0  0  0  0  0  0  0  0999 V2000
   -7.7129    4.2099   27.0854 C   0  0  0  0  0  0  0  0  0  0  0  0
   -8.2112    3.0637   26.9225 C   0  0  0  0  0  0  0  0  0  0  0  0
   -7.5138    1.9223   27.4249 C   0  0  0  0  0  0  0  0  0  0  0  0
   -8.5309    5.4147   26.8151 C   0  0  0  0  0  0  0  0  0  0  0  0
   -8.1184    6.7672   27.1362 C   0  0  0  0  0  0  0  0  0  0  0  0
   -7.9453    0.5890   27.2424 C   0  0  0  0  0  0  0  0  0  0  0  0
   -9.2770    0.4764   26.7383 C   0  0  0  0  0  0  0  0  0  0  0  0
  -10.0072    1.5621   26.3459 C   0  0  0  0  0  0  0  0  0  0  0  0
   -9.4577    2.8326   26.4605 C   0  0  0  0  0  0  0  0  0  0  0  0
   -9.7732    5.2155   26.1707 C   0  0  0  0  0  0  0  0  0  0  0  0
  -10.2690    3.9499   26.0190 C   0  0  0  0  0  0  0  0  0  0  0  0
   -8.7759    7.8130   26.7963 O   0  0  0  0  0  0  0  0  0  0  0  0
  5 12  2  0
  5  4  1  0
  1  2  2  0
  9 11  2  0
 11 10  1  0
 10  4  2  0
  4  1  1  0
  2  3  1  0
  3  6  2  0
  6  7  1  0
  7  8  2  0
  8  9  1  0
  9  2  1  0
M  END
$$$$
