No_7497-complexes_sdf/6BKW-FPZ/2024-09-17-14-21-01/
     RDKit          3D

 14 15  0  0  0  0  0  0  0  0999 V2000
   -7.7129    4.2099   27.0854 C   0  0  0  0  0  0  0  0  0  0  0  0
   -8.2112    3.0637   26.9225 C   0  0  0  0  0  0  0  0  0  0  0  0
   -8.4224    5.2106   27.8516 C   0  0  0  0  0  0  0  0  0  0  0  0
   -9.5628    2.7160   27.4089 C   0  0  0  0  0  0  0  0  0  0  0  0
   -9.7388    4.9901   28.2126 C   0  0  0  0  0  0  0  0  0  0  0  0
  -10.3206    3.7296   28.0546 C   0  0  0  0  0  0  0  0  0  0  0  0
  -11.6654    3.4630   28.5481 C   0  0  0  0  0  0  0  0  0  0  0  0
  -12.5735    2.9262   27.8425 C   0  0  0  0  0  0  0  0  0  0  0  0
  -12.5291    2.5060   26.6953 C   0  0  0  0  0  0  0  0  0  0  0  0
  -13.6682    1.9366   25.9666 C   0  0  0  0  0  0  0  0  0  0  0  0
  -13.9820    2.9363   28.4687 C   0  0  0  0  0  0  0  0  0  0  0  0
  -15.0716    2.4079   27.8038 C   0  0  0  0  0  0  0  0  0  0  0  0
  -14.8909    1.9441   26.5463 C   0  0  0  0  0  0  0  0  0  0  0  0
   -7.8610    6.4013   27.9725 F   0  0  0  0  0  0  0  0  0  0  0  0
  6  7  1  0
  7  8  1  0
  3 14  1  0
  8  9  2  0
  9 10  1  0
 10 13  2  0
 13 12  1  0
 12 11  2  0
 11  8  1  0
  1  2  2  0
  2  4  1  0
  4  6  2  0
  6  5  1  0
  5  3  2  0
  3  1  1  0
M  END
$$$$
