No_7939-complexes_sdf/6BKW-FPZ/2024-09-17-14-21-01/
     RDKit          3D

 36 41  0  0  0  0  0  0  0  0999 V2000
   -7.7129    4.2099   27.0854 C   0  0  0  0  0  0  0  0  0  0  0  0
   -8.2112    3.0637   26.9225 C   0  0  0  0  0  0  0  0  0  0  0  0
   -7.5138    1.9223   27.4249 C   0  0  0  0  0  0  0  0  0  0  0  0
   -8.5309    5.4147   26.8151 C   0  0  0  0  0  0  0  0  0  0  0  0
   -9.6817    5.2393   26.1100 C   0  0  0  0  0  0  0  0  0  0  0  0
  -10.1032    3.9957   25.8534 C   0  0  0  0  0  0  0  0  0  0  0  0
   -9.4296    2.6692   26.2501 C   0  0  0  0  0  0  0  0  0  0  0  0
   -7.9541    0.5662   27.3083 C   0  0  0  0  0  0  0  0  0  0  0  0
   -9.2466    0.4681   26.6246 C   0  0  0  0  0  0  0  0  0  0  0  0
   -9.9652    1.5116   26.1036 C   0  0  0  0  0  0  0  0  0  0  0  0
   -8.2130    6.7871   27.1678 C   0  0  0  0  0  0  0  0  0  0  0  0
   -7.9809    7.8202   26.8159 N   0  0  0  0  0  0  0  0  0  0  0  0
   -7.1263   -0.7177   27.9438 Cl  0  0  0  0  0  0  0  0  0  0  0  0
  -11.3876    3.8382   25.0607 C   0  0  0  0  0  0  0  0  0  0  0  0
  -12.5401    3.7291   25.6926 C   0  0  0  0  0  0  0  0  0  0  0  0
  -13.7333    3.7266   24.9919 C   0  0  0  0  0  0  0  0  0  0  0  0
  -11.2875    3.5003   23.7182 C   0  0  0  0  0  0  0  0  0  0  0  0
  -10.0252    3.5123   22.9996 C   0  0  0  0  0  0  0  0  0  0  0  0
  -12.5228    3.5201   23.0772 C   0  0  0  0  0  0  0  0  0  0  0  0
  -13.6905    3.5998   23.6632 C   0  0  0  0  0  0  0  0  0  0  0  0
  -10.0539    2.6919   21.8103 C   0  0  0  0  0  0  0  0  0  0  0  0
  -11.1375    2.7876   20.9667 C   0  0  0  0  0  0  0  0  0  0  0  0
  -12.4848    3.1134   21.5708 C   0  0  2  0  0  0  0  0  0  0  0  0
  -14.9712    3.6305   22.8884 C   0  0  0  0  0  0  0  0  0  0  0  0
  -15.8200    3.0430   22.9309 C   0  0  0  0  0  0  0  0  0  0  0  0
  -17.0143    3.1530   22.1076 C   0  0  0  0  0  0  0  0  0  0  0  0
  -16.9734    4.0476   21.0772 C   0  0  0  0  0  0  0  0  0  0  0  0
  -15.8555    4.8485   20.8891 C   0  0  0  0  0  0  0  0  0  0  0  0
  -14.7881    4.7598   21.7764 C   0  0  0  0  0  0  0  0  0  0  0  0
  -12.9076    3.9852   20.8028 F   0  0  0  0  0  0  0  0  0  0  0  0
  -13.3057    1.7875   21.3757 C   0  0  0  0  0  0  0  0  0  0  0  0
  -12.8282    0.6498   21.8926 C   0  0  0  0  0  0  0  0  0  0  0  0
  -13.6962   -0.3952   22.1562 C   0  0  0  0  0  0  0  0  0  0  0  0
  -14.3506    1.7536   20.4706 C   0  0  0  0  0  0  0  0  0  0  0  0
  -15.1819    0.5830   20.4389 C   0  0  0  0  0  0  0  0  0  0  0  0
  -14.7598   -0.4928   21.2511 C   0  0  0  0  0  0  0  0  0  0  0  0
  4 11  1  0
 11 12  3  0
  8 13  1  0
  6 14  1  0
 17 18  1  0
 18 21  2  0
 21 22  1  0
 19 23  1  0
 22 23  1  0
 20 24  1  0
 23 30  1  6
 23 31  1  0
 24 25  2  0
 25 26  1  0
 26 27  2  0
 27 28  1  0
 28 29  2  0
 29 24  1  0
  1  2  2  0
  7  6  2  0
  6  5  1  0
  5  4  2  0
  4  1  1  0
 31 32  2  0
 32 33  1  0
 33 36  2  0
 36 35  1  0
 35 34  2  0
 34 31  1  0
  2  3  1  0
  3  8  2  0
  8  9  1  0
  9 10  2  0
 10  7  1  0
  7  2  1  0
 14 15  2  0
 15 16  1  0
 16 20  2  0
 20 19  1  0
 19 17  2  0
 17 14  1  0
M  END
$$$$
