No_7893-complexes_sdf/6BKW-FPZ/2024-09-17-14-21-01/
     RDKit          3D

 21 23  0  0  0  0  0  0  0  0999 V2000
   -7.9040    3.9820   27.1177 C   0  0  2  0  0  0  0  0  0  0  0  0
   -9.0711    4.3164   27.0630 C   0  0  0  0  0  0  0  0  0  0  0  0
   -9.5294    5.4517   27.7215 C   0  0  0  0  0  0  0  0  0  0  0  0
   -7.4336    2.7132   26.5681 C   0  0  0  0  0  0  0  0  0  0  0  0
   -8.3353    1.8569   26.0442 C   0  0  2  0  0  0  0  0  0  0  0  0
   -9.6477    2.2853   25.9146 C   0  0  0  0  0  0  0  0  0  0  0  0
  -10.0346    3.4497   26.4483 C   0  0  0  0  0  0  0  0  0  0  0  0
   -8.0762    0.4833   25.6823 C   0  0  0  0  0  0  0  0  0  0  0  0
   -7.1536   -0.2215   26.4366 C   0  0  0  0  0  0  0  0  0  0  0  0
   -6.8218   -1.5382   26.1135 C   0  0  0  0  0  0  0  0  0  0  0  0
   -7.3907   -2.0503   24.9882 C   0  0  0  0  0  0  0  0  0  0  0  0
   -8.4485   -0.1994   24.5829 C   0  0  0  0  0  0  0  0  0  0  0  0
   -8.1393   -1.3819   24.1679 C   0  0  0  0  0  0  0  0  0  0  0  0
   -6.4936    4.8930   28.1279 Br  0  0  0  0  0  0  0  0  0  0  0  0
   -9.2476    0.5496   23.6659 F   0  0  0  0  0  0  0  0  0  0  0  0
   -5.9474   -2.2989   27.0678 C   0  0  0  0  0  0  0  0  0  0  0  0
   -6.1909   -3.0596   27.7963 N   0  0  0  0  0  0  0  0  0  0  0  0
   -5.4290   -3.6277   28.7026 C   0  0  0  0  0  0  0  0  0  0  0  0
   -4.4806   -1.8640   26.9806 C   0  0  0  0  0  0  0  0  0  0  0  0
   -3.5551   -2.4402   27.8056 C   0  0  0  0  0  0  0  0  0  0  0  0
   -4.0517   -3.3650   28.7360 C   0  0  0  0  0  0  0  0  0  0  0  0
  1  2  1  0
  2  3  2  0
  1  4  1  0
  4  5  1  0
  5  6  1  0
  2  7  1  0
  6  7  1  0
  5  8  1  1
  1 14  1  1
 12 15  1  0
 10 16  1  0
 16 17  2  0
 17 18  1  0
 18 21  2  0
 21 20  1  0
 20 19  2  0
 19 16  1  0
  8  9  2  0
  9 10  1  0
 10 11  2  0
 11 13  1  0
 13 12  2  0
 12  8  1  0
M  END
$$$$
