No_7000-complexes_sdf/6BKW-FPZ/2024-09-17-14-21-01/
     RDKit          3D

 19 20  0  0  0  0  0  0  0  0999 V2000
   -7.9040    3.9820   27.1177 C   0  0  0  0  0  0  0  0  0  0  0  0
   -8.2057    2.8231   26.8733 C   0  0  0  0  0  0  0  0  0  0  0  0
   -7.0130    4.3706   28.1140 C   0  0  0  0  0  0  0  0  0  0  0  0
   -7.4093    1.7370   27.3857 C   0  0  0  0  0  0  0  0  0  0  0  0
   -6.1712    2.1248   28.0064 C   0  0  0  0  0  0  0  0  0  0  0  0
   -5.1940    1.1281   28.3853 C   0  0  0  0  0  0  0  0  0  0  0  0
   -5.9472    3.5021   28.3510 C   0  0  0  0  0  0  0  0  0  0  0  0
   -5.4965   -0.2240   28.4702 C   0  0  0  0  0  0  0  0  0  0  0  0
   -4.5944   -1.1317   28.9153 C   0  0  0  0  0  0  0  0  0  0  0  0
   -8.9551    5.0910   26.7206 C   0  0  0  0  0  0  0  0  0  0  0  0
   -9.0818    6.2692   27.4480 C   0  0  0  0  0  0  0  0  0  0  0  0
   -9.5888    4.8837   25.4623 C   0  0  0  0  0  0  0  0  0  0  0  0
   -3.2859   -0.7111   29.2431 C   0  0  0  0  0  0  0  0  0  0  0  0
   -2.3288   -1.6934   29.7159 C   0  0  0  0  0  0  0  0  0  0  0  0
   -3.8411    1.5063   28.7716 C   0  0  0  0  0  0  0  0  0  0  0  0
   -2.9595    0.6084   29.1561 C   0  0  0  0  0  0  0  0  0  0  0  0
   -2.7381   -2.8729   29.4366 F   0  0  0  0  0  0  0  0  0  0  0  0
   -2.2114   -1.5984   31.0517 F   0  0  0  0  0  0  0  0  0  0  0  0
   -1.1209   -1.5147   29.1857 F   0  0  0  0  0  0  0  0  0  0  0  0
  5  6  1  0
  1 10  1  0
 10 11  1  0
 10 12  1  0
 13 14  1  0
 14 17  1  0
 14 18  1  0
 14 19  1  0
  1  2  2  0
  2  4  1  0
  4  5  2  0
  5  7  1  0
  7  3  2  0
  3  1  1  0
  6  8  2  0
  8  9  1  0
  9 13  2  0
 13 16  1  0
 16 15  2  0
 15  6  1  0
M  END
$$$$
