No_7646-complexes_sdf/6BKW-FPZ/2024-09-17-14-21-01/
     RDKit          3D

 26 29  0  0  0  0  0  0  0  0999 V2000
   -7.9040    3.9820   27.1177 C   0  0  0  0  0  0  0  0  0  0  0  0
   -8.2057    2.8231   26.8733 C   0  0  0  0  0  0  0  0  0  0  0  0
   -9.2962    2.4021   26.1155 C   0  0  0  0  0  0  0  0  0  0  0  0
   -8.7358    5.0662   26.5917 C   0  0  0  0  0  0  0  0  0  0  0  0
   -9.7618    4.7023   25.7546 C   0  0  0  0  0  0  0  0  0  0  0  0
  -10.0066    3.4105   25.4922 C   0  0  0  0  0  0  0  0  0  0  0  0
   -8.3936    6.4769   26.8843 C   0  0  0  0  0  0  0  0  0  0  0  0
   -8.6493    6.7879   28.0308 F   0  0  0  0  0  0  0  0  0  0  0  0
   -9.0864    7.3276   26.0150 F   0  0  0  0  0  0  0  0  0  0  0  0
   -7.0810    6.7446   26.7987 F   0  0  0  0  0  0  0  0  0  0  0  0
   -7.3526    1.6715   27.5017 C   0  0  0  0  0  0  0  0  0  0  0  0
   -5.9577    1.8657   27.7299 C   0  0  0  0  0  0  0  0  0  0  0  0
   -5.1856    0.8200   28.2806 C   0  0  0  0  0  0  0  0  0  0  0  0
   -3.8306    1.0169   28.6378 C   0  0  0  0  0  0  0  0  0  0  0  0
   -5.6151   -0.5275   27.9237 C   0  0  0  0  0  0  0  0  0  0  0  0
   -4.7352   -1.5456   28.3389 C   0  0  0  0  0  0  0  0  0  0  0  0
   -3.0201   -0.0000   29.1222 C   0  0  0  0  0  0  0  0  0  0  0  0
   -3.5398   -1.3284   28.9568 C   0  0  0  0  0  0  0  0  0  0  0  0
   -7.6656    0.3439   26.8587 C   0  0  0  0  0  0  0  0  0  0  0  0
   -6.8715   -0.7746   27.4996 C   0  0  0  0  0  0  0  0  0  0  0  0
  -11.1321    3.1514   24.5894 C   0  0  0  0  0  0  0  0  0  0  0  0
  -11.3318    3.8517   23.4417 C   0  0  0  0  0  0  0  0  0  0  0  0
  -12.3495    3.6090   22.5215 C   0  0  0  0  0  0  0  0  0  0  0  0
  -13.1951    2.5619   22.7987 C   0  0  0  0  0  0  0  0  0  0  0  0
  -11.9999    2.0665   24.7931 C   0  0  0  0  0  0  0  0  0  0  0  0
  -13.0092    1.8258   23.9117 C   0  0  0  0  0  0  0  0  0  0  0  0
  4  7  1  0
  7  8  1  0
  7  9  1  0
  7 10  1  0
  2 11  1  0
  6 21  1  0
 21 22  2  0
 22 23  1  0
 23 24  2  0
 24 26  1  0
 26 25  2  0
 25 21  1  0
 11 12  2  0
 12 13  1  0
 15 20  1  0
 20 19  2  0
 19 11  1  0
  1  2  2  0
  2  3  1  0
  3  6  2  0
  6  5  1  0
  5  4  2  0
  4  1  1  0
 13 14  2  0
 14 17  1  0
 17 18  2  0
 18 16  1  0
 16 15  2  0
 15 13  1  0
M  END
$$$$
