No_7190-complexes_sdf/6BKW-FPZ/2024-09-17-14-21-01/
     RDKit          3D

 27 29  0  0  0  0  0  0  0  0999 V2000
   -7.9040    3.9820   27.1177 C   0  0  0  0  0  0  0  0  0  0  0  0
   -8.2057    2.8231   26.8733 C   0  0  0  0  0  0  0  0  0  0  0  0
   -7.4766    1.7477   27.4593 C   0  0  0  0  0  0  0  0  0  0  0  0
   -8.7468    5.1251   26.6967 C   0  0  0  0  0  0  0  0  0  0  0  0
   -9.7234    4.8589   25.8202 C   0  0  0  0  0  0  0  0  0  0  0  0
   -9.9711    3.5858   25.4266 C   0  0  0  0  0  0  0  0  0  0  0  0
   -9.2266    2.4957   25.9600 C   0  0  0  0  0  0  0  0  0  0  0  0
   -6.1127    1.9031   27.8472 C   0  0  0  0  0  0  0  0  0  0  0  0
   -5.3493    0.8225   28.3589 C   0  0  0  0  0  0  0  0  0  0  0  0
   -4.0077    1.0286   28.8346 C   0  0  0  0  0  0  0  0  0  0  0  0
   -5.7451   -0.4899   27.7618 C   0  0  0  0  0  0  0  0  0  0  0  0
   -8.4122    6.5116   27.0952 C   0  0  0  0  0  0  0  0  0  0  0  0
   -8.6691    7.5436   26.4357 N   0  0  0  0  0  0  0  0  0  0  0  0
   -7.6329    6.5267   28.1786 O   0  0  0  0  0  0  0  0  0  0  0  0
   -4.8862   -1.5068   28.1028 C   0  0  0  0  0  0  0  0  0  0  0  0
   -3.2490   -0.0268   29.2143 C   0  0  0  0  0  0  0  0  0  0  0  0
   -3.6560   -1.3099   28.8572 C   0  0  0  0  0  0  0  0  0  0  0  0
  -11.0171    3.3341   24.4281 C   0  0  0  0  0  0  0  0  0  0  0  0
  -12.2857    3.1054   24.7805 C   0  0  0  0  0  0  0  0  0  0  0  0
  -10.6483    3.3270   23.0456 C   0  0  0  0  0  0  0  0  0  0  0  0
  -11.3929    3.1417   21.9692 C   0  0  0  0  0  0  0  0  0  0  0  0
  -13.2266    2.9509   23.6757 C   0  0  0  0  0  0  0  0  0  0  0  0
  -10.9761    3.1726   20.6191 C   0  0  0  0  0  0  0  0  0  0  0  0
  -12.8050    2.9747   22.2731 C   0  0  0  0  0  0  0  0  0  0  0  0
  -11.4384    2.9502   19.5213 C   0  0  0  0  0  0  0  0  0  0  0  0
  -12.7766    2.4434   19.5624 C   0  0  0  0  0  0  0  0  0  0  0  0
  -13.7195    2.5664   20.5181 C   0  0  0  0  0  0  0  0  0  0  0  0
  2  3  1  0
  3  8  2  3
  8  9  1  0
  4 12  1  0
 12 13  1  0
 12 14  2  0
  6 18  1  0
 21 23  1  0
 23 25  2  3
 25 26  1  0
 26 27  2  0
  9 10  2  0
 10 16  1  0
 16 17  2  0
 17 15  1  0
 15 11  2  0
 11  9  1  0
  1  2  2  0
  2  7  1  0
  7  6  2  0
  6  5  1  0
  5  4  2  0
  4  1  1  0
 18 19  2  0
 19 22  1  0
 22 24  2  0
 24 21  1  0
 21 20  2  0
 20 18  1  0
M  END
$$$$
