No_7425-complexes_sdf/6BKW-FPZ/2024-09-17-14-21-01/
     RDKit          3D

 28 32  0  0  0  0  0  0  0  0999 V2000
   -7.9040    3.9820   27.1177 C   0  0  0  0  0  0  0  0  0  0  0  0
   -8.2057    2.8231   26.8733 C   0  0  0  0  0  0  0  0  0  0  0  0
   -7.0130    4.3706   28.1140 C   0  0  0  0  0  0  0  0  0  0  0  0
   -7.4093    1.7370   27.3857 C   0  0  0  0  0  0  0  0  0  0  0  0
   -6.1943    2.1490   28.0403 C   0  0  0  0  0  0  0  0  0  0  0  0
   -5.2077    1.1775   28.4320 C   0  0  0  0  0  0  0  0  0  0  0  0
   -5.9705    3.5268   28.3803 C   0  0  0  0  0  0  0  0  0  0  0  0
   -5.5039   -0.1875   28.5196 C   0  0  0  0  0  0  0  0  0  0  0  0
   -6.7688   -0.5267   27.9054 C   0  0  0  0  0  0  0  0  0  0  0  0
   -7.6463    0.3765   27.3110 C   0  0  0  0  0  0  0  0  0  0  0  0
   -8.9242    5.0823   26.6246 C   0  0  0  0  0  0  0  0  0  0  0  0
   -9.5743    4.8579   25.4644 N   0  0  0  0  0  0  0  0  0  0  0  0
   -8.6957    6.4218   26.9256 N   0  0  0  0  0  0  0  0  0  0  0  0
   -4.5679   -1.1533   28.9726 C   0  0  0  0  0  0  0  0  0  0  0  0
   -4.9648   -2.0406   29.6998 C   0  0  0  0  0  0  0  0  0  0  0  0
   -6.3032   -2.0673   30.2672 C   0  0  0  0  0  0  0  0  0  0  0  0
   -7.3651   -1.7952   29.3910 C   0  0  0  0  0  0  0  0  0  0  0  0
   -7.3880   -1.6238   28.3438 C   0  0  0  0  0  0  0  0  0  0  0  0
   -8.7331    7.4041   26.0263 C   0  0  0  0  0  0  0  0  0  0  0  0
   -9.9168    3.6302   25.1187 C   0  0  0  0  0  0  0  0  0  0  0  0
  -10.9309    3.3440   24.1489 C   0  0  0  0  0  0  0  0  0  0  0  0
   -9.3297    2.4792   25.7881 C   0  0  0  0  0  0  0  0  0  0  0  0
  -10.6139    2.7293   23.0600 C   0  0  0  0  0  0  0  0  0  0  0  0
   -9.8872    1.6780   22.9480 C   0  0  0  0  0  0  0  0  0  0  0  0
   -9.5467    0.9365   21.7618 C   0  0  0  0  0  0  0  0  0  0  0  0
  -10.1521    1.4100   20.6164 C   0  0  0  0  0  0  0  0  0  0  0  0
  -11.0076    3.1169   21.6711 C   0  0  0  0  0  0  0  0  0  0  0  0
  -10.7925    2.5339   20.5606 C   0  0  0  0  0  0  0  0  0  0  0  0
 11 13  1  0
  8 14  1  0
 14 15  2  0
 15 16  1  0
 16 17  2  0
  9 18  1  0
 17 18  1  0
 13 19  1  0
 20 21  1  0
 21 23  1  0
  2 22  2  0
 22 20  1  0
 20 12  2  0
 12 11  1  0
 11  1  2  0
  1  2  1  0
  2  4  1  0
  5  7  1  0
  7  3  2  0
  3  1  1  0
 23 24  2  0
 24 25  1  0
 25 26  2  0
 26 28  1  0
 28 27  2  0
 27 23  1  0
  4  5  2  0
  5  6  1  0
  6  8  2  0
  8  9  1  0
  9 10  2  0
 10  4  1  0
M  END
$$$$
