No_7186-complexes_sdf/6BKW-FPZ/2024-09-17-14-21-01/
     RDKit          3D

 27 30  0  0  0  0  0  0  0  0999 V2000
   -7.7129    4.2099   27.0854 C   0  0  0  0  0  0  0  0  0  0  0  0
   -8.9133    4.4736   27.0998 C   0  0  0  0  0  0  0  0  0  0  0  0
   -9.7937    3.7367   26.2091 C   0  0  0  0  0  0  0  0  0  0  0  0
   -6.8266    5.0441   28.0594 C   0  0  0  0  0  0  0  0  0  0  0  0
   -9.2322    2.6276   25.6126 C   0  0  0  0  0  0  0  0  0  0  0  0
   -7.9794    2.1924   25.9863 C   0  0  0  0  0  0  0  0  0  0  0  0
   -7.2411    2.9387   26.9009 C   0  0  0  0  0  0  0  0  0  0  0  0
  -10.0593    1.7685   24.7435 C   0  0  1  0  0  0  0  0  0  0  0  0
  -10.6600    2.2245   23.7631 C   0  0  0  0  0  0  0  0  0  0  0  0
  -11.3872    1.4091   22.7814 C   0  0  0  0  0  0  0  0  0  0  0  0
  -12.0959    1.9463   21.7135 C   0  0  0  0  0  0  0  0  0  0  0  0
  -12.1087    3.3792   21.5689 C   0  0  0  0  0  0  0  0  0  0  0  0
  -11.4541    4.2041   22.4296 C   0  0  0  0  0  0  0  0  0  0  0  0
  -10.6873    3.6493   23.5098 C   0  0  0  0  0  0  0  0  0  0  0  0
   -9.9665    0.3311   24.9634 C   0  0  0  0  0  0  0  0  0  0  0  0
  -11.0043   -0.2344   25.7097 C   0  0  0  0  0  0  0  0  0  0  0  0
  -10.9291   -1.6040   26.0244 C   0  0  0  0  0  0  0  0  0  0  0  0
   -9.7917   -2.3001   25.6652 C   0  0  0  0  0  0  0  0  0  0  0  0
   -8.8496   -0.4176   24.6756 C   0  0  0  0  0  0  0  0  0  0  0  0
   -8.7428   -1.7226   24.9922 C   0  0  0  0  0  0  0  0  0  0  0  0
   -9.5125    5.8242   27.4777 C   0  0  0  0  0  0  0  0  0  0  0  0
  -12.2066    0.5041   26.1225 C   0  0  0  0  0  0  0  0  0  0  0  0
  -13.3806    0.4209   25.5304 C   0  0  0  0  0  0  0  0  0  0  0  0
  -14.3858    1.3134   25.7702 C   0  0  0  0  0  0  0  0  0  0  0  0
  -14.2462    2.2368   26.8277 C   0  0  0  0  0  0  0  0  0  0  0  0
  -13.0795    2.3099   27.5688 C   0  0  0  0  0  0  0  0  0  0  0  0
  -12.0087    1.5130   27.2234 C   0  0  0  0  0  0  0  0  0  0  0  0
  1  4  1  0
  8  5  1  6
  8 15  1  0
  2 21  1  0
 16 22  1  0
  8  9  1  0
 15 16  1  0
 16 17  2  0
 17 18  1  0
 18 20  2  0
 20 19  1  0
 19 15  2  0
 22 23  2  0
 23 24  1  0
 24 25  2  0
 25 26  1  0
 26 27  2  0
 27 22  1  0
  9 10  2  0
 10 11  1  0
 11 12  2  0
 12 13  1  0
 13 14  2  0
 14  9  1  0
  1  2  2  0
  2  3  1  0
  3  5  2  0
  5  6  1  0
  6  7  2  0
  7  1  1  0
M  END
$$$$
