No_7283-complexes_sdf/6BKW-FPZ/2024-09-17-14-21-01/
     RDKit          3D

 40 44  0  0  0  0  0  0  0  0999 V2000
   -7.9040    3.9820   27.1177 C   0  0  0  0  0  0  0  0  0  0  0  0
   -9.0711    4.3164   27.0630 C   0  0  0  0  0  0  0  0  0  0  0  0
   -9.5182    5.5541   27.5777 C   0  0  0  0  0  0  0  0  0  0  0  0
   -7.4468    2.6843   26.6499 C   0  0  0  0  0  0  0  0  0  0  0  0
   -8.3379    1.7605   26.6739 C   0  0  0  0  0  0  0  0  0  0  0  0
   -9.6979    2.0614   26.6619 C   0  0  0  0  0  0  0  0  0  0  0  0
  -10.0499    3.3289   26.9290 C   0  0  0  0  0  0  0  0  0  0  0  0
   -7.8820    0.3647   26.3003 C   0  0  0  0  0  0  0  0  0  0  0  0
   -7.3259   -0.3568   27.3589 C   0  0  1  0  0  0  0  0  0  0  0  0
   -6.4158    0.1129   28.0884 C   0  0  0  0  0  0  0  0  0  0  0  0
   -5.6678   -0.6523   29.0880 C   0  0  0  0  0  0  0  0  0  0  0  0
   -4.5544   -0.1027   29.8237 C   0  0  0  0  0  0  0  0  0  0  0  0
   -4.1215    1.2021   29.4351 C   0  0  0  0  0  0  0  0  0  0  0  0
   -4.6961    1.8543   28.3534 C   0  0  0  0  0  0  0  0  0  0  0  0
   -5.7175    1.3532   27.7514 C   0  0  0  0  0  0  0  0  0  0  0  0
   -3.9139   -0.8400   30.8834 C   0  0  0  0  0  0  0  0  0  0  0  0
   -3.1479   -0.1752   31.5270 F   0  0  0  0  0  0  0  0  0  0  0  0
   -3.3059   -1.9578   30.3262 F   0  0  0  0  0  0  0  0  0  0  0  0
   -4.8846   -1.2921   31.7826 F   0  0  0  0  0  0  0  0  0  0  0  0
   -8.4787    6.6036   27.5668 C   0  0  0  0  0  0  0  0  0  0  0  0
   -7.9460   -1.6351   27.7010 C   0  0  0  0  0  0  0  0  0  0  0  0
   -8.8150   -1.8195   28.5301 N   0  0  0  0  0  0  0  0  0  0  0  0
   -9.0510   -2.7754   29.4154 C   0  0  0  0  0  0  0  0  0  0  0  0
   -8.2982   -3.9209   29.1688 C   0  0  0  0  0  0  0  0  0  0  0  0
   -7.2572   -2.7860   27.1628 C   0  0  0  0  0  0  0  0  0  0  0  0
   -7.5311   -3.7912   27.4405 C   0  0  0  0  0  0  0  0  0  0  0  0
   -8.5110   -5.2263   29.6839 C   0  0  0  0  0  0  0  0  0  0  0  0
   -8.9111   -5.4592   30.6142 O   0  0  0  0  0  0  0  0  0  0  0  0
   -7.9245   -6.2699   28.9414 N   0  0  0  0  0  0  0  0  0  0  0  0
   -7.9466   -7.5959   29.4858 C   0  0  0  0  0  0  0  0  0  0  0  0
   -8.0121    6.9739   26.2320 C   0  0  0  0  0  0  0  0  0  0  0  0
   -8.5835    8.1974   26.1031 C   0  0  0  0  0  0  0  0  0  0  0  0
   -7.5858   -8.4909   28.6787 C   0  0  0  0  0  0  0  0  0  0  0  0
   -7.0854   -8.2041   27.4156 C   0  0  0  0  0  0  0  0  0  0  0  0
   -7.0463   -6.9092   26.9389 C   0  0  0  0  0  0  0  0  0  0  0  0
   -7.4756   -5.9700   27.6856 C   0  0  2  0  0  0  0  0  0  0  0  0
   -7.2620   -4.6703   26.9956 N   0  0  0  0  0  0  0  0  0  0  0  0
  -10.7225    1.0050   26.4829 C   0  0  0  0  0  0  0  0  0  0  0  0
  -11.5362    0.7440   27.4959 C   0  0  0  0  0  0  0  0  0  0  0  0
  -12.5515   -0.2837   27.4000 C   0  0  0  0  0  0  0  0  0  0  0  0
  2  3  1  0
  5  8  1  0
  9  8  1  1
 12 16  1  0
 16 17  1  0
 16 18  1  0
 16 19  1  0
  3 20  1  0
  9 21  1  0
 24 27  1  0
 27 28  2  0
 27 29  1  0
 29 30  1  0
 20 31  1  0
 31 32  1  0
 33 34  1  0
 29 36  1  0
 36 35  1  1
 26 37  1  0
 36 37  1  0
  6 38  1  0
 38 39  2  3
 39 40  1  0
  9 10  1  0
 30 33  1  0
 34 35  1  0
 21 22  2  0
 22 23  1  0
 23 24  2  0
 24 26  1  0
 26 25  2  0
 25 21  1  0
  1  2  2  0
  2  7  1  0
  7  6  2  0
  6  5  1  0
  5  4  2  0
  4  1  1  0
 10 11  2  0
 11 12  1  0
 12 13  2  0
 13 14  1  0
 14 15  2  0
 15 10  1  0
M  END
$$$$
