No_7624-complexes_sdf/6BKW-FPZ/2024-09-17-14-21-01/
     RDKit          3D

 19 20  0  0  0  0  0  0  0  0999 V2000
   -7.7129    4.2099   27.0854 C   0  0  0  0  0  0  0  0  0  0  0  0
   -7.7814    5.1722   27.8972 C   0  0  0  0  0  0  0  0  0  0  0  0
   -8.8998    3.8713   26.3707 C   0  0  0  0  0  0  0  0  0  0  0  0
   -9.9938    4.6774   26.5446 C   0  0  0  0  0  0  0  0  0  0  0  0
   -8.7789    6.1536   27.9256 C   0  0  0  0  0  0  0  0  0  0  0  0
   -9.9428    5.8398   27.2296 C   0  0  0  0  0  0  0  0  0  0  0  0
   -8.9208    2.6404   25.5721 C   0  0  0  0  0  0  0  0  0  0  0  0
   -9.7377    1.6978   26.0657 C   0  0  0  0  0  0  0  0  0  0  0  0
  -10.6913    1.6811   26.7543 C   0  0  0  0  0  0  0  0  0  0  0  0
  -11.3858    0.4667   27.2937 C   0  0  0  0  0  0  0  0  0  0  0  0
  -10.8518   -0.7075   26.8462 C   0  0  0  0  0  0  0  0  0  0  0  0
   -9.2923    0.2441   25.7314 C   0  0  0  0  0  0  0  0  0  0  0  0
   -9.8868   -0.8341   26.1170 C   0  0  0  0  0  0  0  0  0  0  0  0
   -8.0493    0.1255   24.7819 C   0  0  1  0  0  0  0  0  0  0  0  0
   -6.8460   -0.2981   25.3319 C   0  0  0  0  0  0  0  0  0  0  0  0
   -8.2859    0.2911   23.4090 C   0  0  0  0  0  0  0  0  0  0  0  0
   -6.2006   -1.4066   24.9677 Br  0  0  0  0  0  0  0  0  0  0  0  0
   -6.5056    0.4568   26.4956 O   0  0  0  0  0  0  0  0  0  0  0  0
   -6.6298    5.6178   28.5958 O   0  0  0  0  0  0  0  0  0  0  0  0
  3  7  1  0
  7  8  1  0
 12 14  1  0
 14 15  1  0
 14 16  1  6
 15 17  1  0
 15 18  2  0
  2 19  1  0
  1  2  2  0
  2  5  1  0
  5  6  2  0
  6  4  1  0
  4  3  2  0
  3  1  1  0
  8  9  2  0
  9 10  1  0
 10 11  2  0
 11 13  1  0
 13 12  2  0
 12  8  1  0
M  END
$$$$
