No_7098-complexes_sdf/6BKW-FPZ/2024-09-17-14-21-01/
     RDKit          3D

 16 17  0  0  0  0  0  0  0  0999 V2000
   -7.7129    4.2099   27.0854 C   0  0  0  0  0  0  0  0  0  0  0  0
   -7.7814    5.1722   27.8972 C   0  0  0  0  0  0  0  0  0  0  0  0
   -8.8255    3.2789   27.1191 C   0  0  0  0  0  0  0  0  0  0  0  0
   -8.7530    2.0643   26.3119 C   0  0  0  0  0  0  0  0  0  0  0  0
   -7.6193    1.3092   26.4290 C   0  0  0  0  0  0  0  0  0  0  0  0
   -9.0029    5.8383   28.2110 C   0  0  0  0  0  0  0  0  0  0  0  0
  -10.1982    5.1082   27.9555 C   0  0  0  0  0  0  0  0  0  0  0  0
  -10.0767    3.8720   27.3445 C   0  0  0  0  0  0  0  0  0  0  0  0
   -7.5395    0.0328   25.8687 C   0  0  0  0  0  0  0  0  0  0  0  0
   -6.5656   -0.8125   26.3074 C   0  0  0  0  0  0  0  0  0  0  0  0
   -5.5483   -0.4037   27.2288 C   0  0  0  0  0  0  0  0  0  0  0  0
   -5.6705    0.8591   27.8420 C   0  0  0  0  0  0  0  0  0  0  0  0
   -6.6684    1.6465   27.5582 C   0  0  0  0  0  0  0  0  0  0  0  0
  -11.2870    3.0573   27.1973 C   0  0  0  0  0  0  0  0  0  0  0  0
  -11.9618    3.0493   26.1424 C   0  0  0  0  0  0  0  0  0  0  0  0
  -13.1316    2.2899   25.9389 C   0  0  0  0  0  0  0  0  0  0  0  0
  3  4  1  0
  8 14  1  0
 14 15  2  3
 15 16  1  0
  4  5  1  0
  5  9  2  0
  9 10  1  0
 10 11  2  0
 11 12  1  0
 12 13  2  0
 13  5  1  0
  1  2  2  0
  2  6  1  0
  6  7  2  0
  7  8  1  0
  8  3  2  0
  3  1  1  0
M  END
$$$$
