No_7350-complexes_sdf/6BKW-FPZ/2024-09-17-14-21-01/
     RDKit          3D

 34 38  0  0  0  0  0  0  0  0999 V2000
   -7.7129    4.2099   27.0854 C   0  0  0  0  0  0  0  0  0  0  0  0
   -7.7814    5.1722   27.8972 C   0  0  0  0  0  0  0  0  0  0  0  0
   -7.3155    2.9699   27.6145 C   0  0  0  0  0  0  0  0  0  0  0  0
   -7.6814    1.8188   26.9581 C   0  0  0  0  0  0  0  0  0  0  0  0
   -8.6377    1.9131   25.9324 C   0  0  0  0  0  0  0  0  0  0  0  0
   -9.1866    3.0673   25.6037 C   0  0  0  0  0  0  0  0  0  0  0  0
   -8.8394    4.1752   26.2513 C   0  0  0  0  0  0  0  0  0  0  0  0
   -8.2486    6.4747   27.5719 N   0  0  0  0  0  0  0  0  0  0  0  0
   -9.0953    6.6391   26.5260 C   0  0  0  0  0  0  0  0  0  0  0  0
   -9.4505    5.4775   25.8556 C   0  0  0  0  0  0  0  0  0  0  0  0
   -7.0296    0.5294   27.2729 C   0  0  0  0  0  0  0  0  0  0  0  0
   -5.8159    0.4650   27.9642 C   0  0  0  0  0  0  0  0  0  0  0  0
   -5.2531   -0.7745   28.2974 C   0  0  0  0  0  0  0  0  0  0  0  0
   -5.9590   -1.9046   27.9738 C   0  0  0  0  0  0  0  0  0  0  0  0
   -7.4885   -0.8045   27.1478 C   0  0  0  0  0  0  0  0  0  0  0  0
   -7.0919   -1.9044   27.4715 C   0  0  0  0  0  0  0  0  0  0  0  0
   -3.8943   -0.7212   29.0056 C   0  0  0  0  0  0  0  0  0  0  0  0
   -2.9764    0.0958   28.5234 C   0  0  0  0  0  0  0  0  0  0  0  0
   -3.6430   -1.5138   30.1497 C   0  0  1  0  0  0  0  0  0  0  0  0
   -4.1732   -1.1208   31.3200 C   0  0  0  0  0  0  0  0  0  0  0  0
   -4.0007    0.0308   31.9019 C   0  0  0  0  0  0  0  0  0  0  0  0
   -5.0699   -2.0920   31.9738 C   0  0  0  0  0  0  0  0  0  0  0  0
   -5.8701   -1.7083   33.1160 C   0  0  0  0  0  0  0  0  0  0  0  0
   -4.6836    0.3530   33.1292 N   0  0  0  0  0  0  0  0  0  0  0  0
   -5.5280   -0.4519   33.6898 C   0  0  0  0  0  0  0  0  0  0  0  0
   -2.2835   -0.2148   27.2846 C   0  0  0  0  0  0  0  0  0  0  0  0
   -2.4761    0.7622   26.2152 C   0  0  0  0  0  0  0  0  0  0  0  0
   -1.7474   -1.4162   27.0234 C   0  0  0  0  0  0  0  0  0  0  0  0
   -3.4657   -2.9811   29.9129 C   0  0  0  0  0  0  0  0  0  0  0  0
   -2.1559   -3.5123   30.0245 C   0  0  0  0  0  0  0  0  0  0  0  0
   -1.8847   -4.7749   29.7089 C   0  0  0  0  0  0  0  0  0  0  0  0
   -2.9400   -5.5674   29.3093 C   0  0  0  0  0  0  0  0  0  0  0  0
   -4.2233   -5.0963   29.1484 C   0  0  0  0  0  0  0  0  0  0  0  0
   -4.4209   -3.7848   29.4968 C   0  0  0  0  0  0  0  0  0  0  0  0
  4 11  1  0
 13 17  1  0
 17 18  1  0
 19 17  1  6
 19 20  1  0
 18 26  1  0
 26 27  1  0
 26 28  1  0
 19 29  1  0
  1  2  2  0
  2  8  1  0
  8  9  2  0
  9 10  1  0
 10  7  2  0
  1  3  1  0
  3  4  2  0
  4  5  1  0
  5  6  2  0
  6  7  1  0
  7  1  1  0
 11 12  2  0
 12 13  1  0
 13 14  2  0
 14 16  1  0
 16 15  2  0
 15 11  1  0
 29 30  2  0
 30 31  1  0
 31 32  2  0
 32 33  1  0
 33 34  2  0
 34 29  1  0
 20 21  2  0
 21 24  1  0
 24 25  2  0
 25 23  1  0
 23 22  2  0
 22 20  1  0
M  END
$$$$
