No_7764-complexes_sdf/6BKW-FPZ/2024-09-17-14-21-01/
     RDKit          3D

 25 29  0  0  0  0  0  0  0  0999 V2000
   -7.2496    3.8871   27.4508 C   0  0  0  0  0  0  0  0  0  0  0  0
   -7.9379    4.9063   27.8518 C   0  0  0  0  0  0  0  0  0  0  0  0
   -9.3376    4.8647   27.7795 C   0  0  0  0  0  0  0  0  0  0  0  0
   -7.8544    2.6294   27.0414 C   0  0  0  0  0  0  0  0  0  0  0  0
   -9.2852    2.6570   27.0666 C   0  0  0  0  0  0  0  0  0  0  0  0
  -10.0126    3.7528   27.4890 C   0  0  0  0  0  0  0  0  0  0  0  0
  -11.4946    3.6924   27.5201 C   0  0  0  0  0  0  0  0  0  0  0  0
  -12.0181    2.6419   28.0792 C   0  0  0  0  0  0  0  0  0  0  0  0
  -11.1682    1.5746   28.6283 C   0  0  0  0  0  0  0  0  0  0  0  0
  -10.0654    1.3745   28.0102 C   0  0  0  0  0  0  0  0  0  0  0  0
   -7.2914    6.1038   27.9972 O   0  0  0  0  0  0  0  0  0  0  0  0
  -13.4735    2.5912   28.4627 C   0  0  0  0  0  0  0  0  0  0  0  0
  -13.8579    2.0191   29.3724 C   0  0  0  0  0  0  0  0  0  0  0  0
  -15.0407    2.2346   30.0384 C   0  0  0  0  0  0  0  0  0  0  0  0
  -15.9616    3.0676   29.3507 C   0  0  0  0  0  0  0  0  0  0  0  0
  -15.5422    3.7575   28.2596 C   0  0  0  0  0  0  0  0  0  0  0  0
  -14.2331    3.6931   27.8947 C   0  0  0  0  0  0  0  0  0  0  0  0
  -13.7574    4.4979   26.7517 C   0  0  0  0  0  0  0  0  0  0  0  0
  -12.2988    4.7188   26.8933 C   0  0  0  0  0  0  0  0  0  0  0  0
   -9.2728    0.1252   27.8051 C   0  0  0  0  0  0  0  0  0  0  0  0
   -9.9615   -0.9913   28.1065 C   0  0  0  0  0  0  0  0  0  0  0  0
   -9.3106   -2.2401   28.1069 C   0  0  0  0  0  0  0  0  0  0  0  0
   -7.9609   -2.2646   27.7689 C   0  0  0  0  0  0  0  0  0  0  0  0
   -7.2561   -1.1451   27.4601 C   0  0  0  0  0  0  0  0  0  0  0  0
   -7.8798    0.0752   27.4995 C   0  0  0  0  0  0  0  0  0  0  0  0
  2 11  1  0
 10 20  1  0
 12 13  2  0
 13 14  1  0
 14 15  2  0
 15 16  1  0
 16 17  2  0
  1  2  2  0
  2  3  1  0
  3  6  2  0
  5  4  2  0
  4  1  1  0
  5  6  1  0
  6  7  1  0
  8  9  1  0
  9 10  2  0
 10  5  1  0
  7  8  2  0
  8 12  1  0
 12 17  1  0
 17 18  1  0
 18 19  2  0
 19  7  1  0
 20 21  2  0
 21 22  1  0
 22 23  2  0
 23 24  1  0
 24 25  2  0
 25 20  1  0
M  END
$$$$
