No_7602-complexes_sdf/6BKW-FPZ/2024-09-17-14-21-01/
     RDKit          3D

 24 27  0  0  0  0  0  0  0  0999 V2000
   -7.2496    3.8871   27.4508 C   0  0  0  0  0  0  0  0  0  0  0  0
   -7.9379    4.9063   27.8518 C   0  0  0  0  0  0  0  0  0  0  0  0
   -8.7729    5.5444   27.0168 C   0  0  0  0  0  0  0  0  0  0  0  0
   -6.2858    3.2138   28.3467 C   0  0  0  0  0  0  0  0  0  0  0  0
   -9.2459    4.9714   25.8185 C   0  0  0  0  0  0  0  0  0  0  0  0
   -8.7245    3.6550   25.5132 C   0  0  0  0  0  0  0  0  0  0  0  0
   -7.8326    3.1219   26.4052 C   0  0  0  0  0  0  0  0  0  0  0  0
   -5.6873    1.9697   27.9543 C   0  0  0  0  0  0  0  0  0  0  0  0
   -6.3755    1.1447   27.0491 C   0  0  0  0  0  0  0  0  0  0  0  0
   -7.3924    1.7275   26.1973 C   0  0  0  0  0  0  0  0  0  0  0  0
   -4.5975    1.4524   28.7713 C   0  0  0  0  0  0  0  0  0  0  0  0
   -3.9111    1.9974   29.4880 F   0  0  0  0  0  0  0  0  0  0  0  0
   -4.2994    0.0142   28.4491 C   0  0  0  0  0  0  0  0  0  0  0  0
   -4.8752   -0.8908   27.9525 C   0  0  0  0  0  0  0  0  0  0  0  0
   -6.0318   -0.2381   26.9656 C   0  0  0  0  0  0  0  0  0  0  0  0
   -6.7571   -1.1820   26.1387 C   0  0  0  0  0  0  0  0  0  0  0  0
   -6.3109   -1.4479   25.0841 C   0  0  0  0  0  0  0  0  0  0  0  0
   -6.9985   -2.2111   24.0205 C   0  0  0  0  0  0  0  0  0  0  0  0
   -8.0363   -1.8108   23.5411 C   0  0  0  0  0  0  0  0  0  0  0  0
   -8.7850   -2.5595   22.6770 C   0  0  0  0  0  0  0  0  0  0  0  0
   -8.2300   -3.6687   22.0440 C   0  0  0  0  0  0  0  0  0  0  0  0
   -6.9562   -4.0545   22.4269 C   0  0  0  0  0  0  0  0  0  0  0  0
   -6.2586   -3.3581   23.4163 C   0  0  0  0  0  0  0  0  0  0  0  0
   -7.9739   -1.7084   26.6248 C   0  0  0  0  0  0  0  0  0  0  0  0
 11 12  1  0
 15 16  1  0
 16 17  2  3
 17 18  1  0
 16 24  1  0
  9 15  1  0
 15 14  2  0
 14 13  1  0
 13 11  2  0
 11  8  1  0
  1  4  1  0
  4  8  2  0
  8  9  1  0
  9 10  2  0
 10  7  1  0
 18 19  2  0
 19 20  1  0
 20 21  2  0
 21 22  1  0
 22 23  2  0
 23 18  1  0
  1  2  2  0
  2  3  1  0
  3  5  2  0
  5  6  1  0
  6  7  2  0
  7  1  1  0
M  END
$$$$
