No_7166-complexes_sdf/6BKW-FPZ/2024-09-17-14-21-01/
     RDKit          3D

 15 16  0  0  0  0  0  0  0  0999 V2000
   -7.7129    4.2099   27.0854 C   0  0  0  0  0  0  0  0  0  0  0  0
   -8.9133    4.4736   27.0998 C   0  0  0  0  0  0  0  0  0  0  0  0
   -9.4643    5.5426   27.7628 C   0  0  0  0  0  0  0  0  0  0  0  0
   -9.8091    3.6358   26.2841 C   0  0  0  0  0  0  0  0  0  0  0  0
   -9.4101    2.5938   25.7918 C   0  0  0  0  0  0  0  0  0  0  0  0
   -7.4685    2.9379   27.4575 C   0  0  0  0  0  0  0  0  0  0  0  0
   -6.0674    2.4677   27.8227 C   0  0  0  0  0  0  0  0  0  0  0  0
   -8.1926    1.9014   26.7453 C   0  0  0  0  0  0  0  0  0  0  0  0
   -5.1496    3.3298   28.1742 N   0  0  0  0  0  0  0  0  0  0  0  0
   -5.8148    1.0712   28.1922 C   0  0  0  0  0  0  0  0  0  0  0  0
   -6.5188    0.0005   27.7679 C   0  0  0  0  0  0  0  0  0  0  0  0
   -7.9201    0.5116   26.7370 C   0  0  0  0  0  0  0  0  0  0  0  0
   -8.7035   -0.5013   26.2943 C   0  0  0  0  0  0  0  0  0  0  0  0
   -9.0661   -0.6967   25.3817 C   0  0  0  0  0  0  0  0  0  0  0  0
  -10.0270   -1.7420   24.9055 C   0  0  0  0  0  0  0  0  0  0  0  0
  2  3  1  0
 12 13  1  0
 13 14  2  3
 14 15  1  0
  9  7  1  0
  1  2  2  0
  2  4  1  0
  4  5  2  0
  5  8  1  0
  6  1  1  0
  6  7  2  0
  7 10  1  0
 10 11  2  0
 11 12  1  0
 12  8  2  0
  8  6  1  0
M  END
$$$$
