No_734-complexes_sdf/6BKW-FPZ/2024-09-17-14-21-01/
     RDKit          3D

 27 29  0  0  0  0  0  0  0  0999 V2000
   -7.2496    3.8871   27.4508 C   0  0  0  0  0  0  0  0  0  0  0  0
   -8.5096    4.0291   27.2770 C   0  0  0  0  0  0  0  0  0  0  0  0
   -9.3502    2.8685   26.8763 C   0  0  0  0  0  0  0  0  0  0  0  0
   -6.6288    2.5513   27.4938 C   0  0  0  0  0  0  0  0  0  0  0  0
   -7.4365    1.4714   27.2032 C   0  0  0  0  0  0  0  0  0  0  0  0
  -10.6956    3.0464   26.6122 C   0  0  0  0  0  0  0  0  0  0  0  0
   -8.7780    1.6365   26.9046 C   0  0  0  0  0  0  0  0  0  0  0  0
  -11.4709    2.2497   26.6900 C   0  0  0  0  0  0  0  0  0  0  0  0
  -10.9767    0.8087   26.8870 C   0  0  0  0  0  0  0  0  0  0  0  0
   -9.6348    0.5481   26.9620 C   0  0  0  0  0  0  0  0  0  0  0  0
   -5.3281    2.5097   27.6905 F   0  0  0  0  0  0  0  0  0  0  0  0
   -9.0818    5.3945   27.2083 C   0  0  0  0  0  0  0  0  0  0  0  0
   -8.2401    6.5281   26.8526 C   0  0  0  0  0  0  0  0  0  0  0  0
   -8.7072    7.8612   26.8401 C   0  0  0  0  0  0  0  0  0  0  0  0
   -9.2128   -0.8393   27.1855 C   0  0  0  0  0  0  0  0  0  0  0  0
   -9.8362   -1.5800   28.0277 C   0  0  0  0  0  0  0  0  0  0  0  0
  -11.2711   -1.3374   28.1903 C   0  0  0  0  0  0  0  0  0  0  0  0
  -11.8742   -0.1459   27.5869 C   0  0  0  0  0  0  0  0  0  0  0  0
  -13.2567    0.1067   27.8781 C   0  0  0  0  0  0  0  0  0  0  0  0
  -13.9146    0.9687   27.5320 N   0  0  0  0  0  0  0  0  0  0  0  0
  -14.7601    1.5122   27.7731 C   0  0  0  0  0  0  0  0  0  0  0  0
  -13.8504   -0.7799   28.6218 O   0  0  0  0  0  0  0  0  0  0  0  0
  -14.7334    2.4428   28.8473 C   0  0  0  0  0  0  0  0  0  0  0  0
  -15.7404    3.3083   29.1981 C   0  0  0  0  0  0  0  0  0  0  0  0
  -15.5657    4.2840   30.2975 C   0  0  0  0  0  0  0  0  0  0  0  0
  -14.3836    4.2614   31.0732 C   0  0  0  0  0  0  0  0  0  0  0  0
  -13.3673    3.3144   30.7376 C   0  0  0  0  0  0  0  0  0  0  0  0
  4 11  1  0
  2 12  1  0
 12 13  1  0
 13 14  2  0
 18 19  1  0
 19 20  1  0
 20 21  1  0
 19 22  2  0
 21 23  2  3
 23 24  1  0
 24 25  2  3
 25 26  1  0
 26 27  2  0
 10 15  1  0
 15 16  2  0
 16 17  1  0
 17 18  2  0
 18  9  1  0
  1  2  2  0
  2  3  1  0
  7  5  1  0
  5  4  2  0
  4  1  1  0
  3  6  2  0
  6  8  1  0
  8  9  2  0
  9 10  1  0
 10  7  2  0
  7  3  1  0
M  END
$$$$
