No_737-complexes_sdf/6BKW-FPZ/2024-09-17-14-21-01/
     RDKit          3D

 32 35  0  0  0  0  0  0  0  0999 V2000
   -7.7129    4.2099   27.0854 C   0  0  0  0  0  0  0  0  0  0  0  0
   -8.2112    3.0637   26.9225 C   0  0  0  0  0  0  0  0  0  0  0  0
   -8.5108    5.3904   26.9436 C   0  0  0  0  0  0  0  0  0  0  0  0
   -9.7256    5.1955   26.3518 C   0  0  0  0  0  0  0  0  0  0  0  0
   -9.4995    2.8258   26.4878 C   0  0  0  0  0  0  0  0  0  0  0  0
  -10.2542    3.9691   26.2055 C   0  0  0  0  0  0  0  0  0  0  0  0
   -7.8138    6.9227   27.2348 Cl  0  0  0  0  0  0  0  0  0  0  0  0
   -7.5966    1.7179   27.2174 C   0  0  1  0  0  0  0  0  0  0  0  0
   -8.0837    0.5096   27.1221 C   0  0  0  0  0  0  0  0  0  0  0  0
   -7.4062   -0.6026   27.4349 C   0  0  0  0  0  0  0  0  0  0  0  0
   -8.0709   -1.8764   27.5028 C   0  0  0  0  0  0  0  0  0  0  0  0
   -9.1833   -1.8000   27.5322 C   0  0  0  0  0  0  0  0  0  0  0  0
   -9.9317   -3.1041   27.6709 C   0  0  0  0  0  0  0  0  0  0  0  0
   -9.5091    0.1302   27.1825 C   0  0  0  0  0  0  0  0  0  0  0  0
  -10.0809   -0.9296   27.4052 C   0  0  0  0  0  0  0  0  0  0  0  0
  -11.0580   -3.2303   27.8352 C   0  0  0  0  0  0  0  0  0  0  0  0
  -11.9717   -2.0902   27.7435 C   0  0  0  0  0  0  0  0  0  0  0  0
  -11.4848   -0.9514   27.5197 C   0  0  0  0  0  0  0  0  0  0  0  0
   -6.0677    1.8216   27.4908 C   0  0  0  0  0  0  0  0  0  0  0  0
   -5.2504    0.9993   27.4646 O   0  0  0  0  0  0  0  0  0  0  0  0
   -5.7059    3.0586   28.0107 O   0  0  0  0  0  0  0  0  0  0  0  0
  -11.6194    3.8771   25.6240 C   0  0  1  0  0  0  0  0  0  0  0  0
  -12.2103    4.1991   24.2274 Cl  0  0  0  0  0  0  0  0  0  0  0  0
  -12.5970    3.2743   26.5869 C   0  0  0  0  0  0  0  0  0  0  0  0
  -12.1415    2.8904   27.6220 F   0  0  0  0  0  0  0  0  0  0  0  0
  -13.7139    3.0654   26.1923 F   0  0  0  0  0  0  0  0  0  0  0  0
  -13.5079   -2.2901   27.8975 C   0  0  0  0  0  0  0  0  0  0  0  0
  -14.1480   -1.5869   28.7794 C   0  0  0  0  0  0  0  0  0  0  0  0
  -15.5945   -1.6420   28.8764 C   0  0  0  0  0  0  0  0  0  0  0  0
  -16.2179   -2.4962   28.0070 C   0  0  0  0  0  0  0  0  0  0  0  0
  -15.5412   -3.2146   27.0928 C   0  0  0  0  0  0  0  0  0  0  0  0
  -14.3045   -3.1469   27.0280 C   0  0  0  0  0  0  0  0  0  0  0  0
  3  7  1  0
  2  8  1  0
  8 19  1  6
 19 20  2  0
 19 21  1  0
  6 22  1  0
 22 23  1  6
 22 24  1  0
 24 25  1  0
 24 26  1  0
 17 27  1  0
  8  9  1  0
 12 13  1  0
 13 16  2  0
 16 17  1  0
 17 18  2  0
 18 15  1  0
  9 10  2  0
 10 11  1  0
 11 12  2  0
 12 15  1  0
 15 14  2  0
 14  9  1  0
  1  2  2  0
  2  5  1  0
  5  6  2  0
  6  4  1  0
  4  3  2  0
  3  1  1  0
 27 28  2  0
 28 29  1  0
 29 30  2  0
 30 31  1  0
 31 32  2  0
 32 27  1  0
M  END
$$$$
