No_7954-complexes_sdf/6BKW-FPZ/2024-09-17-14-21-01/
     RDKit          3D

 14 15  0  0  0  0  0  0  0  0999 V2000
   -7.7129    4.2099   27.0854 C   0  0  0  0  0  0  0  0  0  0  0  0
   -7.7814    5.1722   27.8972 C   0  0  0  0  0  0  0  0  0  0  0  0
   -8.8998    3.8713   26.3707 C   0  0  0  0  0  0  0  0  0  0  0  0
   -8.9563    2.6796   25.5490 C   0  0  0  0  0  0  0  0  0  0  0  0
   -8.8131    6.1334   27.9344 C   0  0  0  0  0  0  0  0  0  0  0  0
   -9.9804    5.8121   27.1929 C   0  0  0  0  0  0  0  0  0  0  0  0
   -9.9861    4.6836   26.4532 C   0  0  0  0  0  0  0  0  0  0  0  0
   -9.7711    2.5868   24.5395 N   0  0  0  0  0  0  0  0  0  0  0  0
  -10.4333    3.6954   24.2873 C   0  0  0  0  0  0  0  0  0  0  0  0
  -10.7174    4.6738   25.1946 N   0  0  0  0  0  0  0  0  0  0  0  0
  -11.3729    3.6601   23.1034 C   0  0  0  0  0  0  0  0  0  0  0  0
  -10.6632    3.8725   21.9618 C   0  0  0  0  0  0  0  0  0  0  0  0
   -9.3006    3.9639   21.9128 C   0  0  0  0  0  0  0  0  0  0  0  0
   -8.7493    4.0180   20.5180 C   0  0  0  0  0  0  0  0  0  0  0  0
  9 11  1  0
 11 12  1  0
 12 13  2  3
 13 14  1  0
  1  2  2  0
  2  5  1  0
  5  6  2  0
  6  7  1  0
  3  1  1  0
  3  4  2  0
  4  8  1  0
  8  9  2  0
  9 10  1  0
 10  7  2  0
  7  3  1  0
M  END
$$$$
