No_751-complexes_sdf/6BKW-FPZ/2024-09-17-14-21-01/
     RDKit          3D

 22 24  0  0  0  0  0  0  0  0999 V2000
   -7.2496    3.8871   27.4508 C   0  0  0  0  0  0  0  0  0  0  0  0
   -7.6161    2.7143   27.1523 C   0  0  0  0  0  0  0  0  0  0  0  0
   -8.8827    2.2318   27.1220 C   0  0  0  0  0  0  0  0  0  0  0  0
   -8.2837    4.9116   27.6108 C   0  0  0  0  0  0  0  0  0  0  0  0
   -9.6088    4.5175   27.5560 C   0  0  0  0  0  0  0  0  0  0  0  0
   -9.9243    3.2149   27.3938 C   0  0  0  0  0  0  0  0  0  0  0  0
   -7.8973    6.1858   27.9018 O   0  0  0  0  0  0  0  0  0  0  0  0
   -9.2735    0.8536   26.9291 C   0  0  0  0  0  0  0  0  0  0  0  0
   -8.5543   -0.0621   26.9998 C   0  0  0  0  0  0  0  0  0  0  0  0
   -8.9395   -1.4727   26.8422 C   0  0  0  0  0  0  0  0  0  0  0  0
  -10.2781   -1.6639   26.5369 C   0  0  0  0  0  0  0  0  0  0  0  0
  -10.6411    0.3433   26.6695 C   0  0  0  0  0  0  0  0  0  0  0  0
  -11.0978   -0.7741   26.5493 C   0  0  0  0  0  0  0  0  0  0  0  0
   -8.4883    7.1558   27.0803 C   0  0  0  0  0  0  0  0  0  0  0  0
  -12.7758   -1.1093   26.2322 Cl  0  0  0  0  0  0  0  0  0  0  0  0
   -7.8902   -2.5430   26.8986 C   0  0  0  0  0  0  0  0  0  0  0  0
   -6.8238   -2.3387   26.5161 C   0  0  0  0  0  0  0  0  0  0  0  0
   -5.7238   -3.2952   26.7152 C   0  0  0  0  0  0  0  0  0  0  0  0
   -4.3884   -2.8679   26.4547 C   0  0  0  0  0  0  0  0  0  0  0  0
   -4.0591   -1.5957   25.9281 C   0  0  0  0  0  0  0  0  0  0  0  0
   -5.1151   -0.6907   25.7173 C   0  0  0  0  0  0  0  0  0  0  0  0
   -6.3545   -1.0006   26.0833 C   0  0  0  0  0  0  0  0  0  0  0  0
  4  7  1  0
  3  8  1  0
  7 14  1  0
 13 15  1  0
 10 16  1  0
 16 17  1  0
 17 18  2  0
 18 19  1  0
 19 20  2  0
 20 21  1  0
 21 22  2  0
 22 17  1  0
  1  2  2  0
  2  3  1  0
  3  6  2  0
  6  5  1  0
  5  4  2  0
  4  1  1  0
  8  9  2  0
  9 10  1  0
 10 11  2  0
 11 13  1  0
 13 12  2  0
 12  8  1  0
M  END
$$$$
