No_7796-complexes_sdf/6BKW-FPZ/2024-09-17-14-21-01/
     RDKit          3D

 32 35  0  0  0  0  0  0  0  0999 V2000
   -7.9040    3.9820   27.1177 C   0  0  0  0  0  0  0  0  0  0  0  0
   -9.0711    4.3164   27.0630 C   0  0  0  0  0  0  0  0  0  0  0  0
   -9.9692    3.7224   26.1073 C   0  0  0  0  0  0  0  0  0  0  0  0
   -7.4776    2.6994   26.6283 C   0  0  0  0  0  0  0  0  0  0  0  0
   -8.4406    1.9440   25.9776 C   0  0  0  0  0  0  0  0  0  0  0  0
   -9.6379    2.5001   25.6881 C   0  0  0  0  0  0  0  0  0  0  0  0
   -6.9751    4.6208   27.9552 O   0  0  0  0  0  0  0  0  0  0  0  0
  -10.5122    1.5664   24.8945 C   0  0  0  0  0  0  0  0  0  0  0  0
  -11.3393    1.7344   24.0626 F   0  0  0  0  0  0  0  0  0  0  0  0
  -11.2088    0.8007   25.8967 F   0  0  0  0  0  0  0  0  0  0  0  0
   -9.7242    0.5508   24.2885 F   0  0  0  0  0  0  0  0  0  0  0  0
   -7.2380    5.9771   28.1741 C   0  0  0  0  0  0  0  0  0  0  0  0
   -9.2439    5.7862   27.4040 C   0  0  0  0  0  0  0  0  0  0  0  0
   -8.2404    6.5031   27.7298 N   0  0  0  0  0  0  0  0  0  0  0  0
  -11.2947    4.2686   25.7604 C   0  0  0  0  0  0  0  0  0  0  0  0
   -6.3247    2.1253   27.1340 O   0  0  0  0  0  0  0  0  0  0  0  0
   -6.1699    0.7416   27.3049 C   0  0  0  0  0  0  0  0  0  0  0  0
   -6.8828   -0.2040   27.1471 C   0  0  0  0  0  0  0  0  0  0  0  0
   -4.7955    0.5012   27.8606 C   0  0  0  0  0  0  0  0  0  0  0  0
   -4.3644   -0.7226   28.2388 C   0  0  0  0  0  0  0  0  0  0  0  0
   -6.5635   -1.5344   27.4695 C   0  0  0  0  0  0  0  0  0  0  0  0
   -5.3217   -1.7737   28.0327 C   0  0  0  0  0  0  0  0  0  0  0  0
   -7.5144   -2.6392   27.2694 C   0  0  0  0  0  0  0  0  0  0  0  0
   -8.5172   -2.6788   26.9677 C   0  0  0  0  0  0  0  0  0  0  0  0
   -9.4630   -3.7913   26.7559 C   0  0  0  0  0  0  0  0  0  0  0  0
   -8.9376   -4.9765   27.0196 C   0  0  0  0  0  0  0  0  0  0  0  0
   -7.6819   -5.0830   27.4688 C   0  0  0  0  0  0  0  0  0  0  0  0
   -6.8537   -3.9662   27.6654 C   0  0  0  0  0  0  0  0  0  0  0  0
   -3.0682   -0.8913   28.8149 C   0  0  0  0  0  0  0  0  0  0  0  0
   -2.8728   -0.2095   29.8536 F   0  0  0  0  0  0  0  0  0  0  0  0
   -2.9331   -2.1685   29.2900 F   0  0  0  0  0  0  0  0  0  0  0  0
   -2.1462   -0.6903   27.8826 F   0  0  0  0  0  0  0  0  0  0  0  0
  1  7  1  0
  6  8  1  0
  8  9  1  0
  8 10  1  0
  8 11  1  0
  7 12  1  0
  2 13  1  0
 12 14  1  0
 13 14  2  0
  3 15  1  0
  4 16  1  0
 16 17  1  0
 21 23  1  0
 20 29  1  0
 29 30  1  0
 29 31  1  0
 29 32  1  0
 23 24  2  0
 24 25  1  0
 25 26  2  0
 26 27  1  0
 27 28  2  0
 28 23  1  0
  1  2  1  0
  2  3  2  0
  3  6  1  0
  6  5  2  0
  5  4  1  0
  4  1  2  0
 17 18  2  0
 18 21  1  0
 21 22  2  0
 22 20  1  0
 20 19  2  0
 19 17  1  0
M  END
$$$$
