No_7694-complexes_sdf/6BKW-FPZ/2024-09-17-14-21-01/
     RDKit          3D

 12 12  0  0  0  0  0  0  0  0999 V2000
   -7.9040    3.9820   27.1177 C   0  0  2  0  0  0  0  0  0  0  0  0
   -9.0711    4.3164   27.0630 C   0  0  0  0  0  0  0  0  0  0  0  0
   -9.5294    5.4517   27.7215 C   0  0  0  0  0  0  0  0  0  0  0  0
   -7.4336    2.7132   26.5681 C   0  0  0  0  0  0  0  0  0  0  0  0
   -8.3353    1.8569   26.0442 C   0  0  2  0  0  0  0  0  0  0  0  0
   -9.6477    2.2853   25.9146 C   0  0  0  0  0  0  0  0  0  0  0  0
  -10.0346    3.4497   26.4483 C   0  0  0  0  0  0  0  0  0  0  0  0
   -8.0762    0.4833   25.6823 C   0  0  0  0  0  0  0  0  0  0  0  0
   -8.0505    0.1938   24.5459 O   0  0  0  0  0  0  0  0  0  0  0  0
   -7.6934   -0.3363   26.6219 O   0  0  0  0  0  0  0  0  0  0  0  0
   -6.8382    4.7326   27.9267 C   0  0  0  0  0  0  0  0  0  0  0  0
   -7.2604    6.2707   28.5771 Cl  0  0  0  0  0  0  0  0  0  0  0  0
  1  2  1  0
  2  3  2  0
  1  4  1  0
  4  5  1  0
  5  6  1  0
  2  7  1  0
  6  7  1  0
  5  8  1  1
  8  9  2  0
  8 10  1  0
  1 11  1  1
 11 12  1  0
M  END
$$$$
