No_7866-complexes_sdf/6BKW-FPZ/2024-09-17-14-21-01/
     RDKit          3D

 12 12  0  0  0  0  0  0  0  0999 V2000
   -7.7129    4.2099   27.0854 C   0  0  0  0  0  0  0  0  0  0  0  0
   -7.7814    5.1722   27.8972 C   0  0  0  0  0  0  0  0  0  0  0  0
   -8.8776    3.8408   26.3416 C   0  0  0  0  0  0  0  0  0  0  0  0
   -8.9136    2.6330   25.5655 C   0  0  0  0  0  0  0  0  0  0  0  0
   -8.8361    6.1389   27.9032 C   0  0  0  0  0  0  0  0  0  0  0  0
  -10.0140    4.6007   26.4589 C   0  0  0  0  0  0  0  0  0  0  0  0
   -9.9695    5.8024   27.1801 C   0  0  0  0  0  0  0  0  0  0  0  0
   -8.2806    1.5717   26.0879 N   0  0  0  0  0  0  0  0  0  0  0  0
   -7.7422    1.5704   27.2500 C   0  0  0  0  0  0  0  0  0  0  0  0
   -6.9304    2.4449   27.5556 C   0  0  0  0  0  0  0  0  0  0  0  0
   -6.8420    4.1297   26.4950 F   0  0  0  0  0  0  0  0  0  0  0  0
   -5.7469    2.5224   28.1352 C   0  0  0  0  0  0  0  0  0  0  0  0
  3  4  1  0
  4  8  1  0
  8  9  1  0
  9 10  1  0
  1 11  1  0
 10 12  2  0
  1  2  2  0
  2  5  1  0
  5  7  2  0
  7  6  1  0
  6  3  2  0
  3  1  1  0
M  END
$$$$
