No_7864-complexes_sdf/6BKW-FPZ/2024-09-17-14-21-01/
     RDKit          3D

 18 20  0  0  0  0  0  0  0  0999 V2000
   -7.9040    3.9820   27.1177 C   0  0  0  0  0  0  0  0  0  0  0  0
   -8.2057    2.8231   26.8733 C   0  0  0  0  0  0  0  0  0  0  0  0
   -7.0130    4.3706   28.1140 C   0  0  0  0  0  0  0  0  0  0  0  0
   -7.4093    1.7370   27.3857 C   0  0  0  0  0  0  0  0  0  0  0  0
   -7.7256    0.3814   27.1250 C   0  0  0  0  0  0  0  0  0  0  0  0
   -9.0139    0.1894   26.6369 C   0  0  0  0  0  0  0  0  0  0  0  0
   -9.8348    1.1679   26.1763 C   0  0  0  0  0  0  0  0  0  0  0  0
   -9.4322    2.4831   26.2877 C   0  0  0  0  0  0  0  0  0  0  0  0
   -8.5704    5.1284   26.4357 C   0  0  0  0  0  0  0  0  0  0  0  0
   -6.8298    5.7852   28.5313 C   0  0  0  0  0  0  0  0  0  0  0  0
   -9.6931    4.9053   25.6193 C   0  0  0  0  0  0  0  0  0  0  0  0
  -10.1853    3.4927   25.6069 C   0  0  0  0  0  0  0  0  0  0  0  0
  -11.2573    3.2572   24.6998 C   0  0  0  0  0  0  0  0  0  0  0  0
  -12.4724    3.1052   25.1799 C   0  0  0  0  0  0  0  0  0  0  0  0
  -11.1279    3.5205   23.3198 C   0  0  0  0  0  0  0  0  0  0  0  0
  -12.1069    3.3592   22.4219 C   0  0  0  0  0  0  0  0  0  0  0  0
  -13.5842    2.9259   24.3303 C   0  0  0  0  0  0  0  0  0  0  0  0
  -13.3968    3.1319   22.9399 C   0  0  0  0  0  0  0  0  0  0  0  0
  3 10  1  0
 12 13  1  0
  3  1  1  0
  1  2  2  0
  8 12  2  0
 12 11  1  0
 11  9  2  0
  9  1  1  0
 13 14  2  0
 14 17  1  0
 17 18  2  0
 18 16  1  0
 16 15  2  0
 15 13  1  0
  2  4  1  0
  4  5  2  0
  5  6  1  0
  6  7  2  0
  7  8  1  0
  8  2  1  0
M  END
$$$$
