No_7301-complexes_sdf/6BKW-FPZ/2024-09-17-14-21-01/
     RDKit          3D

 17 19  0  0  0  0  0  0  0  0999 V2000
   -7.2496    3.8871   27.4508 C   0  0  0  0  0  0  0  0  0  0  0  0
   -8.5096    4.0291   27.2770 C   0  0  0  0  0  0  0  0  0  0  0  0
   -9.3451    2.8786   26.9046 C   0  0  0  0  0  0  0  0  0  0  0  0
   -6.6065    2.5680   27.5073 C   0  0  0  0  0  0  0  0  0  0  0  0
   -7.4233    1.4858   27.2402 C   0  0  0  0  0  0  0  0  0  0  0  0
   -8.7362    1.6525   26.9989 C   0  0  0  0  0  0  0  0  0  0  0  0
   -9.2789    5.2694   27.2420 C   0  0  0  0  0  0  0  0  0  0  0  0
   -8.5017    6.4422   27.0318 C   0  0  0  0  0  0  0  0  0  0  0  0
   -9.1553    7.7470   27.0165 C   0  0  0  0  0  0  0  0  0  0  0  0
   -6.7691    0.1795   27.2925 C   0  0  0  0  0  0  0  0  0  0  0  0
   -5.5332    0.0595   27.7982 C   0  0  0  0  0  0  0  0  0  0  0  0
   -4.9439   -1.1925   27.9332 C   0  0  0  0  0  0  0  0  0  0  0  0
   -3.6694   -1.2875   28.6308 C   0  0  0  0  0  0  0  0  0  0  0  0
   -2.9809   -0.1257   29.0295 C   0  0  0  0  0  0  0  0  0  0  0  0
   -3.6634    1.1273   28.9313 C   0  0  0  0  0  0  0  0  0  0  0  0
   -4.8696    1.1957   28.3817 C   0  0  0  0  0  0  0  0  0  0  0  0
   -5.4929    2.4526   28.1432 N   0  0  0  0  0  0  0  0  0  0  0  0
  2  7  1  0
  7  8  2  3
  8  9  1  0
 11 12  1  0
 12 13  2  0
 13 14  1  0
 14 15  2  0
 15 16  1  0
  1  2  2  0
  2  3  1  0
  3  6  2  0
  6  5  1  0
  4  1  1  0
  4  5  2  0
  5 10  1  0
 10 11  2  0
 11 16  1  0
 16 17  2  0
 17  4  1  0
M  END
$$$$
