No_7636-complexes_sdf/6BKW-FPZ/2024-09-17-14-21-01/
     RDKit          3D

 20 22  0  0  0  0  0  0  0  0999 V2000
   -7.9040    3.9820   27.1177 C   0  0  0  0  0  0  0  0  0  0  0  0
   -9.0711    4.3164   27.0630 C   0  0  0  0  0  0  0  0  0  0  0  0
   -9.5294    5.4517   27.7215 C   0  0  0  0  0  0  0  0  0  0  0  0
   -6.9328    4.7309   27.8881 C   0  0  0  0  0  0  0  0  0  0  0  0
   -7.3377    5.8421   28.5537 C   0  0  0  0  0  0  0  0  0  0  0  0
   -8.6411    6.2609   28.3972 C   0  0  0  0  0  0  0  0  0  0  0  0
  -10.0467    3.4917   26.2630 C   0  0  0  0  0  0  0  0  0  0  0  0
  -10.5865    3.7278   25.3547 C   0  0  0  0  0  0  0  0  0  0  0  0
  -11.2548    3.0752   24.3872 C   0  0  0  0  0  0  0  0  0  0  0  0
  -11.3368    1.6973   24.5869 C   0  0  0  0  0  0  0  0  0  0  0  0
   -9.8115    2.0746   26.2620 C   0  0  0  0  0  0  0  0  0  0  0  0
  -10.4778    1.1964   25.5351 C   0  0  0  0  0  0  0  0  0  0  0  0
  -10.3922   -0.2978   25.7137 C   0  0  0  0  0  0  0  0  0  0  0  0
   -9.4990   -0.7590   26.1272 N   0  0  0  0  0  0  0  0  0  0  0  0
   -9.2472   -1.9708   26.4913 C   0  0  0  0  0  0  0  0  0  0  0  0
  -11.4179   -0.9410   25.3973 O   0  0  0  0  0  0  0  0  0  0  0  0
   -8.0556   -2.1795   27.1332 C   0  0  0  0  0  0  0  0  0  0  0  0
   -7.1525   -1.1604   27.2903 C   0  0  0  0  0  0  0  0  0  0  0  0
   -7.3756    0.1297   26.8784 C   0  0  0  0  0  0  0  0  0  0  0  0
   -8.4710    0.3184   26.4217 C   0  0  0  0  0  0  0  0  0  0  0  0
  2  7  1  0
 12 13  1  0
 13 14  1  0
 14 15  1  0
 13 16  2  0
 17 18  1  0
 14 20  1  0
 19 20  1  0
 15 17  1  0
 18 19  1  0
  7  8  2  0
  8  9  1  0
  9 10  2  0
 10 12  1  0
 12 11  2  0
 11  7  1  0
  1  2  2  0
  2  3  1  0
  3  6  2  0
  6  5  1  0
  5  4  2  0
  4  1  1  0
M  END
$$$$
