No_7364-complexes_sdf/6BKW-FPZ/2024-09-17-14-21-01/
     RDKit          3D

 27 30  0  0  0  0  0  0  0  0999 V2000
   -7.9040    3.9820   27.1177 C   0  0  0  0  0  0  0  0  0  0  0  0
   -8.2057    2.8231   26.8733 C   0  0  0  0  0  0  0  0  0  0  0  0
   -8.7695    5.0740   26.7916 C   0  0  0  0  0  0  0  0  0  0  0  0
   -8.4337    6.4678   27.0913 C   0  0  0  0  0  0  0  0  0  0  0  0
   -9.3742    2.4311   26.2346 C   0  0  0  0  0  0  0  0  0  0  0  0
  -10.2395    3.4267   25.8887 C   0  0  0  0  0  0  0  0  0  0  0  0
   -9.9567    4.7548   26.1374 C   0  0  0  0  0  0  0  0  0  0  0  0
   -7.9449    7.5014   26.9590 N   0  0  0  0  0  0  0  0  0  0  0  0
   -7.2426    1.6814   27.2966 C   0  0  0  0  0  0  0  0  0  0  0  0
   -7.5505    0.3972   27.2174 N   0  0  0  0  0  0  0  0  0  0  0  0
   -5.9969    1.9644   27.7398 N   0  0  0  0  0  0  0  0  0  0  0  0
   -6.4353   -0.1981   27.7297 C   0  0  0  0  0  0  0  0  0  0  0  0
   -5.4976    0.7334   28.0378 C   0  0  0  0  0  0  0  0  0  0  0  0
   -4.1252    0.5833   28.5990 C   0  0  0  0  0  0  0  0  0  0  0  0
   -3.9404   -0.1893   29.6166 N   0  0  0  0  0  0  0  0  0  0  0  0
   -4.1539    0.1769   30.8618 C   0  0  0  0  0  0  0  0  0  0  0  0
   -3.7732   -0.7012   31.9886 C   0  0  0  0  0  0  0  0  0  0  0  0
   -3.4771   -1.4837   29.4317 C   0  0  0  0  0  0  0  0  0  0  0  0
   -3.1077   -2.3403   30.4669 C   0  0  0  0  0  0  0  0  0  0  0  0
   -3.2389   -1.8826   31.8018 C   0  0  0  0  0  0  0  0  0  0  0  0
   -3.1168    0.8781   27.8199 O   0  0  0  0  0  0  0  0  0  0  0  0
  -11.4699    3.1329   25.1050 C   0  0  0  0  0  0  0  0  0  0  0  0
  -11.5825    3.0973   23.9147 N   0  0  0  0  0  0  0  0  0  0  0  0
  -12.7354    2.8259   23.2738 C   0  0  0  0  0  0  0  0  0  0  0  0
  -12.6519    2.8432   25.8817 C   0  0  0  0  0  0  0  0  0  0  0  0
  -13.8593    2.6166   25.3298 C   0  0  0  0  0  0  0  0  0  0  0  0
  -13.8974    2.6206   23.9289 C   0  0  0  0  0  0  0  0  0  0  0  0
  3  4  1  0
  4  8  3  0
  2  9  1  0
  9 10  2  0
  9 11  1  0
 10 12  1  0
 11 13  1  0
 12 13  2  0
 13 14  1  0
 14 15  1  0
 15 16  1  0
 15 18  1  0
 17 20  1  0
 19 20  1  0
 14 21  2  0
  6 22  1  0
 16 17  1  0
 19 18  1  0
  1  2  2  0
  2  5  1  0
  5  6  2  0
  6  7  1  0
  7  3  2  0
  3  1  1  0
 22 23  2  0
 23 24  1  0
 24 27  2  0
 27 26  1  0
 26 25  2  0
 25 22  1  0
M  END
$$$$
