No_7382-complexes_sdf/6BKW-FPZ/2024-09-17-14-21-01/
     RDKit          3D

 18 18  0  0  0  0  0  0  0  0999 V2000
   -7.2496    3.8871   27.4508 C   0  0  0  0  0  0  0  0  0  0  0  0
   -7.6161    2.7143   27.1523 C   0  0  0  0  0  0  0  0  0  0  0  0
   -8.6212    2.2239   26.4073 C   0  0  0  0  0  0  0  0  0  0  0  0
   -8.2540    4.9237   27.1711 C   0  0  0  0  0  0  0  0  0  0  0  0
   -8.0482    6.2918   27.4895 C   0  0  0  0  0  0  0  0  0  0  0  0
   -9.5812    3.2431   26.0960 C   0  0  0  0  0  0  0  0  0  0  0  0
   -9.3651    4.5697   26.4537 C   0  0  0  0  0  0  0  0  0  0  0  0
   -6.9978    6.6922   28.0272 N   0  0  0  0  0  0  0  0  0  0  0  0
   -9.0276    7.1238   27.3829 O   0  0  0  0  0  0  0  0  0  0  0  0
   -8.6746    0.7854   26.1115 C   0  0  1  0  0  0  0  0  0  0  0  0
   -8.9784   -0.0573   26.9466 Cl  0  0  0  0  0  0  0  0  0  0  0  0
   -8.4964    0.5531   24.6744 C   0  0  0  0  0  0  0  0  0  0  0  0
   -7.6863   -0.4839   24.3326 C   0  0  2  0  0  0  0  0  0  0  0  0
   -6.6097   -0.7466   24.9786 C   0  0  0  0  0  0  0  0  0  0  0  0
   -5.7051   -1.7225   24.4869 N   0  0  0  0  0  0  0  0  0  0  0  0
   -7.7914   -0.9963   22.9837 C   0  0  0  0  0  0  0  0  0  0  0  0
   -6.8987   -1.9454   22.4481 C   0  0  0  0  0  0  0  0  0  0  0  0
   -4.6291   -2.1382   25.3428 C   0  0  0  0  0  0  0  0  0  0  0  0
  4  5  1  0
  5  8  1  0
  5  9  2  0
  3 10  1  0
 10 11  1  6
 10 12  1  0
 13 12  1  6
 13 14  1  0
 14 15  2  3
 13 16  1  0
 16 17  2  0
 15 18  1  0
  1  2  2  0
  2  3  1  0
  3  6  2  0
  6  7  1  0
  7  4  2  0
  4  1  1  0
M  END
$$$$
