No_7167-complexes_sdf/6BKW-FPZ/2024-09-17-14-21-01/
     RDKit          3D

 12 12  0  0  0  0  0  0  0  0999 V2000
   -7.2496    3.8871   27.4508 C   0  0  0  0  0  0  0  0  0  0  0  0
   -7.9379    4.9063   27.8518 C   0  0  0  0  0  0  0  0  0  0  0  0
   -9.3460    4.8223   27.8695 C   0  0  0  0  0  0  0  0  0  0  0  0
   -7.8628    2.6163   27.1065 C   0  0  0  0  0  0  0  0  0  0  0  0
   -9.2787    2.5744   27.1970 C   0  0  0  0  0  0  0  0  0  0  0  0
  -10.0108    3.6770   27.6340 C   0  0  0  0  0  0  0  0  0  0  0  0
  -11.4834    3.5674   27.7432 C   0  0  0  0  0  0  0  0  0  0  0  0
  -12.3908    3.9887   27.3150 F   0  0  0  0  0  0  0  0  0  0  0  0
  -11.7386    2.0390   27.7842 F   0  0  0  0  0  0  0  0  0  0  0  0
   -7.3349    6.1115   28.0813 O   0  0  0  0  0  0  0  0  0  0  0  0
   -7.1462    1.6134   26.7619 F   0  0  0  0  0  0  0  0  0  0  0  0
  -11.9730    3.9503   28.9510 F   0  0  0  0  0  0  0  0  0  0  0  0
  6  7  1  0
  7  8  1  0
  7  9  1  0
  2 10  1  0
  4 11  1  0
  7 12  1  0
  1  2  2  0
  2  3  1  0
  3  6  2  0
  6  5  1  0
  5  4  2  0
  4  1  1  0
M  END
$$$$
