No_7257-complexes_sdf/6BKW-FPZ/2024-09-17-14-21-01/
     RDKit          3D

 12 13  0  0  0  0  0  0  0  0999 V2000
   -7.2496    3.8871   27.4508 C   0  0  0  0  0  0  0  0  0  0  0  0
   -8.5096    4.0291   27.2770 C   0  0  0  0  0  0  0  0  0  0  0  0
   -9.3451    2.8786   26.9046 C   0  0  0  0  0  0  0  0  0  0  0  0
   -6.6065    2.5680   27.5073 C   0  0  0  0  0  0  0  0  0  0  0  0
   -7.4233    1.4858   27.2402 C   0  0  0  0  0  0  0  0  0  0  0  0
   -8.7362    1.6525   26.9989 C   0  0  0  0  0  0  0  0  0  0  0  0
   -9.0708    5.2843   27.2184 N   0  0  0  0  0  0  0  0  0  0  0  0
   -8.3785    6.4406   27.1380 C   0  0  0  0  0  0  0  0  0  0  0  0
   -7.1185    6.5963   27.3943 C   0  0  0  0  0  0  0  0  0  0  0  0
   -6.4870    5.1502   27.6840 C   0  0  0  0  0  0  0  0  0  0  0  0
   -6.8369    0.3128   27.3485 F   0  0  0  0  0  0  0  0  0  0  0  0
   -9.2051    7.5732   27.0468 N   0  0  0  0  0  0  0  0  0  0  0  0
  5 11  1  0
  8 12  1  0
  2  7  1  0
  7  8  2  0
  8  9  1  0
  9 10  2  0
 10  1  1  0
  1  2  1  0
  2  3  2  0
  3  6  1  0
  6  5  2  0
  5  4  1  0
  4  1  2  0
M  END
$$$$
