No_7370-complexes_sdf/6BKW-FPZ/2024-09-17-14-21-01/
     RDKit          3D

 19 20  0  0  0  0  0  0  0  0999 V2000
   -7.7129    4.2099   27.0854 C   0  0  0  0  0  0  0  0  0  0  0  0
   -8.9133    4.4736   27.0998 C   0  0  0  0  0  0  0  0  0  0  0  0
   -9.7135    3.9633   26.0300 C   0  0  0  0  0  0  0  0  0  0  0  0
   -6.8655    4.8824   28.1822 C   0  0  0  0  0  0  0  0  0  0  0  0
   -9.2221    2.8459   25.3619 C   0  0  0  0  0  0  0  0  0  0  0  0
   -8.0164    2.2957   25.7889 C   0  0  0  0  0  0  0  0  0  0  0  0
   -7.3052    2.9474   26.8072 C   0  0  0  0  0  0  0  0  0  0  0  0
  -10.0330    2.1843   24.3790 C   0  0  0  0  0  0  0  0  0  0  0  0
   -9.7030    1.0090   23.9743 C   0  0  0  0  0  0  0  0  0  0  0  0
  -10.3930    0.3968   22.8930 C   0  0  0  0  0  0  0  0  0  0  0  0
  -11.4366    1.0884   22.2516 C   0  0  0  0  0  0  0  0  0  0  0  0
  -11.0240    2.8835   23.6318 C   0  0  0  0  0  0  0  0  0  0  0  0
  -11.7111    2.3615   22.6418 C   0  0  0  0  0  0  0  0  0  0  0  0
   -9.4620    5.8364   27.5767 C   0  0  0  0  0  0  0  0  0  0  0  0
  -12.0836    0.4740   21.2669 F   0  0  0  0  0  0  0  0  0  0  0  0
  -12.7200    2.9910   21.9955 O   0  0  0  0  0  0  0  0  0  0  0  0
   -6.0815    2.2485   27.3144 C   0  0  0  0  0  0  0  0  0  0  0  0
   -6.1532    1.0980   27.8072 O   0  0  0  0  0  0  0  0  0  0  0  0
   -4.9783    2.9266   27.4747 O   0  0  0  0  0  0  0  0  0  0  0  0
  1  4  1  0
  5  8  1  0
  2 14  1  0
 11 15  1  0
 13 16  1  0
  7 17  1  0
 17 18  2  0
 17 19  1  0
  8  9  2  0
  9 10  1  0
 10 11  2  0
 11 13  1  0
 13 12  2  0
 12  8  1  0
  1  2  2  0
  2  3  1  0
  3  5  2  0
  5  6  1  0
  6  7  2  0
  7  1  1  0
M  END
$$$$
