No_7577-complexes_sdf/6BKW-FPZ/2024-09-17-14-21-01/
     RDKit          3D

 13 13  0  0  0  0  0  0  0  0999 V2000
   -7.7129    4.2099   27.0854 C   0  0  0  0  0  0  0  0  0  0  0  0
   -8.9133    4.4736   27.0998 C   0  0  0  0  0  0  0  0  0  0  0  0
   -9.4643    5.5426   27.7628 C   0  0  0  0  0  0  0  0  0  0  0  0
   -7.2009    2.9448   26.6134 C   0  0  0  0  0  0  0  0  0  0  0  0
   -8.1365    1.9533   26.2981 C   0  0  2  0  0  0  0  0  0  0  0  0
   -7.6295    0.6861   25.9574 C   0  0  0  0  0  0  0  0  0  0  0  0
   -9.8338    3.6042   26.3509 C   0  0  0  0  0  0  0  0  0  0  0  0
  -11.1503    3.9941   26.1392 C   0  0  0  0  0  0  0  0  0  0  0  0
   -9.3825    2.4053   25.9070 C   0  0  0  0  0  0  0  0  0  0  0  0
   -8.2672   -0.3036   26.4408 O   0  0  0  0  0  0  0  0  0  0  0  0
   -7.9662   -1.5137   26.4229 C   0  0  0  0  0  0  0  0  0  0  0  0
   -8.1199   -2.2674   27.5417 C   0  0  0  0  0  0  0  0  0  0  0  0
   -7.6715   -3.5115   27.6891 C   0  0  0  0  0  0  0  0  0  0  0  0
  1  2  1  0
  2  3  2  0
  1  4  1  0
  4  5  1  0
  5  6  1  6
  2  7  1  0
  7  8  1  0
  5  9  1  0
  7  9  1  0
  6 10  1  0
 10 11  1  0
 11 12  2  3
 12 13  1  0
M  END
$$$$
