No_7417-complexes_sdf/6BKW-FPZ/2024-09-17-14-21-01/
     RDKit          3D

 10 10  0  0  0  0  0  0  0  0999 V2000
   -7.9040    3.9820   27.1177 C   0  0  0  0  0  0  0  0  0  0  0  0
   -8.2057    2.8231   26.8733 C   0  0  0  0  0  0  0  0  0  0  0  0
   -7.0130    4.3706   28.1140 C   0  0  0  0  0  0  0  0  0  0  0  0
   -9.4741    2.4344   26.3718 C   0  0  0  0  0  0  0  0  0  0  0  0
   -9.8307    1.1075   26.3102 C   0  0  0  0  0  0  0  0  0  0  0  0
   -8.7244    5.0286   26.5741 C   0  0  0  0  0  0  0  0  0  0  0  0
   -9.8643    4.7666   25.8406 C   0  0  0  0  0  0  0  0  0  0  0  0
  -10.2485    3.4282   25.7875 C   0  0  0  0  0  0  0  0  0  0  0  0
   -9.6997    0.2617   25.3473 C   0  0  0  0  0  0  0  0  0  0  0  0
  -10.0503   -1.0775   25.3506 C   0  0  0  0  0  0  0  0  0  0  0  0
  1  3  1  0
  5  9  1  0
  9 10  2  0
  5  4  1  0
  1  2  2  0
  2  4  1  0
  4  8  2  0
  8  7  1  0
  7  6  2  0
  6  1  1  0
M  END
$$$$
