No_7072-complexes_sdf/6BKW-FPZ/2024-09-17-14-21-01/
     RDKit          3D

 10 10  0  0  0  0  0  0  0  0999 V2000
   -7.9040    3.9820   27.1177 C   0  0  0  0  0  0  0  0  0  0  0  0
   -7.8663    4.8694   27.9238 C   0  0  0  0  0  0  0  0  0  0  0  0
   -7.4698    2.6989   27.4277 C   0  0  0  0  0  0  0  0  0  0  0  0
   -7.9683    1.5964   26.8266 C   0  0  0  0  0  0  0  0  0  0  0  0
   -7.5288    0.3101   27.1202 C   0  0  0  0  0  0  0  0  0  0  0  0
   -8.3245   -0.7895   26.7699 C   0  0  0  0  0  0  0  0  0  0  0  0
   -6.6340    5.4243   28.3189 C   0  0  0  0  0  0  0  0  0  0  0  0
   -9.4012   -0.5513   25.8982 C   0  0  0  0  0  0  0  0  0  0  0  0
   -9.7779    0.7014   25.5428 C   0  0  0  0  0  0  0  0  0  0  0  0
   -9.1235    1.8036   26.0927 C   0  0  0  0  0  0  0  0  0  0  0  0
  1  2  2  3
  1  3  1  0
  3  4  1  0
  2  7  1  0
  4  5  2  0
  5  6  1  0
  6  8  2  0
  8  9  1  0
  9 10  2  0
 10  4  1  0
M  END
$$$$
