No_7435-complexes_sdf/6BKW-FPZ/2024-09-17-14-21-01/
     RDKit          3D

 17 19  0  0  0  0  0  0  0  0999 V2000
   -7.7129    4.2099   27.0854 C   0  0  0  0  0  0  0  0  0  0  0  0
   -7.7814    5.1722   27.8972 C   0  0  0  0  0  0  0  0  0  0  0  0
   -7.2983    2.9533   27.5684 C   0  0  0  0  0  0  0  0  0  0  0  0
   -7.6908    1.8111   26.9553 C   0  0  1  0  0  0  0  0  0  0  0  0
   -8.6533    1.9165   25.9430 C   0  0  0  0  0  0  0  0  0  0  0  0
   -9.2376    3.0581   25.6387 C   0  0  0  0  0  0  0  0  0  0  0  0
   -8.8901    4.1760   26.2867 C   0  0  0  0  0  0  0  0  0  0  0  0
   -8.2313    6.2997   27.8103 N   0  0  0  0  0  0  0  0  0  0  0  0
   -9.2168    6.5979   26.8458 C   0  0  0  0  0  0  0  0  0  0  0  0
   -9.5483    5.4532   26.0021 C   0  0  0  0  0  0  0  0  0  0  0  0
   -7.0247    0.5414   27.2060 C   0  0  0  0  0  0  0  0  0  0  0  0
   -5.7862    0.4825   27.8722 C   0  0  0  0  0  0  0  0  0  0  0  0
   -4.9852    1.6346   28.1977 C   0  0  0  0  0  0  0  0  0  0  0  0
   -5.2561   -0.8339   28.1760 C   0  0  0  0  0  0  0  0  0  0  0  0
   -3.7584    1.3280   28.8026 N   0  0  0  0  0  0  0  0  0  0  0  0
   -4.0691   -0.9948   28.8207 C   0  0  0  0  0  0  0  0  0  0  0  0
   -3.3228    0.2102   29.1339 C   0  0  0  0  0  0  0  0  0  0  0  0
  1  3  1  0
  3  4  1  0
  4  5  1  0
  5  6  1  0
  6  7  1  0
  4 11  1  6
 11 12  1  0
  1  2  2  0
  2  8  1  0
  8  9  2  0
  9 10  1  0
 10  7  2  0
  7  1  1  0
 12 13  2  0
 13 15  1  0
 15 17  2  0
 17 16  1  0
 16 14  2  0
 14 12  1  0
M  END
$$$$
