No_7470-complexes_sdf/6BKW-FPZ/2024-09-17-14-21-01/
     RDKit          3D

 13 14  0  0  0  0  0  0  0  0999 V2000
   -7.7129    4.2099   27.0854 C   0  0  0  0  0  0  0  0  0  0  0  0
   -8.2112    3.0637   26.9225 C   0  0  0  0  0  0  0  0  0  0  0  0
   -8.4224    5.2106   27.8516 C   0  0  0  0  0  0  0  0  0  0  0  0
   -9.3720    2.7081   27.2300 C   0  0  0  0  0  0  0  0  0  0  0  0
   -9.7994    4.9763   28.0403 C   0  0  0  0  0  0  0  0  0  0  0  0
  -10.2691    3.6888   27.7912 C   0  0  0  0  0  0  0  0  0  0  0  0
  -11.6882    3.3446   28.1338 C   0  0  0  0  0  0  0  0  0  0  0  0
  -11.9273    2.1860   28.7629 C   0  0  0  0  0  0  0  0  0  0  0  0
  -12.6562    4.2842   27.8818 C   0  0  0  0  0  0  0  0  0  0  0  0
  -13.2229    1.9107   29.2451 C   0  0  0  0  0  0  0  0  0  0  0  0
  -13.9814    4.0959   28.3134 C   0  0  0  0  0  0  0  0  0  0  0  0
  -14.2551    2.8972   28.9637 C   0  0  0  0  0  0  0  0  0  0  0  0
   -7.1245    1.7796   26.3402 Cl  0  0  0  0  0  0  0  0  0  0  0  0
  6  7  1  0
  2 13  1  0
  1  2  2  0
  2  4  1  0
  4  6  2  0
  6  5  1  0
  5  3  2  0
  3  1  1  0
  7  8  2  0
  8 10  1  0
 10 12  2  0
 12 11  1  0
 11  9  2  0
  9  7  1  0
M  END
$$$$
