No_7683-complexes_sdf/6BKW-FPZ/2024-09-17-14-21-01/
     RDKit          3D

 18 18  0  0  0  0  0  0  0  0999 V2000
   -7.7129    4.2099   27.0854 C   0  0  0  0  0  0  0  0  0  0  0  0
   -7.7814    5.1722   27.8972 C   0  0  0  0  0  0  0  0  0  0  0  0
   -7.3155    2.9700   27.6145 C   0  0  0  0  0  0  0  0  0  0  0  0
   -6.0554    2.7539   27.5147 C   0  0  0  0  0  0  0  0  0  0  0  0
   -5.4642    1.4850   27.9980 C   0  0  0  0  0  0  0  0  0  0  0  0
   -8.2273    6.5427   27.4044 C   0  0  0  0  0  0  0  0  0  0  0  0
   -6.2219    0.3468   28.0080 C   0  0  0  0  0  0  0  0  0  0  0  0
   -8.9371    6.5995   26.2305 C   0  0  2  0  0  0  0  0  0  0  0  0
   -7.6255    0.5222   27.6686 C   0  0  0  0  0  0  0  0  0  0  0  0
   -8.1700    1.8187   27.4343 C   0  0  0  0  0  0  0  0  0  0  0  0
   -8.4850    4.3147   25.9494 N   0  0  0  0  0  0  0  0  0  0  0  0
   -9.1224    5.4158   25.5691 C   0  0  2  0  0  0  0  0  0  0  0  0
   -9.8803    5.1246   24.4958 N   0  0  0  0  0  0  0  0  0  0  0  0
   -9.3824    7.7020   25.7354 O   0  0  0  0  0  0  0  0  0  0  0  0
   -9.3825    7.4179   25.7525 Cl  0  0  0  0  0  0  0  0  0  0  0  0
   -9.2047    5.6335   26.8634 Cl  0  0  0  0  0  0  0  0  0  0  0  0
   -8.1574    4.9835   24.8795 O   0  0  0  0  0  0  0  0  0  0  0  0
   -9.0596    4.0302   24.1751 C   0  0  0  0  0  0  0  0  0  0  0  0
  1  2  1  0
  1  3  1  0
  2  6  2  3
  6  8  1  0
  1 11  2  3
 11 12  1  0
 12 13  1  0
  8 14  1  0
 14 15  1  0
  8 16  1  1
 12 17  1  6
 13 18  1  0
  3  4  2  0
  4  5  1  0
  5  7  2  0
  7  9  1  0
  9 10  2  0
 10  3  1  0
M  END
$$$$
