No_7246-complexes_sdf/6BKW-FPZ/2024-09-17-14-21-01/
     RDKit          3D

 12 13  0  0  0  0  0  0  0  0999 V2000
   -7.9040    3.9820   27.1177 C   0  0  0  0  0  0  0  0  0  0  0  0
   -7.8663    4.8694   27.9238 C   0  0  0  0  0  0  0  0  0  0  0  0
   -9.0806    3.1428   27.1220 C   0  0  0  0  0  0  0  0  0  0  0  0
   -9.1366    1.9856   26.2314 C   0  0  0  0  0  0  0  0  0  0  0  0
   -8.9896    5.4789   28.4964 C   0  0  0  0  0  0  0  0  0  0  0  0
  -10.1971    4.7487   28.3835 C   0  0  0  0  0  0  0  0  0  0  0  0
  -10.2153    3.6197   27.6096 C   0  0  0  0  0  0  0  0  0  0  0  0
   -8.6296    0.7951   26.7459 C   0  0  0  0  0  0  0  0  0  0  0  0
   -8.6655   -0.4028   25.9815 C   0  0  0  0  0  0  0  0  0  0  0  0
  -10.0779    1.7700   25.2377 C   0  0  0  0  0  0  0  0  0  0  0  0
  -10.0678    0.7029   24.3868 C   0  0  0  0  0  0  0  0  0  0  0  0
   -9.4196   -0.4408   24.8505 C   0  0  0  0  0  0  0  0  0  0  0  0
  3  4  1  0
  4  8  2  0
  8  9  1  0
  9 12  2  0
 12 11  1  0
 11 10  2  0
 10  4  1  0
  1  2  2  0
  2  5  1  0
  5  6  2  0
  6  7  1  0
  7  3  2  0
  3  1  1  0
M  END
$$$$
