No_7324-complexes_sdf/6BKW-FPZ/2024-09-17-14-21-01/
     RDKit          3D

 20 21  0  0  0  0  0  0  0  0999 V2000
   -7.2496    3.8871   27.4508 C   0  0  0  0  0  0  0  0  0  0  0  0
   -7.9379    4.9063   27.8518 C   0  0  0  0  0  0  0  0  0  0  0  0
   -9.3376    4.8647   27.7795 C   0  0  0  0  0  0  0  0  0  0  0  0
   -7.8544    2.6294   27.0414 C   0  0  0  0  0  0  0  0  0  0  0  0
   -9.2852    2.6570   27.0666 C   0  0  0  0  0  0  0  0  0  0  0  0
  -10.1181    6.0955   28.1802 C   0  0  0  0  0  0  0  0  0  0  0  0
  -10.0705    3.7682   27.4229 C   0  0  0  0  0  0  0  0  0  0  0  0
   -7.1673    1.5880   26.7313 N   0  0  0  0  0  0  0  0  0  0  0  0
   -7.2134    0.3962   27.3886 C   0  0  0  0  0  0  0  0  0  0  0  0
   -6.1386   -0.4927   27.2211 C   0  0  1  0  0  0  0  0  0  0  0  0
   -5.1506   -0.2438   27.0698 C   0  0  0  0  0  0  0  0  0  0  0  0
   -4.1676    0.1052   27.7987 C   0  0  0  0  0  0  0  0  0  0  0  0
   -2.7988    0.5269   27.5193 C   0  0  0  0  0  0  0  0  0  0  0  0
   -2.3694    0.2852   26.5814 C   0  0  0  0  0  0  0  0  0  0  0  0
   -3.1645   -0.3798   25.4912 C   0  0  0  0  0  0  0  0  0  0  0  0
   -4.4942   -0.6063   25.7598 C   0  0  0  0  0  0  0  0  0  0  0  0
   -6.6281   -1.8538   27.5676 C   0  0  0  0  0  0  0  0  0  0  0  0
   -7.6881   -2.1305   28.0840 N   0  0  0  0  0  0  0  0  0  0  0  0
   -7.8587   -2.5459   29.3121 C   0  0  0  0  0  0  0  0  0  0  0  0
   -9.2255   -2.6954   29.8747 C   0  0  0  0  0  0  0  0  0  0  0  0
  3  6  1  0
  4  8  1  0
  8  9  1  0
 10  9  1  1
 10 11  1  0
 10 17  1  0
 17 18  1  0
 18 19  1  0
 19 20  2  0
 11 12  2  0
 12 13  1  0
 13 14  2  0
 14 15  1  0
 15 16  2  0
 16 11  1  0
  1  2  2  0
  2  3  1  0
  3  7  2  0
  7  5  1  0
  5  4  2  0
  4  1  1  0
M  END
$$$$
