No_7466-complexes_sdf/6BKW-FPZ/2024-09-17-14-21-01/
     RDKit          3D

  8  8  0  0  0  0  0  0  0  0999 V2000
   -7.9040    3.9820   27.1177 C   0  0  0  0  0  0  0  0  0  0  0  0
   -7.8663    4.8694   27.9238 C   0  0  0  0  0  0  0  0  0  0  0  0
   -7.4698    2.6989   27.4277 C   0  0  0  0  0  0  0  0  0  0  0  0
   -7.9683    1.5964   26.8266 C   0  0  0  0  0  0  0  0  0  0  0  0
   -8.9292    1.8436   25.8401 C   0  0  0  0  0  0  0  0  0  0  0  0
   -9.3947    3.0355   25.5467 C   0  0  0  0  0  0  0  0  0  0  0  0
   -8.9159    4.1263   26.2219 C   0  0  0  0  0  0  0  0  0  0  0  0
   -7.0214    5.0220   28.9421 N   0  0  0  0  0  0  0  0  0  0  0  0
  2  8  2  0
  2  1  1  0
  1  3  2  0
  3  4  1  0
  4  5  2  0
  5  6  1  0
  6  7  2  0
  7  1  1  0
M  END
$$$$
