No_7514-complexes_sdf/6BKW-FPZ/2024-09-17-14-21-01/
     RDKit          3D

 19 19  0  0  0  0  0  0  0  0999 V2000
   -7.2496    3.8871   27.4508 C   0  0  0  0  0  0  0  0  0  0  0  0
   -7.9379    4.9063   27.8518 C   0  0  0  0  0  0  0  0  0  0  0  0
   -9.3376    4.8647   27.7795 C   0  0  0  0  0  0  0  0  0  0  0  0
   -7.8544    2.6294   27.0414 C   0  0  0  0  0  0  0  0  0  0  0  0
   -9.2665    2.6175   27.0340 C   0  0  0  0  0  0  0  0  0  0  0  0
   -9.9836    3.7042   27.4150 C   0  0  0  0  0  0  0  0  0  0  0  0
   -6.7635    1.3852   26.7109 Cl  0  0  0  0  0  0  0  0  0  0  0  0
  -11.4497    3.5998   27.4537 C   0  0  0  0  0  0  0  0  0  0  0  0
  -11.9050    3.5408   28.4864 F   0  0  0  0  0  0  0  0  0  0  0  0
  -11.9501    4.7256   26.8070 F   0  0  0  0  0  0  0  0  0  0  0  0
  -11.9255    2.5747   26.6785 F   0  0  0  0  0  0  0  0  0  0  0  0
   -7.3356    6.0698   28.1938 O   0  0  0  0  0  0  0  0  0  0  0  0
   -9.8160    1.4541   26.7866 O   0  0  0  0  0  0  0  0  0  0  0  0
   -8.9934    0.4003   27.1144 C   0  0  0  0  0  0  0  0  0  0  0  0
   -9.6950   -0.9758   26.9557 C   0  0  0  0  0  0  0  0  0  0  0  0
  -10.8217   -1.0213   26.5650 C   0  0  0  0  0  0  0  0  0  0  0  0
  -11.6842   -1.3495   27.2695 C   0  0  0  0  0  0  0  0  0  0  0  0
  -11.4822   -2.2308   28.4103 C   0  0  0  0  0  0  0  0  0  0  0  0
  -12.4213   -2.5665   29.3502 C   0  0  0  0  0  0  0  0  0  0  0  0
  4  7  1  0
  6  8  1  0
  8  9  1  0
  8 10  1  0
  8 11  1  0
  2 12  1  0
  5 13  1  0
 13 14  1  0
 14 15  1  0
 15 16  1  0
 16 17  2  3
 17 18  1  0
 18 19  2  0
  1  2  2  0
  2  3  1  0
  3  6  2  0
  6  5  1  0
  5  4  2  0
  4  1  1  0
M  END
$$$$
