No_7664-complexes_sdf/6BKW-FPZ/2024-09-17-14-21-01/
     RDKit          3D

 40 42  0  0  0  0  0  0  0  0999 V2000
   -7.2496    3.8871   27.4508 C   0  0  0  0  0  0  0  0  0  0  0  0
   -7.9379    4.9063   27.8518 C   0  0  0  0  0  0  0  0  0  0  0  0
   -9.3460    4.8223   27.8695 C   0  0  0  0  0  0  0  0  0  0  0  0
   -7.8628    2.6163   27.1065 C   0  0  0  0  0  0  0  0  0  0  0  0
   -9.2787    2.5744   27.1970 C   0  0  0  0  0  0  0  0  0  0  0  0
  -10.0108    3.6770   27.6340 C   0  0  0  0  0  0  0  0  0  0  0  0
  -11.4487    3.3729   27.7139 C   0  0  0  0  0  0  0  0  0  0  0  0
  -12.3457    4.0577   27.9549 C   0  0  0  0  0  0  0  0  0  0  0  0
  -13.7388    3.8000   28.1272 C   0  0  0  0  0  0  0  0  0  0  0  0
  -14.0890    2.5168   27.8621 C   0  0  0  0  0  0  0  0  0  0  0  0
  -12.0029    2.0491   27.5776 C   0  0  0  0  0  0  0  0  0  0  0  0
  -13.1943    1.6313   27.6913 C   0  0  0  0  0  0  0  0  0  0  0  0
   -7.1287    1.5776   26.7801 N   0  0  0  0  0  0  0  0  0  0  0  0
   -7.1358    0.4432   27.4956 C   0  0  0  0  0  0  0  0  0  0  0  0
   -6.0274   -0.4368   27.3276 C   0  0  0  0  0  0  0  0  0  0  0  0
   -4.9419    0.0700   27.8005 C   0  0  0  0  0  0  0  0  0  0  0  0
   -3.2526   -0.1608   27.3453 Br  0  0  0  0  0  0  0  0  0  0  0  0
   -7.3770    6.1282   28.1069 O   0  0  0  0  0  0  0  0  0  0  0  0
   -4.9923    0.9777   28.9486 O   0  0  0  0  0  0  0  0  0  0  0  0
  -15.8444    2.1211   28.0131 S   0  0  0  0  0  0  0  0  0  0  0  0
  -16.1390    1.1543   27.1810 O   0  0  0  0  0  0  0  0  0  0  0  0
  -16.0056    1.7547   29.5748 N   0  0  0  0  0  0  0  0  0  0  0  0
  -16.3818    3.4600   27.7528 O   0  0  0  0  0  0  0  0  0  0  0  0
  -15.8076    0.5441   30.1013 C   0  0  0  0  0  0  0  0  0  0  0  0
  -15.0851    0.5620   31.1513 C   0  0  0  0  0  0  0  0  0  0  0  0
  -15.3990    1.0676   32.2984 C   0  0  1  0  0  0  0  0  0  0  0  0
  -15.1187    1.9380   32.8104 C   0  0  0  0  0  0  0  0  0  0  0  0
  -15.6343    2.5691   34.1093 C   0  0  0  0  0  0  0  0  0  0  0  0
  -15.1345    3.7911   34.7154 C   0  0  0  0  0  0  0  0  0  0  0  0
  -14.0722    4.5187   34.0553 C   0  0  0  0  0  0  0  0  0  0  0  0
  -13.5405    3.9861   32.8577 C   0  0  0  0  0  0  0  0  0  0  0  0
  -13.9947    2.8787   32.3062 C   0  0  0  0  0  0  0  0  0  0  0  0
  -13.5287    5.7444   34.6454 C   0  0  0  0  0  0  0  0  0  0  0  0
  -14.1459    6.5837   35.1292 N   0  0  0  0  0  0  0  0  0  0  0  0
  -12.2331    5.6298   34.9727 O   0  0  0  0  0  0  0  0  0  0  0  0
  -16.5783    0.2464   32.7964 C   0  0  0  0  0  0  0  0  0  0  0  0
  -16.3696   -0.7742   33.6618 C   0  0  0  0  0  0  0  0  0  0  0  0
  -15.0244   -1.1264   33.9812 C   0  0  0  0  0  0  0  0  0  0  0  0
  -14.7039   -2.4222   34.1897 C   0  0  0  0  0  0  0  0  0  0  0  0
  -13.3397   -2.8186   34.5653 C   0  0  0  0  0  0  0  0  0  0  0  0
  6  7  1  0
  4 13  1  0
 13 14  1  0
 14 15  1  0
 15 16  1  0
 16 17  1  0
  2 18  1  0
 16 19  2  0
 10 20  1  0
 20 21  2  0
 20 22  1  0
 20 23  2  0
 22 24  1  0
 24 25  1  0
 26 25  1  6
 30 33  1  0
 33 34  1  0
 33 35  2  0
 26 36  1  0
 36 37  2  3
 37 38  1  0
 38 39  2  3
 39 40  1  0
 26 27  1  0
  7  8  2  0
  8  9  1  0
  9 10  2  0
 10 12  1  0
 12 11  2  0
 11  7  1  0
 27 28  2  0
 28 29  1  0
 29 30  2  0
 30 31  1  0
 31 32  2  0
 32 27  1  0
  1  2  2  0
  2  3  1  0
  3  6  2  0
  6  5  1  0
  5  4  2  0
  4  1  1  0
M  END
$$$$
