No_7744-complexes_sdf/6BKW-FPZ/2024-09-17-14-21-01/
     RDKit          3D

 28 30  0  0  0  0  0  0  0  0999 V2000
   -7.9040    3.9820   27.1177 C   0  0  0  0  0  0  0  0  0  0  0  0
   -9.0711    4.3164   27.0630 C   0  0  0  0  0  0  0  0  0  0  0  0
   -9.5182    5.5541   27.5777 C   0  0  0  0  0  0  0  0  0  0  0  0
   -7.4468    2.6843   26.6499 C   0  0  0  0  0  0  0  0  0  0  0  0
   -8.3856    1.7878   26.2216 C   0  0  0  0  0  0  0  0  0  0  0  0
   -9.6812    2.2328   26.0889 C   0  0  0  0  0  0  0  0  0  0  0  0
  -10.0147    3.4312   26.5259 C   0  0  0  0  0  0  0  0  0  0  0  0
   -7.9132    0.4733   25.8127 C   0  0  0  0  0  0  0  0  0  0  0  0
   -7.2363   -0.3021   26.6221 N   0  0  0  0  0  0  0  0  0  0  0  0
   -7.2634   -0.1431   27.8768 C   0  0  0  0  0  0  0  0  0  0  0  0
   -6.3552   -1.2627   26.0584 C   0  0  0  0  0  0  0  0  0  0  0  0
  -10.7177    5.6984   28.0979 F   0  0  0  0  0  0  0  0  0  0  0  0
   -9.3762    6.6835   26.7132 F   0  0  0  0  0  0  0  0  0  0  0  0
   -8.6363    6.0374   28.6277 F   0  0  0  0  0  0  0  0  0  0  0  0
   -8.2159    0.1473   24.6421 O   0  0  0  0  0  0  0  0  0  0  0  0
   -6.6763   -1.2682   28.6994 C   0  0  0  0  0  0  0  0  0  0  0  0
   -5.8181   -2.3010   26.8485 C   0  0  0  0  0  0  0  0  0  0  0  0
   -5.8594   -2.1714   28.1964 C   0  0  0  0  0  0  0  0  0  0  0  0
   -5.3066   -3.1895   29.1021 C   0  0  0  0  0  0  0  0  0  0  0  0
   -3.8247   -3.8204   29.0202 Br  0  0  0  0  0  0  0  0  0  0  0  0
   -6.2286   -3.6547   30.1725 C   0  0  0  0  0  0  0  0  0  0  0  0
   -6.2518   -2.9447   31.2925 C   0  0  0  0  0  0  0  0  0  0  0  0
   -5.1569   -2.2888   31.8447 C   0  0  0  0  0  0  0  0  0  0  0  0
   -4.9596   -1.4334   32.4639 C   0  0  0  0  0  0  0  0  0  0  0  0
   -3.7102   -0.7633   33.0342 C   0  0  0  0  0  0  0  0  0  0  0  0
   -2.5500   -1.2305   32.3120 C   0  0  0  0  0  0  0  0  0  0  0  0
   -2.7200   -2.1541   31.3447 C   0  0  0  0  0  0  0  0  0  0  0  0
   -3.9669   -2.6269   31.0380 C   0  0  0  0  0  0  0  0  0  0  0  0
  2  3  1  0
  5  8  1  0
  8  9  1  0
  9 10  1  0
  9 11  1  0
  3 12  1  0
  3 13  1  0
  3 14  1  0
  8 15  2  0
 16 18  1  0
 17 18  1  0
 18 19  1  0
 19 20  1  0
 19 21  1  0
 21 22  1  0
 22 23  1  0
 10 16  1  0
 17 11  1  0
 23 24  2  0
 24 25  1  0
 25 26  2  0
 26 27  1  0
 27 28  2  0
 28 23  1  0
  1  2  2  0
  2  7  1  0
  7  6  2  0
  6  5  1  0
  5  4  2  0
  4  1  1  0
M  END
$$$$
