No_77-complexes_sdf/6BKW-FPZ/2024-09-17-14-21-01/
     RDKit          3D

 29 30  0  0  0  0  0  0  0  0999 V2000
   -7.2496    3.8871   27.4508 C   0  0  0  0  0  0  0  0  0  0  0  0
   -7.6161    2.7143   27.1523 C   0  0  0  0  0  0  0  0  0  0  0  0
   -8.6211    2.2239   26.4073 C   0  0  0  0  0  0  0  0  0  0  0  0
   -8.2540    4.9237   27.1711 C   0  0  0  0  0  0  0  0  0  0  0  0
   -9.3729    4.5806   26.4432 C   0  0  0  0  0  0  0  0  0  0  0  0
   -9.5830    3.2968   26.1025 C   0  0  0  0  0  0  0  0  0  0  0  0
   -7.9455    6.2273   27.5101 N   0  0  0  0  0  0  0  0  0  0  0  0
   -8.8657    0.8930   26.0612 C   0  0  2  0  0  0  0  0  0  0  0  0
   -9.2251    0.0310   26.9890 C   0  0  0  0  0  0  0  0  0  0  0  0
   -9.4508    0.5026   28.3950 C   0  0  0  0  0  0  0  0  0  0  0  0
   -9.4435   -1.3896   26.7518 C   0  0  0  0  0  0  0  0  0  0  0  0
   -8.2887    7.2917   26.7087 C   0  0  0  0  0  0  0  0  0  0  0  0
  -10.0436   -2.0832   27.5015 C   0  0  0  0  0  0  0  0  0  0  0  0
  -10.3876   -1.6961   28.9008 C   0  0  0  0  0  0  0  0  0  0  0  0
  -10.1851   -0.3915   29.2343 C   0  0  0  0  0  0  0  0  0  0  0  0
   -8.5772    0.5268   24.7454 C   0  0  0  0  0  0  0  0  0  0  0  0
   -7.6090   -0.2216   24.5874 F   0  0  0  0  0  0  0  0  0  0  0  0
   -8.3533    1.6608   23.9551 F   0  0  0  0  0  0  0  0  0  0  0  0
   -9.7088   -0.0319   24.1166 F   0  0  0  0  0  0  0  0  0  0  0  0
  -11.0650   -2.5817   29.8601 C   0  0  0  0  0  0  0  0  0  0  0  0
  -12.1410   -2.2849   30.3395 N   0  0  0  0  0  0  0  0  0  0  0  0
  -13.1611   -2.8750   30.2678 C   0  0  0  0  0  0  0  0  0  0  0  0
  -14.3841   -2.3234   30.7915 C   0  0  0  0  0  0  0  0  0  0  0  0
  -14.2677   -1.1232   31.1917 C   0  0  0  0  0  0  0  0  0  0  0  0
  -14.6320   -0.1022   30.7634 C   0  0  0  0  0  0  0  0  0  0  0  0
  -15.4071    0.0669   29.7229 C   0  0  0  0  0  0  0  0  0  0  0  0
  -15.8904    1.2978   29.2212 C   0  0  0  0  0  0  0  0  0  0  0  0
  -15.3210    2.4664   29.7655 C   0  0  0  0  0  0  0  0  0  0  0  0
  -14.4332    2.4557   30.8338 C   0  0  0  0  0  0  0  0  0  0  0  0
  4  7  1  0
  3  8  1  0
  7 12  1  0
  8 16  1  1
 16 17  1  0
 16 18  1  0
 16 19  1  0
 14 20  1  0
 20 21  1  0
 21 22  1  0
 22 23  1  0
 23 24  2  3
 24 25  1  0
 25 26  2  3
 26 27  1  0
 27 28  2  3
 28 29  1  0
  8  9  1  0
  9 10  2  0
 10 15  1  0
 15 14  2  0
 14 13  1  0
 13 11  2  0
 11  9  1  0
  1  2  2  0
  2  3  1  0
  3  6  2  0
  6  5  1  0
  5  4  2  0
  4  1  1  0
M  END
$$$$
