No_718-complexes_sdf/6BKW-FPZ/2024-09-17-14-21-01/
     RDKit          3D

 16 17  0  0  0  0  0  0  0  0999 V2000
   -7.9040    3.9820   27.1177 C   0  0  0  0  0  0  0  0  0  0  0  0
   -8.2057    2.8231   26.8733 C   0  0  0  0  0  0  0  0  0  0  0  0
   -7.0130    4.3706   28.1140 C   0  0  0  0  0  0  0  0  0  0  0  0
   -7.4093    1.7370   27.3857 C   0  0  0  0  0  0  0  0  0  0  0  0
   -6.1712    2.1248   28.0064 C   0  0  0  0  0  0  0  0  0  0  0  0
   -5.9967    3.4283   28.2944 N   0  0  0  0  0  0  0  0  0  0  0  0
   -8.8842    5.1070   26.7371 C   0  0  0  0  0  0  0  0  0  0  0  0
   -9.5504    4.9518   25.5726 N   0  0  0  0  0  0  0  0  0  0  0  0
   -5.2739    1.2241   28.3958 N   0  0  0  0  0  0  0  0  0  0  0  0
   -8.8617    6.2677   27.2044 O   0  0  0  0  0  0  0  0  0  0  0  0
   -5.4075   -0.1219   28.2910 C   0  0  0  0  0  0  0  0  0  0  0  0
   -4.3667   -0.9242   28.8257 C   0  0  0  0  0  0  0  0  0  0  0  0
   -4.4589   -2.2142   28.9679 C   0  0  0  0  0  0  0  0  0  0  0  0
   -5.6126   -2.8360   28.4140 C   0  0  0  0  0  0  0  0  0  0  0  0
   -6.6313   -2.1075   27.8432 C   0  0  0  0  0  0  0  0  0  0  0  0
   -6.5310   -0.7265   27.8669 C   0  0  0  0  0  0  0  0  0  0  0  0
  1  7  1  0
  7  8  1  0
  5  9  1  0
  7 10  2  0
  9 11  1  0
  1  2  2  0
  2  4  1  0
  4  5  2  0
  5  6  1  0
  6  3  2  0
  3  1  1  0
 11 12  2  0
 12 13  1  0
 13 14  2  0
 14 15  1  0
 15 16  2  0
 16 11  1  0
M  END
$$$$
