No_7429-complexes_sdf/6BKW-FPZ/2024-09-17-14-21-01/
     RDKit          3D

 40 43  0  0  0  0  0  0  0  0999 V2000
   -7.9040    3.9820   27.1177 C   0  0  0  0  0  0  0  0  0  0  0  0
   -8.2057    2.8231   26.8733 C   0  0  0  0  0  0  0  0  0  0  0  0
   -8.7463    4.9537   27.6708 C   0  0  0  0  0  0  0  0  0  0  0  0
   -8.3921    6.3606   27.8466 C   0  0  0  0  0  0  0  0  0  0  0  0
   -7.2888    1.7783   26.5516 C   0  0  0  0  0  0  0  0  0  0  0  0
   -9.6170    2.4478   26.9133 C   0  0  0  0  0  0  0  0  0  0  0  0
  -10.0145    1.0885   26.6299 C   0  0  0  0  0  0  0  0  0  0  0  0
   -7.7092    0.4776   26.4219 C   0  0  0  0  0  0  0  0  0  0  0  0
   -9.0297    0.1335   26.4796 C   0  0  0  0  0  0  0  0  0  0  0  0
   -8.6756    7.2131   26.7171 C   0  0  0  0  0  0  0  0  0  0  0  0
   -9.7542    4.4532   28.5323 C   0  0  0  0  0  0  0  0  0  0  0  0
  -10.3799    3.2124   27.9431 C   0  0  0  0  0  0  0  0  0  0  0  0
  -11.6649    2.7564   28.4240 C   0  0  0  0  0  0  0  0  0  0  0  0
  -11.9036    1.5483   28.7441 C   0  0  0  0  0  0  0  0  0  0  0  0
  -13.1105    1.0913   29.2821 C   0  0  0  0  0  0  0  0  0  0  0  0
  -14.0518    2.0773   29.6011 C   0  0  0  0  0  0  0  0  0  0  0  0
  -12.6357    3.7572   28.8557 C   0  0  0  0  0  0  0  0  0  0  0  0
  -13.7768    3.4011   29.4164 C   0  0  0  0  0  0  0  0  0  0  0  0
   -6.6766   -0.5136   25.9855 C   0  0  0  0  0  0  0  0  0  0  0  0
   -5.6461   -0.6835   26.5330 O   0  0  0  0  0  0  0  0  0  0  0  0
   -7.0669   -1.4299   25.1580 O   0  0  0  0  0  0  0  0  0  0  0  0
  -15.5678    1.5631   30.3056 Cl  0  0  0  0  0  0  0  0  0  0  0  0
   -9.6346    7.2193   26.1979 F   0  0  0  0  0  0  0  0  0  0  0  0
   -7.5123    7.2811   25.9369 F   0  0  0  0  0  0  0  0  0  0  0  0
   -8.4654    8.5731   27.1897 F   0  0  0  0  0  0  0  0  0  0  0  0
  -14.9317    4.6275   29.9017 Cl  0  0  0  0  0  0  0  0  0  0  0  0
   -4.5696   -1.4585   26.1782 C   0  0  0  0  0  0  0  0  0  0  0  0
   -3.3317   -0.8128   26.4158 C   0  0  1  0  0  0  0  0  0  0  0  0
   -3.3648    0.4767   27.0231 C   0  0  0  0  0  0  0  0  0  0  0  0
   -3.2087    0.4261   28.3250 O   0  0  0  0  0  0  0  0  0  0  0  0
   -4.2673    0.9711   29.1876 C   0  0  0  0  0  0  0  0  0  0  0  0
   -2.5780   -1.6232   27.3445 O   0  0  0  0  0  0  0  0  0  0  0  0
   -4.3111    0.1114   30.4238 C   0  0  0  0  0  0  0  0  0  0  0  0
   -3.3115    0.0600   31.1719 C   0  0  0  0  0  0  0  0  0  0  0  0
   -3.3655   -0.7179   32.4372 C   0  0  0  0  0  0  0  0  0  0  0  0
   -4.6347   -1.1854   32.8509 C   0  0  0  0  0  0  0  0  0  0  0  0
   -5.7082   -1.1103   31.9308 C   0  0  0  0  0  0  0  0  0  0  0  0
   -5.5358   -0.4879   30.7734 C   0  0  0  0  0  0  0  0  0  0  0  0
   -4.7964   -1.8354   34.1783 C   0  0  0  0  0  0  0  0  0  0  0  0
   -4.4545   -1.2366   35.1656 N   0  0  0  0  0  0  0  0  0  0  0  0
  3  4  1  0
  4 10  1  0
 12 13  1  0
  8 19  1  0
 19 20  1  0
 19 21  2  0
 16 22  1  0
 10 23  1  0
 10 24  1  0
 10 25  1  0
 18 26  1  0
 20 27  1  0
 27 28  1  0
 28 29  1  0
 29 30  1  0
 30 31  1  0
 28 32  1  1
 31 33  1  0
 36 39  1  0
 39 40  2  0
  1  2  2  0
  6 12  2  0
 12 11  1  0
 11  3  2  0
  3  1  1  0
 33 34  2  0
 34 35  1  0
 35 36  2  0
 36 37  1  0
 37 38  2  0
 38 33  1  0
  2  5  1  0
  5  8  2  0
  8  9  1  0
  9  7  2  0
  7  6  1  0
  6  2  1  0
 13 14  2  0
 14 15  1  0
 15 16  2  0
 16 18  1  0
 18 17  2  0
 17 13  1  0
M  END
$$$$
