No_7493-complexes_sdf/6BKW-FPZ/2024-09-17-14-21-01/
     RDKit          3D

 40 44  0  0  0  0  0  0  0  0999 V2000
   -7.9040    3.9820   27.1177 C   0  0  0  0  0  0  0  0  0  0  0  0
   -8.2057    2.8231   26.8733 C   0  0  0  0  0  0  0  0  0  0  0  0
   -8.7695    5.0740   26.7916 C   0  0  0  0  0  0  0  0  0  0  0  0
   -8.4337    6.4678   27.0913 C   0  0  0  0  0  0  0  0  0  0  0  0
   -9.3742    2.4311   26.2346 C   0  0  0  0  0  0  0  0  0  0  0  0
  -10.2395    3.4267   25.8887 C   0  0  0  0  0  0  0  0  0  0  0  0
   -9.9567    4.7548   26.1374 C   0  0  0  0  0  0  0  0  0  0  0  0
   -7.8881    6.8714   28.1602 N   0  0  0  0  0  0  0  0  0  0  0  0
   -8.5586    7.3431   26.1372 O   0  0  0  0  0  0  0  0  0  0  0  0
   -7.0959    1.5054   27.3676 Cl  0  0  0  0  0  0  0  0  0  0  0  0
  -11.4777    3.1124   25.1375 C   0  0  0  0  0  0  0  0  0  0  0  0
  -12.5412    2.6342   25.8380 C   0  0  0  0  0  0  0  0  0  0  0  0
  -12.4220    2.5215   27.2732 C   0  0  0  0  0  0  0  0  0  0  0  0
  -13.5524    1.9681   28.0476 C   0  0  0  0  0  0  0  0  0  0  0  0
  -13.4020    1.7643   29.4500 C   0  0  0  0  0  0  0  0  0  0  0  0
  -12.2769    2.3716   30.0372 C   0  0  0  0  0  0  0  0  0  0  0  0
  -11.2953    2.9913   29.2571 C   0  0  0  0  0  0  0  0  0  0  0  0
  -11.3771    3.0590   27.9774 C   0  0  0  0  0  0  0  0  0  0  0  0
  -11.4813    3.2471   23.7263 C   0  0  0  0  0  0  0  0  0  0  0  0
  -10.6961    3.1777   22.9581 C   0  0  0  0  0  0  0  0  0  0  0  0
  -10.7025    3.4193   21.5223 C   0  0  0  0  0  0  0  0  0  0  0  0
  -11.9067    3.7961   21.0068 C   0  0  0  0  0  0  0  0  0  0  0  0
  -12.7864    3.7439   23.1332 C   0  0  0  0  0  0  0  0  0  0  0  0
  -12.9400    3.9945   21.8362 C   0  0  0  0  0  0  0  0  0  0  0  0
  -14.4622    1.1877   30.2338 C   0  0  0  0  0  0  0  0  0  0  0  0
  -15.4138    0.9982   29.7409 O   0  0  0  0  0  0  0  0  0  0  0  0
  -14.0074    0.4788   31.3718 N   0  0  0  0  0  0  0  0  0  0  0  0
  -14.9020   -0.2974   32.2145 C   0  0  0  0  0  0  0  0  0  0  0  0
  -15.3308    0.1323   33.2319 C   0  0  0  0  0  0  0  0  0  0  0  0
  -14.7586    1.1581   33.9043 C   0  0  0  0  0  0  0  0  0  0  0  0
  -15.1377    1.7153   35.1857 C   0  0  0  0  0  0  0  0  0  0  0  0
  -16.2255    1.0618   35.7624 C   0  0  0  0  0  0  0  0  0  0  0  0
  -16.8194    0.0289   35.1856 C   0  0  0  0  0  0  0  0  0  0  0  0
  -16.3811   -0.4402   33.9870 C   0  0  0  0  0  0  0  0  0  0  0  0
  -15.0323   -1.4089   31.6472 O   0  0  0  0  0  0  0  0  0  0  0  0
  -16.6677    1.6309   37.1136 C   0  0  0  0  0  0  0  0  0  0  0  0
  -15.8542    2.4222   37.7456 C   0  0  0  0  0  0  0  0  0  0  0  0
  -14.7288    3.0490   37.0107 C   0  0  0  0  0  0  0  0  0  0  0  0
  -14.2929    2.6564   35.8393 C   0  0  0  0  0  0  0  0  0  0  0  0
  -13.0980    3.2522   35.2452 C   0  0  0  0  0  0  0  0  0  0  0  0
  3  4  1  0
  4  8  1  0
  4  9  2  0
  2 10  1  0
  6 11  1  0
 11 12  2  3
 12 13  1  0
 11 19  1  0
 15 25  1  0
 25 26  2  0
 25 27  1  0
 27 28  1  0
 28 29  1  0
 28 35  2  0
 39 40  1  0
 32 36  2  0
 36 37  1  0
 37 38  2  0
 38 39  1  0
 39 31  2  0
  1  2  2  0
  2  5  1  0
  5  6  2  0
  6  7  1  0
  7  3  2  0
  3  1  1  0
 19 20  2  0
 20 21  1  0
 21 22  2  0
 22 24  1  0
 24 23  2  0
 23 19  1  0
 29 30  2  0
 30 31  1  0
 31 32  1  0
 32 33  1  0
 33 34  2  0
 34 29  1  0
 13 14  2  0
 14 15  1  0
 15 16  2  0
 16 17  1  0
 17 18  2  0
 18 13  1  0
M  END
$$$$
