No_7488-complexes_sdf/6BKW-FPZ/2024-09-17-14-21-01/
     RDKit          3D

 32 34  0  0  0  0  0  0  0  0999 V2000
   -7.9040    3.9820   27.1177 C   0  0  0  0  0  0  0  0  0  0  0  0
   -8.2057    2.8231   26.8733 C   0  0  0  0  0  0  0  0  0  0  0  0
   -8.7695    5.0740   26.7916 C   0  0  0  0  0  0  0  0  0  0  0  0
   -9.9618    4.7598   26.1630 C   0  0  0  0  0  0  0  0  0  0  0  0
   -9.4200    2.4524   26.2849 C   0  0  0  0  0  0  0  0  0  0  0  0
  -10.2590    3.4815   25.9250 C   0  0  0  0  0  0  0  0  0  0  0  0
   -8.3837    6.4702   27.0872 C   0  0  0  0  0  0  0  0  0  0  0  0
   -7.7610    6.8612   28.1191 N   0  0  0  0  0  0  0  0  0  0  0  0
   -8.7123    7.4222   26.1970 N   0  0  0  0  0  0  0  0  0  0  0  0
   -7.2736    1.6738   27.2797 C   0  0  0  0  0  0  0  0  0  0  0  0
   -6.0077    1.9782   27.8320 C   0  0  0  0  0  0  0  0  0  0  0  0
   -5.1166    0.9100   28.1870 C   0  0  0  0  0  0  0  0  0  0  0  0
   -5.5044   -0.3829   28.0619 C   0  0  0  0  0  0  0  0  0  0  0  0
   -7.5868    0.3289   27.1852 C   0  0  0  0  0  0  0  0  0  0  0  0
   -6.7874   -0.6470   27.6185 C   0  0  0  0  0  0  0  0  0  0  0  0
   -4.4896   -1.2312   28.5639 N   0  0  0  0  0  0  0  0  0  0  0  0
   -4.4806   -2.2456   28.9546 C   0  0  0  0  0  0  0  0  0  0  0  0
   -5.6233   -2.8443   29.3395 C   0  0  0  0  0  0  0  0  0  0  0  0
   -3.1025   -0.5211   28.2832 C   0  0  0  0  0  0  0  0  0  0  0  0
   -5.7108   -4.2001   29.5307 C   0  0  0  0  0  0  0  0  0  0  0  0
   -2.4626   -1.0129   27.1776 C   0  0  0  0  0  0  0  0  0  0  0  0
   -6.9388   -4.7204   29.9935 C   0  0  0  0  0  0  0  0  0  0  0  0
   -8.0873   -3.9186   30.2135 C   0  0  0  0  0  0  0  0  0  0  0  0
   -8.0034   -2.5399   30.0593 C   0  0  0  0  0  0  0  0  0  0  0  0
   -6.8578   -2.0000   29.7088 C   0  0  0  0  0  0  0  0  0  0  0  0
   -3.5489   -3.0843   28.7843 O   0  0  0  0  0  0  0  0  0  0  0  0
   -2.1612    0.1241   26.2596 C   0  0  0  0  0  0  0  0  0  0  0  0
   -2.1563   -2.2443   26.8657 C   0  0  0  0  0  0  0  0  0  0  0  0
   -2.3741    1.3256   26.7011 O   0  0  0  0  0  0  0  0  0  0  0  0
   -0.8035   -2.6050   26.9846 C   0  0  0  0  0  0  0  0  0  0  0  0
   -0.3940   -3.9143   26.5244 C   0  0  0  0  0  0  0  0  0  0  0  0
   -1.3317   -4.7487   26.0724 C   0  0  0  0  0  0  0  0  0  0  0  0
  3  7  1  0
  7  8  2  0
  7  9  1  0
  2 10  1  0
 13 16  1  0
 16 17  1  0
 17 18  1  0
 16 19  1  0
 19 21  1  0
 17 26  2  0
 21 27  1  0
 21 28  1  0
 27 29  1  0
 28 30  2  3
 30 31  1  0
 31 32  2  0
 10 11  2  0
 11 12  1  0
 12 13  2  0
 13 15  1  0
 15 14  2  0
 14 10  1  0
 18 20  2  0
 20 22  1  0
 22 23  2  0
 23 24  1  0
 24 25  2  0
 25 18  1  0
  1  2  2  0
  2  5  1  0
  5  6  2  0
  6  4  1  0
  4  3  2  0
  3  1  1  0
M  END
$$$$
