No_7531-complexes_sdf/6BKW-FPZ/2024-09-17-14-21-01/
     RDKit          3D

 40 44  0  0  0  0  0  0  0  0999 V2000
   -7.7129    4.2099   27.0854 C   0  0  0  0  0  0  0  0  0  0  0  0
   -8.2112    3.0637   26.9225 C   0  0  0  0  0  0  0  0  0  0  0  0
   -8.5108    5.3904   26.9436 C   0  0  0  0  0  0  0  0  0  0  0  0
   -7.9752    6.6981   27.2112 C   0  0  0  0  0  0  0  0  0  0  0  0
   -9.5213    2.8208   26.4688 C   0  0  0  0  0  0  0  0  0  0  0  0
  -10.2979    3.9327   26.2378 C   0  0  0  0  0  0  0  0  0  0  0  0
   -9.7894    5.2123   26.4395 C   0  0  0  0  0  0  0  0  0  0  0  0
   -7.3384    1.8199   27.1767 C   0  0  0  0  0  0  0  0  0  0  0  0
   -6.0583    2.0002   27.7739 C   0  0  0  0  0  0  0  0  0  0  0  0
   -5.2561    0.8407   28.0452 C   0  0  0  0  0  0  0  0  0  0  0  0
   -5.7395   -0.4126   27.8436 C   0  0  0  0  0  0  0  0  0  0  0  0
   -7.8579    0.5289   26.9944 C   0  0  0  0  0  0  0  0  0  0  0  0
   -7.0614   -0.5592   27.3310 C   0  0  0  0  0  0  0  0  0  0  0  0
   -8.6386    7.8064   26.8281 N   0  0  0  0  0  0  0  0  0  0  0  0
   -3.9269    1.0795   28.6296 C   0  0  0  0  0  0  0  0  0  0  0  0
   -3.1889    0.3134   28.8697 O   0  0  0  0  0  0  0  0  0  0  0  0
   -6.7814    6.8369   27.7946 N   0  0  0  0  0  0  0  0  0  0  0  0
   -3.8412    2.2795   29.2709 O   0  0  0  0  0  0  0  0  0  0  0  0
  -11.6283    3.7918   25.6693 C   0  0  0  0  0  0  0  0  0  0  0  0
  -12.7176    3.5498   26.4837 C   0  0  0  0  0  0  0  0  0  0  0  0
  -13.9850    3.6513   26.0467 C   0  0  0  0  0  0  0  0  0  0  0  0
  -11.8061    3.8610   24.2751 C   0  0  0  0  0  0  0  0  0  0  0  0
  -13.0784    3.8907   23.7419 C   0  0  0  0  0  0  0  0  0  0  0  0
  -15.0900    3.4829   26.9148 C   0  0  0  0  0  0  0  0  0  0  0  0
  -14.1585    3.8096   24.6358 C   0  0  0  0  0  0  0  0  0  0  0  0
  -14.8399    2.9482   28.1295 C   0  0  0  0  0  0  0  0  0  0  0  0
  -13.4630    2.9808   28.6617 C   0  0  0  0  0  0  0  0  0  0  0  0
  -12.4404    3.2624   27.8960 C   0  0  0  0  0  0  0  0  0  0  0  0
  -13.2445    2.6073   30.1356 C   0  0  0  0  0  0  0  0  0  0  0  0
  -12.9219    3.4939   31.0179 N   0  0  0  0  0  0  0  0  0  0  0  0
  -13.3379    3.4404   32.3367 C   0  0  0  0  0  0  0  0  0  0  0  0
  -13.0250    4.6130   33.0852 C   0  0  0  0  0  0  0  0  0  0  0  0
  -14.2660    2.6407   32.6640 N   0  0  0  0  0  0  0  0  0  0  0  0
  -13.2478    4.5032   34.5734 C   0  0  0  0  0  0  0  0  0  0  0  0
  -14.2673    3.6194   34.9473 C   0  0  0  0  0  0  0  0  0  0  0  0
  -14.6971    2.6042   34.0284 C   0  0  0  0  0  0  0  0  0  0  0  0
  -13.3669    1.3932   30.3974 O   0  0  0  0  0  0  0  0  0  0  0  0
  -12.7508    5.5353   35.4443 C   0  0  0  0  0  0  0  0  0  0  0  0
  -13.4666    6.3580   36.2042 C   0  0  0  0  0  0  0  0  0  0  0  0
  -14.8712    6.3775   36.2461 C   0  0  0  0  0  0  0  0  0  0  0  0
  3  4  1  0
  2  8  1  0
  4 14  2  0
 10 15  1  0
 15 16  2  0
  4 17  1  0
 15 18  1  0
  6 19  1  0
 27 29  1  0
 29 30  1  0
 30 31  1  0
 29 37  2  0
 34 38  1  0
 38 39  2  3
 39 40  1  0
 19 20  2  0
 21 25  2  0
 25 23  1  0
 23 22  2  0
 22 19  1  0
  1  2  2  0
  2  5  1  0
  5  6  2  0
  6  7  1  0
  7  3  2  0
  3  1  1  0
 31 32  2  0
 32 34  1  0
 34 35  2  0
 35 36  1  0
 36 33  2  0
 33 31  1  0
 20 21  1  0
 21 24  1  0
 24 26  2  0
 26 27  1  0
 27 28  2  0
 28 20  1  0
  8  9  2  0
  9 10  1  0
 10 11  2  0
 11 13  1  0
 13 12  2  0
 12  8  1  0
M  END
$$$$
