No_7788-complexes_sdf/6BKW-FPZ/2024-09-17-14-21-01/
     RDKit          3D

 35 38  0  0  0  0  0  0  0  0999 V2000
   -7.2496    3.8871   27.4508 C   0  0  0  0  0  0  0  0  0  0  0  0
   -8.5096    4.0291   27.2770 C   0  0  0  0  0  0  0  0  0  0  0  0
   -9.3451    2.8786   26.9046 C   0  0  0  0  0  0  0  0  0  0  0  0
   -6.6065    2.5680   27.5073 C   0  0  0  0  0  0  0  0  0  0  0  0
   -7.4233    1.4858   27.2402 C   0  0  0  0  0  0  0  0  0  0  0  0
   -8.7362    1.6525   26.9989 C   0  0  0  0  0  0  0  0  0  0  0  0
   -9.1023    5.3710   27.2131 C   0  0  2  0  0  0  0  0  0  0  0  0
   -8.3463    6.4776   26.8511 C   0  0  0  0  0  0  0  0  0  0  0  0
   -8.0710    7.5882   27.5432 C   0  0  0  0  0  0  0  0  0  0  0  0
   -7.2449    8.5639   26.8409 C   0  0  0  0  0  0  0  0  0  0  0  0
   -6.7875    0.1763   27.2983 C   0  0  0  0  0  0  0  0  0  0  0  0
   -5.5403    0.0222   27.8009 C   0  0  0  0  0  0  0  0  0  0  0  0
   -4.9508   -1.2378   27.9136 C   0  0  0  0  0  0  0  0  0  0  0  0
   -5.6349   -2.2996   27.3548 C   0  0  0  0  0  0  0  0  0  0  0  0
   -7.2699   -1.0421   26.8847 C   0  0  0  0  0  0  0  0  0  0  0  0
   -6.7861   -2.1968   26.8729 C   0  0  0  0  0  0  0  0  0  0  0  0
  -10.7484    5.5861   27.6725 Cl  0  0  0  0  0  0  0  0  0  0  0  0
   -3.5492   -1.3184   28.5374 C   0  0  0  0  0  0  0  0  0  0  0  0
   -2.6017   -0.9317   27.8213 C   0  0  0  0  0  0  0  0  0  0  0  0
   -2.6827   -0.1703   26.5891 C   0  0  0  0  0  0  0  0  0  0  0  0
   -3.4327   -0.0599   25.8962 C   0  0  0  0  0  0  0  0  0  0  0  0
   -4.1180   -1.1942   25.3836 C   0  0  0  0  0  0  0  0  0  0  0  0
   -4.9959   -1.0716   24.1949 C   0  0  0  0  0  0  0  0  0  0  0  0
   -3.5658   -2.5228   25.4503 C   0  0  0  0  0  0  0  0  0  0  0  0
   -4.0260   -3.5574   24.6245 C   0  0  0  0  0  0  0  0  0  0  0  0
   -5.5147   -2.0726   23.4533 C   0  0  0  0  0  0  0  0  0  0  0  0
   -4.9803   -3.3401   23.6996 C   0  0  0  0  0  0  0  0  0  0  0  0
   -3.5624   -1.8883   29.8485 C   0  0  1  0  0  0  0  0  0  0  0  0
   -4.2361   -2.5303   30.4064 C   0  0  0  0  0  0  0  0  0  0  0  0
   -4.1455   -2.9433   31.8267 C   0  0  0  0  0  0  0  0  0  0  0  0
   -5.1537   -3.5239   32.6103 C   0  0  0  0  0  0  0  0  0  0  0  0
   -6.3714   -3.7931   31.8795 C   0  0  0  0  0  0  0  0  0  0  0  0
   -6.5480   -3.4808   30.5763 C   0  0  0  0  0  0  0  0  0  0  0  0
   -5.5413   -2.8043   29.9074 C   0  0  0  0  0  0  0  0  0  0  0  0
   -2.0294   -2.2443   30.0992 C   0  0  0  0  0  0  0  0  0  0  0  0
  2  7  1  0
  7  8  1  0
  8  9  2  3
  9 10  1  0
  5 11  1  0
  7 17  1  1
 13 18  1  0
 18 19  2  3
 19 20  1  0
 20 21  2  3
 21 22  1  0
 18 28  1  0
 28 35  1  6
 28 29  1  0
 29 30  2  0
 30 31  1  0
 31 32  2  0
 32 33  1  0
 33 34  2  0
 34 29  1  0
  1  2  2  0
  2  3  1  0
  3  6  2  0
  6  5  1  0
  5  4  2  0
  4  1  1  0
 22 23  2  0
 23 26  1  0
 26 27  2  0
 27 25  1  0
 25 24  2  0
 24 22  1  0
 11 12  2  0
 12 13  1  0
 13 14  2  0
 14 16  1  0
 16 15  2  0
 15 11  1  0
M  END
$$$$
