No_7386-complexes_sdf/6BKW-FPZ/2024-09-17-14-21-01/
     RDKit          3D

 13 14  0  0  0  0  0  0  0  0999 V2000
   -7.2496    3.8871   27.4508 C   0  0  0  0  0  0  0  0  0  0  0  0
   -7.6161    2.7143   27.1523 C   0  0  0  0  0  0  0  0  0  0  0  0
   -8.6212    2.2239   26.4073 C   0  0  0  0  0  0  0  0  0  0  0  0
   -8.2540    4.9237   27.1711 C   0  0  0  0  0  0  0  0  0  0  0  0
   -9.3729    4.5806   26.4433 C   0  0  0  0  0  0  0  0  0  0  0  0
   -9.5830    3.2969   26.1026 C   0  0  0  0  0  0  0  0  0  0  0  0
   -7.9332    6.3206   27.5425 C   0  0  0  0  0  0  0  0  0  0  0  0
   -8.2192    7.3208   26.9018 N   0  0  0  0  0  0  0  0  0  0  0  0
   -8.8850    0.8883   26.0496 C   0  0  0  0  0  0  0  0  0  0  0  0
   -9.2298    0.5687   24.9643 C   0  0  0  0  0  0  0  0  0  0  0  0
   -9.4781    1.5954   23.9433 C   0  0  0  0  0  0  0  0  0  0  0  0
   -9.9420    2.9010   24.4884 C   0  0  0  0  0  0  0  0  0  0  0  0
   -6.9629    6.4194   28.4606 O   0  0  0  0  0  0  0  0  0  0  0  0
  4  7  1  0
  7  8  1  0
  7 13  2  0
  6 12  2  0
 12 11  1  0
 11 10  2  0
 10  9  1  0
  9  3  2  0
  1  2  2  0
  2  3  1  0
  3  6  1  0
  6  5  1  0
  5  4  2  0
  4  1  1  0
M  END
$$$$
