No_7412-complexes_sdf/6BKW-FPZ/2024-09-17-14-21-01/
     RDKit          3D

 16 18  0  0  0  0  0  0  0  0999 V2000
   -7.9040    3.9820   27.1177 C   0  0  0  0  0  0  0  0  0  0  0  0
   -8.2057    2.8231   26.8733 C   0  0  0  0  0  0  0  0  0  0  0  0
   -8.7695    5.0740   26.7916 C   0  0  0  0  0  0  0  0  0  0  0  0
   -9.9618    4.7598   26.1630 C   0  0  0  0  0  0  0  0  0  0  0  0
   -7.3763    1.7038   27.3414 C   0  0  0  0  0  0  0  0  0  0  0  0
   -9.3929    2.3436   26.2895 C   0  0  0  0  0  0  0  0  0  0  0  0
   -9.7136    1.0280   26.0594 C   0  0  0  0  0  0  0  0  0  0  0  0
  -10.2726    3.4092   25.8703 C   0  0  0  0  0  0  0  0  0  0  0  0
   -7.5565    0.3577   27.1939 C   0  0  0  0  0  0  0  0  0  0  0  0
   -8.8107    0.0290   26.5469 C   0  0  0  0  0  0  0  0  0  0  0  0
   -8.4198    6.5088   27.0444 C   0  0  0  0  0  0  0  0  0  0  0  0
   -7.9912    7.6105   26.9877 N   0  0  0  0  0  0  0  0  0  0  0  0
   -6.6787   -0.6282   27.6739 C   0  0  0  0  0  0  0  0  0  0  0  0
   -5.3935   -0.2277   28.0777 C   0  0  0  0  0  0  0  0  0  0  0  0
   -5.0973    1.1667   28.0573 C   0  0  0  0  0  0  0  0  0  0  0  0
   -5.9617    2.1018   27.7772 C   0  0  0  0  0  0  0  0  0  0  0  0
  2  5  1  0
  6  7  1  0
  7 10  1  0
  9 10  1  0
  3 11  1  0
 11 12  3  0
  5  9  2  0
  9 13  1  0
 13 14  2  0
 14 15  1  0
 15 16  2  0
 16  5  1  0
  1  2  2  0
  2  6  1  0
  6  8  2  0
  8  4  1  0
  4  3  2  0
  3  1  1  0
M  END
$$$$
