No_7463-complexes_sdf/6BKW-FPZ/2024-09-17-14-21-01/
     RDKit          3D

 11 10  0  0  0  0  0  0  0  0999 V2000
   -7.9040    3.9820   27.1177 C   0  0  2  0  0  0  0  0  0  0  0  0
   -9.0711    4.3164   27.0630 C   0  0  1  0  0  0  0  0  0  0  0  0
   -9.5294    5.4517   27.7215 C   0  0  0  0  0  0  0  0  0  0  0  0
   -9.9845    3.5634   26.2189 C   0  0  0  0  0  0  0  0  0  0  0  0
  -10.5758    2.5046   26.7628 C   0  0  0  0  0  0  0  0  0  0  0  0
   -7.4508    2.8716   26.6807 F   0  0  0  0  0  0  0  0  0  0  0  0
  -10.6429    2.3236   28.1084 C   0  0  0  0  0  0  0  0  0  0  0  0
  -11.2875    1.1935   28.7502 C   0  0  0  0  0  0  0  0  0  0  0  0
   -6.9297    4.6943   28.0676 C   0  0  0  0  0  0  0  0  0  0  0  0
  -11.8633    0.5981   28.1383 C   0  0  0  0  0  0  0  0  0  0  0  0
  -11.9986    0.5070   26.7103 C   0  0  0  0  0  0  0  0  0  0  0  0
  1  2  1  0
  2  3  1  6
  2  4  1  0
  4  5  2  3
  1  6  1  0
  5  7  1  0
  7  8  2  3
  1  9  1  1
  8 10  1  0
 10 11  2  0
M  END
$$$$
