No_7309-complexes_sdf/6BKW-FPZ/2024-09-17-14-21-01/
     RDKit          3D

 18 20  0  0  0  0  0  0  0  0999 V2000
   -7.7129    4.2099   27.0854 C   0  0  0  0  0  0  0  0  0  0  0  0
   -7.7814    5.1722   27.8972 C   0  0  0  0  0  0  0  0  0  0  0  0
   -7.3155    2.9700   27.6145 C   0  0  0  0  0  0  0  0  0  0  0  0
   -7.1760    1.9119   26.6708 C   0  0  0  0  0  0  0  0  0  0  0  0
   -8.2064    1.7989   25.7513 C   0  0  0  0  0  0  0  0  0  0  0  0
   -8.2722    0.6220   24.9621 C   0  0  0  0  0  0  0  0  0  0  0  0
   -8.5368    6.3555   27.5630 C   0  0  0  0  0  0  0  0  0  0  0  0
   -9.1573    2.8437   25.5410 C   0  0  0  0  0  0  0  0  0  0  0  0
   -8.9156    4.1170   26.2168 C   0  0  0  0  0  0  0  0  0  0  0  0
   -9.5818    5.2347   25.9036 C   0  0  0  0  0  0  0  0  0  0  0  0
   -9.3890    6.4275   26.5283 C   0  0  0  0  0  0  0  0  0  0  0  0
   -7.5241   -0.4130   25.2553 C   0  0  0  0  0  0  0  0  0  0  0  0
   -7.5088   -1.5649   24.4304 C   0  0  0  0  0  0  0  0  0  0  0  0
   -8.3550   -1.5671   23.2978 C   0  0  0  0  0  0  0  0  0  0  0  0
   -9.0763    0.5271   23.7829 C   0  0  0  0  0  0  0  0  0  0  0  0
   -9.1020   -0.4930   22.9846 C   0  0  0  0  0  0  0  0  0  0  0  0
  -10.2111   -0.5748   21.4622 Br  0  0  0  0  0  0  0  0  0  0  0  0
  -10.1168    2.7878   24.7387 O   0  0  0  0  0  0  0  0  0  0  0  0
  1  3  1  0
  4  5  1  0
  5  6  1  0
  5  8  1  0
  8  9  1  0
 16 17  1  0
  8 18  2  0
  4  3  1  0
  1  2  2  0
  2  7  1  0
  7 11  2  0
 11 10  1  0
 10  9  2  0
  9  1  1  0
  6 12  2  0
 12 13  1  0
 13 14  2  0
 14 16  1  0
 16 15  2  0
 15  6  1  0
M  END
$$$$
