No_781-complexes_sdf/6BKW-FPZ/2024-09-17-14-21-01/
     RDKit          3D

 17 19  0  0  0  0  0  0  0  0999 V2000
   -7.2496    3.8871   27.4508 C   0  0  0  0  0  0  0  0  0  0  0  0
   -7.6161    2.7143   27.1523 C   0  0  0  0  0  0  0  0  0  0  0  0
   -7.1618    1.8631   27.5232 C   0  0  0  0  0  0  0  0  0  0  0  0
   -8.0384    5.0866   27.3232 C   0  0  0  0  0  0  0  0  0  0  0  0
   -9.1224    5.1097   26.4856 C   0  0  0  0  0  0  0  0  0  0  0  0
   -8.9186    2.6660   26.4794 C   0  0  0  0  0  0  0  0  0  0  0  0
   -9.6149    3.8296   26.1383 C   0  0  0  0  0  0  0  0  0  0  0  0
   -5.7127    1.8472   28.0328 C   0  0  0  0  0  0  0  0  0  0  0  0
   -5.2653    3.1750   28.0840 N   0  0  0  0  0  0  0  0  0  0  0  0
   -5.9022    4.0780   28.0385 C   0  0  0  0  0  0  0  0  0  0  0  0
  -10.8683    3.6083   25.4190 C   0  0  0  0  0  0  0  0  0  0  0  0
  -10.8543    3.0998   24.2101 C   0  0  0  0  0  0  0  0  0  0  0  0
   -9.6131    2.6350   23.6150 C   0  0  0  0  0  0  0  0  0  0  0  0
   -9.5437    1.9810   22.3909 C   0  0  0  0  0  0  0  0  0  0  0  0
  -10.6764    2.0163   21.5576 C   0  0  0  0  0  0  0  0  0  0  0  0
  -11.8763    2.5735   22.0001 C   0  0  0  0  0  0  0  0  0  0  0  0
  -11.9383    3.1269   23.2635 C   0  0  0  0  0  0  0  0  0  0  0  0
  7 11  1  0
 11 12  1  0
 12 13  2  0
 13 14  1  0
 14 15  2  0
 15 16  1  0
 16 17  2  0
 17 12  1  0
  2  6  1  0
  6  7  2  0
  7  5  1  0
  5  4  2  0
  4  1  1  0
  1  2  1  0
  2  3  2  0
  3  8  1  0
  8  9  2  0
  9 10  1  0
 10  1  2  0
M  END
$$$$
