No_766-complexes_sdf/6BKW-FPZ/2024-09-17-14-21-01/
     RDKit          3D

 11 12  0  0  0  0  0  0  0  0999 V2000
   -7.9040    3.9820   27.1177 C   0  0  0  0  0  0  0  0  0  0  0  0
   -9.0711    4.3164   27.0630 C   0  0  0  0  0  0  0  0  0  0  0  0
   -9.9692    3.7224   26.1073 C   0  0  0  0  0  0  0  0  0  0  0  0
   -6.9787    4.6761   28.1003 C   0  0  0  0  0  0  0  0  0  0  0  0
  -11.1978    4.2793   25.7845 C   0  0  0  0  0  0  0  0  0  0  0  0
   -7.5998    5.7639   28.6199 N   0  0  0  0  0  0  0  0  0  0  0  0
   -8.8859    5.6276   27.8686 C   0  0  0  0  0  0  0  0  0  0  0  0
   -9.5705    2.6062   25.4196 C   0  0  0  0  0  0  0  0  0  0  0  0
  -10.3494    2.0708   24.3787 C   0  0  0  0  0  0  0  0  0  0  0  0
  -12.0237    3.8085   24.8308 C   0  0  0  0  0  0  0  0  0  0  0  0
  -11.6021    2.6945   24.1043 C   0  0  0  0  0  0  0  0  0  0  0  0
  1  2  2  0
  2  3  1  0
  1  4  1  0
  4  6  2  0
  2  7  1  0
  6  7  1  0
  3  5  2  0
  5 10  1  0
 10 11  2  0
 11  9  1  0
  9  8  2  0
  8  3  1  0
M  END
$$$$
