No_7227-complexes_sdf/6BKW-FPZ/2024-09-17-14-21-01/
     RDKit          3D

 24 27  0  0  0  0  0  0  0  0999 V2000
   -7.9040    3.9820   27.1177 C   0  0  0  0  0  0  0  0  0  0  0  0
   -9.0711    4.3164   27.0630 C   0  0  0  0  0  0  0  0  0  0  0  0
   -9.8698    3.9665   25.9494 C   0  0  0  0  0  0  0  0  0  0  0  0
   -7.0332    4.5030   28.2025 C   0  0  0  0  0  0  0  0  0  0  0  0
   -9.4357    2.9501   25.1393 C   0  0  0  0  0  0  0  0  0  0  0  0
   -8.2567    2.3218   25.4797 C   0  0  0  0  0  0  0  0  0  0  0  0
   -7.5105    2.7966   26.5752 C   0  0  0  0  0  0  0  0  0  0  0  0
  -10.2472    2.5204   24.0264 C   0  0  0  0  0  0  0  0  0  0  0  0
  -10.5935    3.4337   22.9918 C   0  0  0  0  0  0  0  0  0  0  0  0
  -11.0560    3.0889   21.7619 C   0  0  0  0  0  0  0  0  0  0  0  0
  -11.1640    1.6856   21.4603 C   0  0  0  0  0  0  0  0  0  0  0  0
  -10.1868    1.1976   23.5300 C   0  0  0  0  0  0  0  0  0  0  0  0
  -10.6663    0.7940   22.3167 C   0  0  0  0  0  0  0  0  0  0  0  0
   -7.3731    5.7789   28.7898 C   0  0  0  0  0  0  0  0  0  0  0  0
   -8.5559    6.4256   28.1092 C   0  0  0  0  0  0  0  0  0  0  0  0
   -9.4433    5.6906   27.3088 C   0  0  0  0  0  0  0  0  0  0  0  0
  -10.5523    4.9502   23.2962 C   0  0  0  0  0  0  0  0  0  0  0  0
  -10.7376   -0.6545   21.9420 C   0  0  0  0  0  0  0  0  0  0  0  0
  -10.9634   -1.0466   20.7999 C   0  0  0  0  0  0  0  0  0  0  0  0
  -10.9788   -2.4090   20.4319 C   0  0  0  0  0  0  0  0  0  0  0  0
  -10.6323   -3.3195   21.3968 C   0  0  0  0  0  0  0  0  0  0  0  0
  -10.3109   -2.9445   22.6253 C   0  0  0  0  0  0  0  0  0  0  0  0
  -10.2936   -1.6151   22.9802 C   0  0  0  0  0  0  0  0  0  0  0  0
  -10.7000   -4.6169   21.0101 F   0  0  0  0  0  0  0  0  0  0  0  0
  5  8  1  0
  9 17  1  0
 13 18  1  0
 21 24  1  0
  2 16  1  0
 16 15  2  0
 15 14  1  0
 14  4  2  0
  4  1  1  0
  8  9  2  0
  9 10  1  0
 10 11  2  0
 11 13  1  0
 13 12  2  0
 12  8  1  0
 18 19  2  0
 19 20  1  0
 20 21  2  0
 21 22  1  0
 22 23  2  0
 23 18  1  0
  1  2  1  0
  2  3  2  0
  3  5  1  0
  5  6  2  0
  6  7  1  0
  7  1  2  0
M  END
$$$$
