No_7611-complexes_sdf/6BKW-FPZ/2024-09-17-14-21-01/
     RDKit          3D

 17 18  0  0  0  0  0  0  0  0999 V2000
   -7.7129    4.2099   27.0854 C   0  0  0  0  0  0  0  0  0  0  0  0
   -7.7814    5.1722   27.8972 C   0  0  0  0  0  0  0  0  0  0  0  0
   -7.3155    2.9699   27.6145 C   0  0  0  0  0  0  0  0  0  0  0  0
   -6.9774    2.0071   26.9623 C   0  0  0  0  0  0  0  0  0  0  0  0
   -6.2970    0.8917   27.5555 C   0  0  0  0  0  0  0  0  0  0  0  0
   -5.1754    1.2230   28.2612 C   0  0  0  0  0  0  0  0  0  0  0  0
   -4.1146    0.8030   28.0733 C   0  0  0  0  0  0  0  0  0  0  0  0
   -3.8825   -0.4411   27.3909 C   0  0  0  0  0  0  0  0  0  0  0  0
   -4.9938   -0.9106   26.6536 C   0  0  0  0  0  0  0  0  0  0  0  0
   -6.1775   -0.2143   26.6793 C   0  0  0  0  0  0  0  0  0  0  0  0
   -8.5615    6.3233   27.9643 C   0  0  0  0  0  0  0  0  0  0  0  0
   -9.6629    6.2328   26.9922 C   0  0  0  0  0  0  0  0  0  0  0  0
   -8.8839    4.2000   26.2411 C   0  0  0  0  0  0  0  0  0  0  0  0
   -9.7314    5.2282   26.1188 C   0  0  0  0  0  0  0  0  0  0  0  0
   -7.7456    1.6877   25.8831 O   0  0  0  0  0  0  0  0  0  0  0  0
   -2.4060   -1.2788   27.3926 Cl  0  0  0  0  0  0  0  0  0  0  0  0
   -6.7404    5.3864   28.8539 O   0  0  0  0  0  0  0  0  0  0  0  0
  3  4  1  0
  4  5  1  0
  4 15  2  0
  8 16  1  0
  2 17  1  0
  3  1  1  0
  5  6  2  0
  6  7  1  0
  7  8  2  0
  8  9  1  0
  9 10  2  0
 10  5  1  0
  1  2  2  0
  2 11  1  0
 11 12  2  0
 12 14  1  0
 14 13  2  0
 13  1  1  0
M  END
$$$$
