No_7438-complexes_sdf/6BKW-FPZ/2024-09-17-14-21-01/
     RDKit          3D

 37 41  0  0  0  0  0  0  0  0999 V2000
   -7.7129    4.2099   27.0854 C   0  0  0  0  0  0  0  0  0  0  0  0
   -7.7814    5.1722   27.8972 C   0  0  0  0  0  0  0  0  0  0  0  0
   -8.8998    3.8713   26.3707 C   0  0  0  0  0  0  0  0  0  0  0  0
   -9.9938    4.6774   26.5446 C   0  0  0  0  0  0  0  0  0  0  0  0
   -8.7789    6.1536   27.9256 C   0  0  0  0  0  0  0  0  0  0  0  0
   -9.9428    5.8398   27.2296 C   0  0  0  0  0  0  0  0  0  0  0  0
   -8.9119    2.6447   25.5685 C   0  0  0  0  0  0  0  0  0  0  0  0
   -9.7965    2.5353   24.5160 C   0  0  0  0  0  0  0  0  0  0  0  0
   -9.8470    1.4006   23.7115 C   0  0  0  0  0  0  0  0  0  0  0  0
  -10.6585    1.3440   22.5449 C   0  0  0  0  0  0  0  0  0  0  0  0
  -10.6450    0.2404   21.6844 C   0  0  0  0  0  0  0  0  0  0  0  0
   -9.7375   -0.8210   21.9656 C   0  0  0  0  0  0  0  0  0  0  0  0
   -8.8852   -0.7584   23.0280 C   0  0  0  0  0  0  0  0  0  0  0  0
   -8.8745    0.3416   23.8862 C   0  0  0  0  0  0  0  0  0  0  0  0
   -8.1331    1.5430   25.9891 C   0  0  0  0  0  0  0  0  0  0  0  0
   -8.0206    0.3853   25.0777 C   0  0  0  0  0  0  0  0  0  0  0  0
   -7.1224   -0.6707   25.4264 C   0  0  0  0  0  0  0  0  0  0  0  0
   -7.5180   -1.4559   26.2301 O   0  0  0  0  0  0  0  0  0  0  0  0
   -6.0932   -0.7923   24.7310 O   0  0  0  0  0  0  0  0  0  0  0  0
   -6.6196    5.5932   28.5999 O   0  0  0  0  0  0  0  0  0  0  0  0
  -11.5291    0.1559   20.5341 C   0  0  0  0  0  0  0  0  0  0  0  0
  -11.3087   -0.5634   19.5890 N   0  0  0  0  0  0  0  0  0  0  0  0
  -12.0823   -0.5213   18.4321 C   0  0  1  0  0  0  0  0  0  0  0  0
  -12.9517    0.4389   18.3409 C   0  0  2  0  0  0  0  0  0  0  0  0
  -12.5562    1.1059   20.1408 C   0  0  1  0  0  0  0  0  0  0  0  0
  -11.9487   -1.3637   17.3740 F   0  0  0  0  0  0  0  0  0  0  0  0
  -13.7920    1.0965   20.7660 C   0  0  0  0  0  0  0  0  0  0  0  0
  -14.8747    1.6293   20.1192 C   0  0  0  0  0  0  0  0  0  0  0  0
  -15.3114    1.2550   18.7851 C   0  0  0  0  0  0  0  0  0  0  0  0
  -14.2180    0.7459   17.8778 C   0  0  0  0  0  0  0  0  0  0  0  0
  -12.0849    2.4643   19.8104 C   0  0  0  0  0  0  0  0  0  0  0  0
   -8.0939   -1.2583   27.2933 C   0  0  0  0  0  0  0  0  0  0  0  0
   -9.4173   -1.0549   27.3414 C   0  0  0  0  0  0  0  0  0  0  0  0
  -10.0896   -1.2664   28.3196 C   0  0  0  0  0  0  0  0  0  0  0  0
  -11.5464   -0.9765   28.3593 C   0  0  0  0  0  0  0  0  0  0  0  0
  -12.0905   -0.3556   27.2384 C   0  0  0  0  0  0  0  0  0  0  0  0
  -11.3564   -0.1027   26.1450 C   0  0  0  0  0  0  0  0  0  0  0  0
  3  7  1  0
 16 17  1  0
 17 18  1  0
 17 19  2  0
  2 20  1  0
 11 21  1  0
 21 22  2  0
 22 23  1  0
 21 25  1  0
 24 25  1  0
 23 26  1  6
 25 27  1  0
 28 29  1  0
 24 30  1  1
 25 31  1  6
 18 32  1  0
 32 33  2  3
 33 34  1  0
 34 35  2  3
 35 36  1  0
 36 37  2  0
 23 24  1  0
 30 29  1  0
 28 27  1  0
  9 10  2  0
 10 11  1  0
 11 12  2  0
 12 13  1  0
 13 14  2  0
  1  2  2  0
  2  5  1  0
  5  6  2  0
  6  4  1  0
  4  3  2  0
  3  1  1  0
  7  8  2  0
  8  9  1  0
  9 14  1  0
 14 16  1  0
 16 15  2  0
 15  7  1  0
M  END
$$$$
