No_7622-complexes_sdf/6BKW-FPZ/2024-09-17-14-21-01/
     RDKit          3D

 40 45  0  0  0  0  0  0  0  0999 V2000
   -7.2496    3.8871   27.4508 C   0  0  0  0  0  0  0  0  0  0  0  0
   -7.9379    4.9063   27.8518 C   0  0  0  0  0  0  0  0  0  0  0  0
   -9.3460    4.8223   27.8695 C   0  0  0  0  0  0  0  0  0  0  0  0
   -7.8628    2.6163   27.1065 C   0  0  0  0  0  0  0  0  0  0  0  0
   -9.2787    2.5744   27.1970 C   0  0  0  0  0  0  0  0  0  0  0  0
  -10.0108    3.6770   27.6340 C   0  0  0  0  0  0  0  0  0  0  0  0
  -11.4834    3.5674   27.7432 C   0  0  0  0  0  0  0  0  0  0  0  0
  -11.9395    2.6434   28.4995 C   0  0  0  0  0  0  0  0  0  0  0  0
  -13.3550    2.4593   28.7913 C   0  0  0  0  0  0  0  0  0  0  0  0
  -14.1867    3.4420   28.2483 C   0  0  0  0  0  0  0  0  0  0  0  0
  -13.6865    4.4698   27.4825 C   0  0  0  0  0  0  0  0  0  0  0  0
  -12.3085    4.6362   27.2712 C   0  0  0  0  0  0  0  0  0  0  0  0
   -7.1747    1.5564   26.7827 N   0  0  0  0  0  0  0  0  0  0  0  0
   -6.2304    0.9989   27.6393 C   0  0  0  0  0  0  0  0  0  0  0  0
   -5.6340   -0.2572   27.3473 C   0  0  0  0  0  0  0  0  0  0  0  0
   -7.6226    0.6880   25.8416 C   0  0  1  0  0  0  0  0  0  0  0  0
   -6.0836   -0.9801   26.3403 C   0  0  0  0  0  0  0  0  0  0  0  0
   -8.6675    1.2090   25.0736 C   0  0  0  0  0  0  0  0  0  0  0  0
   -7.0891   -0.4873   25.4999 C   0  0  0  0  0  0  0  0  0  0  0  0
   -7.3065    6.0902   28.2431 N   0  0  0  0  0  0  0  0  0  0  0  0
   -9.0993    0.4815   23.8905 C   0  0  0  0  0  0  0  0  0  0  0  0
  -10.1637    0.9748   23.1196 C   0  0  0  0  0  0  0  0  0  0  0  0
  -10.5690    1.9614   23.2294 C   0  0  0  0  0  0  0  0  0  0  0  0
  -10.2860    2.8921   24.3766 C   0  0  0  0  0  0  0  0  0  0  0  0
   -9.3233    2.4810   25.2069 C   0  0  0  0  0  0  0  0  0  0  0  0
   -8.5819    3.4480   25.3900 O   0  0  0  0  0  0  0  0  0  0  0  0
   -9.6799    1.4986   27.8109 O   0  0  0  0  0  0  0  0  0  0  0  0
  -15.6826    3.3845   28.4917 C   0  0  0  0  0  0  0  0  0  0  0  0
  -16.4181    3.8486   27.8022 C   0  0  0  0  0  0  0  0  0  0  0  0
  -15.9798    5.0081   26.8872 C   0  0  0  0  0  0  0  0  0  0  0  0
  -14.6270    5.2136   26.6905 C   0  0  0  0  0  0  0  0  0  0  0  0
  -11.8205    2.4922   22.3998 C   0  0  0  0  0  0  0  0  0  0  0  0
  -12.8116    2.6134   22.6670 C   0  0  0  0  0  0  0  0  0  0  0  0
  -13.3447    2.3120   24.0807 C   0  0  0  0  0  0  0  0  0  0  0  0
  -14.7495    2.4411   24.4562 C   0  0  0  0  0  0  0  0  0  0  0  0
  -15.5941    2.9416   23.5304 C   0  0  0  0  0  0  0  0  0  0  0  0
  -15.2200    3.2035   22.2291 C   0  0  0  0  0  0  0  0  0  0  0  0
  -13.9581    3.1111   21.8535 C   0  0  0  0  0  0  0  0  0  0  0  0
  -11.2503    2.8963   21.0367 C   0  0  0  0  0  0  0  0  0  0  0  0
  -10.1515    2.7569   20.8267 F   0  0  0  0  0  0  0  0  0  0  0  0
  6  7  1  0
  4 13  1  0
 13 14  1  0
 13 16  1  0
 15 17  1  0
 16 18  1  6
 16 19  1  0
  2 20  1  0
 25 26  1  0
  5 27  1  0
 23 32  1  0
 32 39  1  0
 39 40  1  0
 32 33  1  0
 14 15  1  0
 17 19  1  0
  1  2  2  0
  2  3  1  0
  3  6  2  0
  6  5  1  0
  5  4  2  0
  4  1  1  0
 33 34  2  0
 34 35  1  0
 35 36  2  0
 36 37  1  0
 37 38  2  0
 38 33  1  0
  7  8  2  0
  8  9  1  0
  9 10  2  0
 11 12  2  0
 12  7  1  0
 18 21  2  0
 21 22  1  0
 22 23  2  0
 23 24  1  0
 24 25  2  0
 25 18  1  0
 10 11  1  0
 11 31  1  0
 31 30  2  0
 30 29  1  0
 29 28  2  0
 28 10  1  0
M  END
$$$$
