No_716-complexes_sdf/6BKW-FPZ/2024-09-17-14-21-01/
     RDKit          3D

 24 27  0  0  0  0  0  0  0  0999 V2000
   -7.9040    3.9820   27.1177 C   0  0  0  0  0  0  0  0  0  0  0  0
   -7.8663    4.8694   27.9238 C   0  0  0  0  0  0  0  0  0  0  0  0
   -9.0501    3.8017   26.2617 C   0  0  0  0  0  0  0  0  0  0  0  0
   -9.1826    2.7026   25.3575 C   0  0  0  0  0  0  0  0  0  0  0  0
   -8.6940    6.0131   27.8614 C   0  0  0  0  0  0  0  0  0  0  0  0
   -9.9755    4.8547   26.2361 C   0  0  0  0  0  0  0  0  0  0  0  0
   -9.7463    5.9398   27.0364 C   0  0  0  0  0  0  0  0  0  0  0  0
   -8.7003    1.4603   25.7663 C   0  0  0  0  0  0  0  0  0  0  0  0
   -8.8305    0.3583   24.9242 C   0  0  0  0  0  0  0  0  0  0  0  0
   -9.4370    0.5654   23.6656 C   0  0  0  0  0  0  0  0  0  0  0  0
   -9.7593    2.7744   24.1206 C   0  0  0  0  0  0  0  0  0  0  0  0
   -9.8537    1.7753   23.2775 C   0  0  0  0  0  0  0  0  0  0  0  0
  -10.4684    1.9375   21.9303 C   0  0  0  0  0  0  0  0  0  0  0  0
  -10.4170    3.1911   21.4340 C   0  0  0  0  0  0  0  0  0  0  0  0
  -10.9544    3.4459   20.1596 C   0  0  0  0  0  0  0  0  0  0  0  0
  -11.4868    2.4108   19.3766 C   0  0  0  0  0  0  0  0  0  0  0  0
  -11.4629    1.1151   19.9323 C   0  0  0  0  0  0  0  0  0  0  0  0
  -10.9355    0.9172   21.1778 C   0  0  0  0  0  0  0  0  0  0  0  0
   -8.2470   -0.9055   25.3274 C   0  0  0  0  0  0  0  0  0  0  0  0
   -7.7548   -1.6369   24.6159 C   0  0  0  0  0  0  0  0  0  0  0  0
   -7.1389   -2.9506   24.9869 C   0  0  0  0  0  0  0  0  0  0  0  0
   -7.1175   -3.2471   26.3325 C   0  0  0  0  0  0  0  0  0  0  0  0
   -7.6677   -2.3415   27.2216 C   0  0  0  0  0  0  0  0  0  0  0  0
   -8.2143   -1.1449   26.8189 C   0  0  0  0  0  0  0  0  0  0  0  0
  3  4  1  0
 12 13  1  0
  9 19  1  0
 13 14  2  0
 14 15  1  0
 15 16  2  0
 16 17  1  0
 17 18  2  0
 18 13  1  0
  4  8  2  0
  8  9  1  0
  9 10  2  0
 10 12  1  0
 12 11  2  0
 11  4  1  0
 19 20  2  0
 20 21  1  0
 21 22  2  0
 22 23  1  0
 23 24  2  0
 24 19  1  0
  1  2  2  0
  2  5  1  0
  5  7  2  0
  7  6  1  0
  6  3  2  0
  3  1  1  0
M  END
$$$$
