No_7716-complexes_sdf/6BKW-FPZ/2024-09-17-14-21-01/
     RDKit          3D

 23 26  0  0  0  0  0  0  0  0999 V2000
   -7.9040    3.9820   27.1177 C   0  0  0  0  0  0  0  0  0  0  0  0
   -9.0711    4.3164   27.0630 C   0  0  0  0  0  0  0  0  0  0  0  0
   -9.5294    5.4517   27.7215 C   0  0  0  0  0  0  0  0  0  0  0  0
   -7.4336    2.7132   26.5681 C   0  0  0  0  0  0  0  0  0  0  0  0
   -8.3353    1.8569   26.0442 C   0  0  0  0  0  0  0  0  0  0  0  0
   -9.6477    2.2853   25.9146 C   0  0  0  0  0  0  0  0  0  0  0  0
  -10.0346    3.4497   26.4483 C   0  0  0  0  0  0  0  0  0  0  0  0
   -7.8608    0.5626   25.5840 C   0  0  0  0  0  0  0  0  0  0  0  0
   -8.4177    0.1010   24.4071 C   0  0  0  0  0  0  0  0  0  0  0  0
   -9.2851    0.9214   23.6999 C   0  0  0  0  0  0  0  0  0  0  0  0
   -9.8210    0.5980   22.4532 C   0  0  0  0  0  0  0  0  0  0  0  0
   -9.8757    2.0798   24.3588 C   0  0  0  0  0  0  0  0  0  0  0  0
  -10.3864    1.5468   21.6719 C   0  0  0  0  0  0  0  0  0  0  0  0
  -10.7989    1.2578   20.4230 C   0  0  0  0  0  0  0  0  0  0  0  0
  -10.7426   -0.0432   19.8994 C   0  0  0  0  0  0  0  0  0  0  0  0
   -9.6205   -0.6380   21.8613 C   0  0  0  0  0  0  0  0  0  0  0  0
  -10.0673   -0.9574   20.6316 C   0  0  0  0  0  0  0  0  0  0  0  0
   -6.9123    4.6661   27.9272 N   0  0  0  0  0  0  0  0  0  0  0  0
   -7.2627    5.8515   28.4807 C   0  0  0  0  0  0  0  0  0  0  0  0
   -8.5637    6.2455   28.3464 N   0  0  0  0  0  0  0  0  0  0  0  0
   -9.8093   -2.3732   20.2095 C   0  0  0  0  0  0  0  0  0  0  0  0
  -10.4691   -3.0775   19.7544 C   0  0  0  0  0  0  0  0  0  0  0  0
  -10.5836   -4.0541   19.3798 C   0  0  0  0  0  0  0  0  0  0  0  0
 10 11  1  0
 17 21  1  0
 21 22  2  3
 22 23  1  0
  2  3  2  0
  3 20  1  0
 20 19  2  0
 19 18  1  0
 18  1  2  0
  1  2  1  0
  2  7  1  0
  7  6  2  0
  5  4  2  0
  4  1  1  0
 11 13  2  0
 13 14  1  0
 14 15  2  0
 15 17  1  0
 17 16  2  0
 16 11  1  0
  5  6  1  0
  6 12  1  0
 12 10  2  0
 10  9  1  0
  9  8  2  0
  8  5  1  0
M  END
$$$$
