No_7539-complexes_sdf/6BKW-FPZ/2024-09-17-14-21-01/
     RDKit          3D

 20 22  0  0  0  0  0  0  0  0999 V2000
   -7.7129    4.2099   27.0854 C   0  0  0  0  0  0  0  0  0  0  0  0
   -8.9133    4.4736   27.0998 C   0  0  2  0  0  0  0  0  0  0  0  0
   -9.4643    5.5426   27.7628 C   0  0  0  0  0  0  0  0  0  0  0  0
   -7.2009    2.9448   26.6134 C   0  0  0  0  0  0  0  0  0  0  0  0
   -8.1365    1.9533   26.2981 C   0  0  1  0  0  0  0  0  0  0  0  0
   -9.4501    2.2651   26.2497 C   0  0  0  0  0  0  0  0  0  0  0  0
   -9.8615    3.4703   26.6763 C   0  0  0  0  0  0  0  0  0  0  0  0
   -7.3319    0.5059   25.7765 Cl  0  0  0  0  0  0  0  0  0  0  0  0
  -10.3477    1.2278   25.7438 C   0  0  0  0  0  0  0  0  0  0  0  0
  -11.3450    1.6127   25.0941 C   0  0  0  0  0  0  0  0  0  0  0  0
  -11.5517    3.0084   24.7598 C   0  0  0  0  0  0  0  0  0  0  0  0
  -12.6539    3.4937   23.9757 C   0  0  1  0  0  0  0  0  0  0  0  0
  -10.7456    4.0604   25.4143 C   0  0  0  0  0  0  0  0  0  0  0  0
  -13.6257    4.2651   24.5244 C   0  0  0  0  0  0  0  0  0  0  0  0
  -13.6518    4.5417   25.9368 C   0  0  0  0  0  0  0  0  0  0  0  0
  -14.7607    4.7904   26.5953 C   0  0  0  0  0  0  0  0  0  0  0  0
  -15.8588    5.3350   25.8358 C   0  0  0  0  0  0  0  0  0  0  0  0
  -15.8291    5.2573   24.4644 C   0  0  0  0  0  0  0  0  0  0  0  0
  -14.7555    4.7117   23.8285 C   0  0  0  0  0  0  0  0  0  0  0  0
  -12.5268    3.2741   22.5833 C   0  0  0  0  0  0  0  0  0  0  0  0
  1  2  1  0
  1  4  1  0
  4  5  1  0
  5  6  1  0
  2  7  1  0
  5  8  1  6
 12 14  1  0
 12 20  1  6
 12 11  1  0
  2  3  1  1
 14 15  2  0
 15 16  1  0
 16 17  2  0
 17 18  1  0
 18 19  2  0
 19 14  1  0
  6  7  2  0
  7 13  1  0
 13 11  2  0
 11 10  1  0
 10  9  2  0
  9  6  1  0
M  END
$$$$
