No_7894-complexes_sdf/6BKW-FPZ/2024-09-17-14-21-01/
     RDKit          3D

 40 45  0  0  0  0  0  0  0  0999 V2000
   -7.9040    3.9820   27.1177 C   0  0  0  0  0  0  0  0  0  0  0  0
   -8.2057    2.8231   26.8733 C   0  0  0  0  0  0  0  0  0  0  0  0
   -8.7695    5.0740   26.7916 C   0  0  0  0  0  0  0  0  0  0  0  0
   -9.9618    4.7598   26.1630 C   0  0  0  0  0  0  0  0  0  0  0  0
   -9.4200    2.4524   26.2849 C   0  0  0  0  0  0  0  0  0  0  0  0
  -10.2590    3.4815   25.9250 C   0  0  0  0  0  0  0  0  0  0  0  0
   -8.3840    6.4693   27.0829 C   0  0  0  0  0  0  0  0  0  0  0  0
   -8.7958    7.4358   26.4217 N   0  0  0  0  0  0  0  0  0  0  0  0
   -7.3552    6.5483   27.9522 O   0  0  0  0  0  0  0  0  0  0  0  0
   -7.2837    1.6557   27.2733 C   0  0  0  0  0  0  0  0  0  0  0  0
   -7.6054    0.3184   27.1236 C   0  0  0  0  0  0  0  0  0  0  0  0
   -8.9301    0.0920   26.7518 C   0  0  0  0  0  0  0  0  0  0  0  0
   -9.7670    1.0377   26.2408 C   0  0  0  0  0  0  0  0  0  0  0  0
   -5.7270    2.1000   27.9248 Cl  0  0  0  0  0  0  0  0  0  0  0  0
   -6.8221   -0.7462   27.6939 C   0  0  0  0  0  0  0  0  0  0  0  0
   -7.2880   -1.7986   28.1969 C   0  0  0  0  0  0  0  0  0  0  0  0
   -6.4851   -2.7904   28.7486 C   0  0  0  0  0  0  0  0  0  0  0  0
   -5.1061   -2.6128   28.7754 C   0  0  0  0  0  0  0  0  0  0  0  0
   -4.5571   -1.4437   28.2880 C   0  0  0  0  0  0  0  0  0  0  0  0
   -5.3312   -0.5072   27.8087 C   0  0  0  0  0  0  0  0  0  0  0  0
   -3.0730   -1.2197   28.3940 C   0  0  0  0  0  0  0  0  0  0  0  0
   -2.4986   -2.0968   27.8074 F   0  0  0  0  0  0  0  0  0  0  0  0
   -2.7008   -1.1811   29.7236 F   0  0  0  0  0  0  0  0  0  0  0  0
   -2.7455    0.0289   27.9020 F   0  0  0  0  0  0  0  0  0  0  0  0
  -11.5377    3.2199   25.1990 C   0  0  1  0  0  0  0  0  0  0  0  0
  -12.6087    3.3081   25.7864 N   0  0  0  0  0  0  0  0  0  0  0  0
  -12.8082    3.4368   27.0212 C   0  0  0  0  0  0  0  0  0  0  0  0
  -13.7874    2.8633   25.0321 C   0  0  1  0  0  0  0  0  0  0  0  0
  -11.4722    3.2752   23.8836 N   0  0  0  0  0  0  0  0  0  0  0  0
  -10.2105    3.4320   23.1604 C   0  0  0  0  0  0  0  0  0  0  0  0
  -10.3090    3.3253   21.7552 C   0  0  0  0  0  0  0  0  0  0  0  0
  -13.8916    3.5792   27.7748 C   0  0  0  0  0  0  0  0  0  0  0  0
  -15.0633    3.0911   25.6888 C   0  0  0  0  0  0  0  0  0  0  0  0
  -15.1178    3.3802   27.0293 C   0  0  0  0  0  0  0  0  0  0  0  0
  -11.1771    2.5388   21.3216 C   0  0  0  0  0  0  0  0  0  0  0  0
  -12.3505    2.1677   22.0010 C   0  0  2  0  0  0  0  0  0  0  0  0
  -12.3472    2.4137   23.3811 C   0  0  2  0  0  0  0  0  0  0  0  0
  -13.4997    2.9150   23.7283 C   0  0  0  0  0  0  0  0  0  0  0  0
  -13.2575    1.3349   21.3265 C   0  0  0  0  0  0  0  0  0  0  0  0
  -13.1416    0.9537   20.2418 C   0  0  0  0  0  0  0  0  0  0  0  0
  3  7  1  0
  7  8  1  0
  7  9  2  0
 10 14  1  0
 11 15  1  0
 19 21  1  0
 21 22  1  0
 21 23  1  0
 21 24  1  0
 25  6  1  1
 25 26  1  0
 26 27  1  0
 26 28  1  0
 25 29  1  0
 29 30  1  0
 32 34  1  0
 33 34  1  0
 31 35  1  0
 29 37  1  0
 36 37  1  0
 28 38  1  6
 37 38  1  6
 36 39  1  1
 39 40  2  0
 30 31  1  0
 35 36  1  0
 27 32  1  0
 33 28  1  0
 15 16  2  0
 16 17  1  0
 17 18  2  0
 18 19  1  0
 19 20  2  0
 20 15  1  0
  5 13  1  0
 13 12  2  0
 12 11  1  0
 11 10  2  0
 10  2  1  0
  1  2  2  0
  2  5  1  0
  5  6  2  0
  6  4  1  0
  4  3  2  0
  3  1  1  0
M  END
$$$$
