No_7244-complexes_sdf/6BKW-FPZ/2024-09-17-14-21-01/
     RDKit          3D

 23 25  0  0  0  0  0  0  0  0999 V2000
   -7.9040    3.9820   27.1177 C   0  0  0  0  0  0  0  0  0  0  0  0
   -7.8663    4.8694   27.9238 C   0  0  0  0  0  0  0  0  0  0  0  0
   -7.4547    2.7080   27.4594 C   0  0  0  0  0  0  0  0  0  0  0  0
   -7.9337    1.5946   26.8372 C   0  0  0  0  0  0  0  0  0  0  0  0
   -8.9032    1.7881   25.8510 C   0  0  0  0  0  0  0  0  0  0  0  0
   -9.3787    2.9871   25.5530 C   0  0  0  0  0  0  0  0  0  0  0  0
   -9.0792    4.0202   26.3510 C   0  0  0  0  0  0  0  0  0  0  0  0
   -8.3148    6.1999   27.6539 N   0  0  0  0  0  0  0  0  0  0  0  0
   -9.2069    6.4745   26.7026 C   0  0  0  0  0  0  0  0  0  0  0  0
   -9.5801    5.3602   25.9651 C   0  0  0  0  0  0  0  0  0  0  0  0
   -7.3114    0.2648   27.0983 C   0  0  0  0  0  0  0  0  0  0  0  0
   -8.0746   -0.7070   27.1118 F   0  0  0  0  0  0  0  0  0  0  0  0
   -6.2709    0.0393   26.2329 F   0  0  0  0  0  0  0  0  0  0  0  0
   -6.6445    0.2986   28.3107 F   0  0  0  0  0  0  0  0  0  0  0  0
  -10.3637    3.0405   24.4417 C   0  0  0  0  0  0  0  0  0  0  0  0
  -11.6474    2.9774   24.7043 C   0  0  0  0  0  0  0  0  0  0  0  0
  -12.5829    3.1164   23.6178 C   0  0  0  0  0  0  0  0  0  0  0  0
  -12.0914    3.3258   22.2995 C   0  0  0  0  0  0  0  0  0  0  0  0
  -10.6996    3.4607   22.0825 C   0  0  0  0  0  0  0  0  0  0  0  0
   -9.8215    3.3624   23.1331 C   0  0  0  0  0  0  0  0  0  0  0  0
  -14.0355    3.0044   23.7994 C   0  0  0  0  0  0  0  0  0  0  0  0
  -14.8521    3.2352   23.0041 C   0  0  0  0  0  0  0  0  0  0  0  0
  -14.3901    3.5109   21.6045 C   0  0  0  0  0  0  0  0  0  0  0  0
  4 11  1  0
 11 12  1  0
 11 13  1  0
 11 14  1  0
  6 15  1  0
 17 21  1  0
 21 22  2  3
 22 23  1  0
 15 16  2  0
 16 17  1  0
 17 18  2  0
 18 19  1  0
 19 20  2  0
 20 15  1  0
  1  2  2  0
  2  8  1  0
  8  9  2  0
  9 10  1  0
 10  7  2  0
  1  3  1  0
  3  4  2  0
  4  5  1  0
  5  6  2  0
  6  7  1  0
  7  1  1  0
M  END
$$$$
