No_7835-complexes_sdf/6BKW-FPZ/2024-09-17-14-21-01/
     RDKit          3D

 15 17  0  0  0  0  0  0  0  0999 V2000
   -7.2496    3.8871   27.4508 C   0  0  0  0  0  0  0  0  0  0  0  0
   -7.9379    4.9063   27.8518 C   0  0  0  0  0  0  0  0  0  0  0  0
   -8.7729    5.5444   27.0168 C   0  0  0  0  0  0  0  0  0  0  0  0
   -7.7708    3.0049   26.4155 C   0  0  0  0  0  0  0  0  0  0  0  0
   -9.3916    4.8208   25.9624 C   0  0  0  0  0  0  0  0  0  0  0  0
   -8.8052    3.5944   25.6431 C   0  0  0  0  0  0  0  0  0  0  0  0
   -9.3133    2.7478   24.5728 C   0  0  0  0  0  0  0  0  0  0  0  0
   -9.2708    1.4148   24.5678 C   0  0  0  0  0  0  0  0  0  0  0  0
   -8.2781    0.8686   25.5291 C   0  0  0  0  0  0  0  0  0  0  0  0
   -7.5425    1.6461   26.4038 C   0  0  0  0  0  0  0  0  0  0  0  0
   -9.2562    6.8275   27.2907 O   0  0  0  0  0  0  0  0  0  0  0  0
   -7.9510   -0.5969   25.3639 C   0  0  0  0  0  0  0  0  0  0  0  0
   -8.4222   -1.2714   24.6291 C   0  0  0  0  0  0  0  0  0  0  0  0
   -9.4001   -0.7383   23.5857 C   0  0  0  0  0  0  0  0  0  0  0  0
   -9.7425    0.5780   23.6175 C   0  0  0  0  0  0  0  0  0  0  0  0
  3 11  1  0
  6  7  2  0
  7  8  1  0
  9 10  1  0
 10  4  2  0
  1  2  2  0
  2  3  1  0
  3  5  2  0
  5  6  1  0
  6  4  1  0
  4  1  1  0
  8  9  2  0
  9 12  1  0
 12 13  2  0
 13 14  1  0
 14 15  2  0
 15  8  1  0
M  END
$$$$
