No_7969-complexes_sdf/6BKW-FPZ/2024-09-17-14-21-01/
     RDKit          3D

 40 44  0  0  0  0  0  0  0  0999 V2000
   -7.9040    3.9820   27.1177 C   0  0  0  0  0  0  0  0  0  0  0  0
   -9.0711    4.3164   27.0630 C   0  0  0  0  0  0  0  0  0  0  0  0
   -9.8698    3.9665   25.9494 C   0  0  0  0  0  0  0  0  0  0  0  0
   -7.0332    4.5030   28.2025 C   0  0  0  0  0  0  0  0  0  0  0  0
  -10.9909    4.7237   25.5958 C   0  0  0  0  0  0  0  0  0  0  0  0
   -7.4989    5.5573   28.9524 C   0  0  0  0  0  0  0  0  0  0  0  0
  -11.7350    4.2316   24.5284 C   0  0  0  0  0  0  0  0  0  0  0  0
  -11.2838    3.2467   23.6902 C   0  0  0  0  0  0  0  0  0  0  0  0
  -10.1349    2.5964   24.0049 C   0  0  0  0  0  0  0  0  0  0  0  0
   -9.3929    2.9470   25.1474 C   0  0  0  0  0  0  0  0  0  0  0  0
   -9.6518    4.6775   28.2368 C   0  0  0  0  0  0  0  0  0  0  0  0
   -8.9972    5.0018   29.2737 C   0  0  0  0  0  0  0  0  0  0  0  0
   -9.6494    1.4587   23.1408 C   0  0  0  0  0  0  0  0  0  0  0  0
  -10.0296    1.3482   21.8559 C   0  0  0  0  0  0  0  0  0  0  0  0
   -9.6093    0.2825   21.1408 C   0  0  0  0  0  0  0  0  0  0  0  0
   -8.7258   -0.7007   21.6788 C   0  0  0  0  0  0  0  0  0  0  0  0
   -8.2794   -0.5507   22.9887 C   0  0  0  0  0  0  0  0  0  0  0  0
   -8.7236    0.4992   23.7686 C   0  0  0  0  0  0  0  0  0  0  0  0
   -8.2043   -1.8879   20.9772 C   0  0  0  0  0  0  0  0  0  0  0  0
   -8.4953   -2.1986   19.8863 C   0  0  0  0  0  0  0  0  0  0  0  0
   -7.8731   -3.3681   19.1657 C   0  0  0  0  0  0  0  0  0  0  0  0
   -6.8447   -3.9842   19.8208 C   0  0  0  0  0  0  0  0  0  0  0  0
   -7.0142   -2.6434   21.5312 C   0  0  0  0  0  0  0  0  0  0  0  0
   -6.4334   -3.6133   21.0043 C   0  0  0  0  0  0  0  0  0  0  0  0
   -8.3922   -3.7190   17.8398 C   0  0  0  0  0  0  0  0  0  0  0  0
   -7.9460   -4.2576   16.9431 F   0  0  0  0  0  0  0  0  0  0  0  0
   -9.2644   -3.2044   17.7641 F   0  0  0  0  0  0  0  0  0  0  0  0
  -11.0204    4.7068   28.2105 O   0  0  0  0  0  0  0  0  0  0  0  0
  -12.1003    4.4777   28.4752 C   0  0  0  0  0  0  0  0  0  0  0  0
  -12.4085    3.3562   29.3187 C   0  0  0  0  0  0  0  0  0  0  0  0
  -12.0712    2.0627   28.9044 C   0  0  0  0  0  0  0  0  0  0  0  0
  -12.9692    0.9780   29.0550 C   0  0  0  0  0  0  0  0  0  0  0  0
  -12.5711   -0.2363   28.4498 C   0  0  0  0  0  0  0  0  0  0  0  0
  -11.7752   -0.2465   27.6093 C   0  0  0  0  0  0  0  0  0  0  0  0
  -11.3862   -1.5234   26.9276 C   0  0  0  0  0  0  0  0  0  0  0  0
  -10.3582   -1.5009   25.9254 C   0  0  0  0  0  0  0  0  0  0  0  0
  -10.9455    0.9098   27.2772 C   0  0  0  0  0  0  0  0  0  0  0  0
  -11.2045    2.1120   27.9331 C   0  0  0  0  0  0  0  0  0  0  0  0
   -9.1331   -1.5941   26.2512 C   0  0  0  0  0  0  0  0  0  0  0  0
   -8.3444   -2.7748   25.7644 C   0  0  0  0  0  0  0  0  0  0  0  0
  9 13  1  0
 16 19  1  0
 21 25  1  0
 25 26  1  0
 25 27  1  0
 11 28  1  0
 28 29  1  0
 29 30  1  0
 30 31  1  0
 34 35  1  0
 35 36  2  3
 36 39  1  0
 39 40  2  0
  3  2  1  0
 31 32  2  0
 32 33  1  0
 33 34  2  0
 34 37  1  0
 37 38  2  0
 38 31  1  0
 19 20  2  0
 20 21  1  0
 21 22  2  0
 22 24  1  0
 24 23  2  0
 23 19  1  0
  1  2  2  0
  2 11  1  0
 11 12  2  0
 12  6  1  0
  6  4  2  0
  4  1  1  0
 13 14  2  0
 14 15  1  0
 15 16  2  0
 16 17  1  0
 17 18  2  0
 18 13  1  0
  3  5  2  0
  5  7  1  0
  7  8  2  0
  8  9  1  0
  9 10  2  0
 10  3  1  0
M  END
$$$$
