No_7288-complexes_sdf/6BKW-FPZ/2024-09-17-14-21-01/
     RDKit          3D

 25 27  0  0  0  0  0  0  0  0999 V2000
   -7.9040    3.9820   27.1177 C   0  0  0  0  0  0  0  0  0  0  0  0
   -9.0711    4.3164   27.0630 C   0  0  0  0  0  0  0  0  0  0  0  0
   -9.5294    5.4517   27.7215 C   0  0  0  0  0  0  0  0  0  0  0  0
   -7.4336    2.7132   26.5681 C   0  0  0  0  0  0  0  0  0  0  0  0
   -8.3353    1.8569   26.0442 C   0  0  0  0  0  0  0  0  0  0  0  0
   -9.6477    2.2853   25.9146 C   0  0  0  0  0  0  0  0  0  0  0  0
  -10.0346    3.4497   26.4483 C   0  0  0  0  0  0  0  0  0  0  0  0
   -7.8608    0.5626   25.5840 C   0  0  0  0  0  0  0  0  0  0  0  0
   -6.9358   -0.0776   26.2436 N   0  0  0  0  0  0  0  0  0  0  0  0
   -7.1559   -1.0361   27.0496 C   0  0  0  0  0  0  0  0  0  0  0  0
   -8.3556   -1.5171   27.3594 C   0  0  0  0  0  0  0  0  0  0  0  0
   -8.6097   -2.5467   28.3435 C   0  0  0  0  0  0  0  0  0  0  0  0
   -7.5220   -2.9599   29.1156 C   0  0  0  0  0  0  0  0  0  0  0  0
   -6.0121   -1.4535   27.9596 C   0  0  0  0  0  0  0  0  0  0  0  0
   -6.2571   -2.4245   28.9400 C   0  0  0  0  0  0  0  0  0  0  0  0
   -4.7275   -0.8522   27.7697 C   0  0  0  0  0  0  0  0  0  0  0  0
   -4.1195   -0.9482   26.6515 C   0  0  0  0  0  0  0  0  0  0  0  0
   -4.1890   -0.0843   28.9086 C   0  0  0  0  0  0  0  0  0  0  0  0
   -4.6617    0.2040   30.1478 C   0  0  0  0  0  0  0  0  0  0  0  0
   -3.8265    0.6853   31.1605 C   0  0  0  0  0  0  0  0  0  0  0  0
   -2.8102   -0.2902   26.5346 C   0  0  0  0  0  0  0  0  0  0  0  0
   -2.2451    0.4118   27.4821 C   0  0  0  0  0  0  0  0  0  0  0  0
   -2.8659    0.5668   28.6855 C   0  0  0  0  0  0  0  0  0  0  0  0
   -2.5887    0.2517   31.3147 C   0  0  0  0  0  0  0  0  0  0  0  0
   -1.6823   -0.1547   30.4128 C   0  0  0  0  0  0  0  0  0  0  0  0
  5  8  1  0
  8  9  1  0
  9 10  1  0
 14 16  1  0
 18 19  1  0
 19 20  2  3
 20 24  1  0
 24 25  2  0
  3  2  1  0
 16 17  2  0
 17 21  1  0
 21 22  2  0
 22 23  1  0
 23 18  2  0
 18 16  1  0
  1  2  2  0
  2  7  1  0
  7  6  2  0
  6  5  1  0
  5  4  2  0
  4  1  1  0
 10 11  2  0
 11 12  1  0
 12 13  2  0
 13 15  1  0
 15 14  2  0
 14 10  1  0
M  END
$$$$
