No_7099-complexes_sdf/6BKW-FPZ/2024-09-17-14-21-01/
     RDKit          3D

 22 23  0  0  0  0  0  0  0  0999 V2000
   -7.9040    3.9820   27.1177 C   0  0  0  0  0  0  0  0  0  0  0  0
   -8.2057    2.8231   26.8733 C   0  0  0  0  0  0  0  0  0  0  0  0
   -8.7695    5.0740   26.7916 C   0  0  0  0  0  0  0  0  0  0  0  0
   -9.9618    4.7598   26.1630 C   0  0  0  0  0  0  0  0  0  0  0  0
   -9.4200    2.4524   26.2849 C   0  0  0  0  0  0  0  0  0  0  0  0
  -10.2590    3.4815   25.9250 C   0  0  0  0  0  0  0  0  0  0  0  0
   -8.3840    6.4693   27.0829 C   0  0  0  0  0  0  0  0  0  0  0  0
   -8.7433    7.4015   26.4522 O   0  0  0  0  0  0  0  0  0  0  0  0
   -7.6017    6.5709   28.1657 O   0  0  0  0  0  0  0  0  0  0  0  0
   -7.2792    1.6676   27.2826 C   0  0  0  0  0  0  0  0  0  0  0  0
   -7.5663    0.3266   27.1420 C   0  0  0  0  0  0  0  0  0  0  0  0
   -6.6061   -0.5733   27.4332 C   0  0  0  0  0  0  0  0  0  0  0  0
   -5.3580   -0.1636   27.9751 C   0  0  0  0  0  0  0  0  0  0  0  0
   -5.0972    1.1898   28.1564 C   0  0  0  0  0  0  0  0  0  0  0  0
   -5.9540    2.0834   27.7921 C   0  0  0  0  0  0  0  0  0  0  0  0
   -4.5047   -1.3233   28.3804 C   0  0  0  0  0  0  0  0  0  0  0  0
   -3.6110   -1.1463   29.3718 C   0  0  0  0  0  0  0  0  0  0  0  0
   -3.6844    0.1091   30.1764 C   0  0  0  0  0  0  0  0  0  0  0  0
   -4.5432    0.9744   29.9744 C   0  0  0  0  0  0  0  0  0  0  0  0
   -5.6044    1.3694   30.5925 F   0  0  0  0  0  0  0  0  0  0  0  0
   -3.8685    2.2511   29.9633 O   0  0  0  0  0  0  0  0  0  0  0  0
   -3.9325    1.3985   27.3916 O   0  0  0  0  0  0  0  0  0  0  0  0
  3  7  1  0
  7  8  2  0
  7  9  1  0
  2 10  1  0
 13 16  1  0
 16 17  2  3
 17 18  1  0
 18 19  2  3
 19 20  1  0
 19 21  1  0
 14 22  1  0
  1  2  2  0
  2  5  1  0
  5  6  2  0
  6  4  1  0
  4  3  2  0
  3  1  1  0
 10 11  2  0
 11 12  1  0
 12 13  2  0
 13 14  1  0
 14 15  2  0
 15 10  1  0
M  END
$$$$
