No_740-complexes_sdf/6BKW-FPZ/2024-09-17-14-21-01/
     RDKit          3D

 13 14  0  0  0  0  0  0  0  0999 V2000
   -7.7129    4.2099   27.0854 C   0  0  0  0  0  0  0  0  0  0  0  0
   -8.2112    3.0637   26.9225 C   0  0  0  0  0  0  0  0  0  0  0  0
   -9.5629    2.7997   27.0678 C   0  0  0  0  0  0  0  0  0  0  0  0
   -8.5911    5.3704   27.2036 C   0  0  0  0  0  0  0  0  0  0  0  0
   -9.9544    5.1489   27.1401 C   0  0  0  0  0  0  0  0  0  0  0  0
  -10.4577    3.9280   27.0818 C   0  0  0  0  0  0  0  0  0  0  0  0
   -7.9018    6.9355   27.3193 Cl  0  0  0  0  0  0  0  0  0  0  0  0
  -10.0771    1.4017   26.9504 C   0  0  0  0  0  0  0  0  0  0  0  0
  -11.1854    1.0609   27.6222 C   0  0  0  0  0  0  0  0  0  0  0  0
  -11.6145   -0.3079   27.6820 C   0  0  0  0  0  0  0  0  0  0  0  0
  -10.7899   -1.2471   27.1094 C   0  0  0  0  0  0  0  0  0  0  0  0
   -9.3548    0.2355   26.5824 C   0  0  0  0  0  0  0  0  0  0  0  0
   -9.6651   -0.9760   26.6046 C   0  0  0  0  0  0  0  0  0  0  0  0
  4  7  1  0
  3  8  1  0
  1  2  2  0
  2  3  1  0
  3  6  2  0
  6  5  1  0
  5  4  2  0
  4  1  1  0
  8  9  2  0
  9 10  1  0
 10 11  2  0
 11 13  1  0
 13 12  2  0
 12  8  1  0
M  END
$$$$
