No_7202-complexes_sdf/6BKW-FPZ/2024-09-17-14-21-01/
     RDKit          3D

 25 28  0  0  0  0  0  0  0  0999 V2000
   -7.9040    3.9820   27.1177 C   0  0  0  0  0  0  0  0  0  0  0  0
   -7.8663    4.8694   27.9238 C   0  0  0  0  0  0  0  0  0  0  0  0
   -9.0501    3.8017   26.2617 C   0  0  0  0  0  0  0  0  0  0  0  0
   -9.1826    2.7026   25.3575 C   0  0  0  0  0  0  0  0  0  0  0  0
   -8.6940    6.0131   27.8614 C   0  0  0  0  0  0  0  0  0  0  0  0
   -9.7382    4.9916   26.1006 C   0  0  0  0  0  0  0  0  0  0  0  0
   -9.6356    6.0254   26.9506 C   0  0  0  0  0  0  0  0  0  0  0  0
   -8.7370    1.4548   25.8020 C   0  0  0  0  0  0  0  0  0  0  0  0
   -8.9047    0.3350   24.9830 C   0  0  0  0  0  0  0  0  0  0  0  0
   -9.5226    0.5215   23.7536 C   0  0  0  0  0  0  0  0  0  0  0  0
   -9.7908    2.7336   24.1772 C   0  0  0  0  0  0  0  0  0  0  0  0
   -9.9238    1.7298   23.3379 C   0  0  0  0  0  0  0  0  0  0  0  0
  -10.5606    1.8809   21.9997 C   0  0  0  0  0  0  0  0  0  0  0  0
  -11.8865    2.0723   21.9655 C   0  0  0  0  0  0  0  0  0  0  0  0
  -12.4621    2.3075   20.7469 C   0  0  0  0  0  0  0  0  0  0  0  0
  -11.6863    2.3099   19.5243 C   0  0  0  0  0  0  0  0  0  0  0  0
  -10.3183    2.2523   19.6257 C   0  0  0  0  0  0  0  0  0  0  0  0
   -9.6762    2.0324   20.8602 C   0  0  0  0  0  0  0  0  0  0  0  0
   -8.3356   -0.9256   25.4160 C   0  0  0  0  0  0  0  0  0  0  0  0
   -7.5257   -1.4489   24.9334 C   0  0  0  0  0  0  0  0  0  0  0  0
   -6.8761   -2.7351   25.3984 C   0  0  0  0  0  0  0  0  0  0  0  0
   -5.7150   -3.2241   24.8514 C   0  0  0  0  0  0  0  0  0  0  0  0
   -5.1606   -2.6158   23.6990 C   0  0  0  0  0  0  0  0  0  0  0  0
   -5.7487   -1.4679   23.2115 C   0  0  0  0  0  0  0  0  0  0  0  0
   -6.7899   -0.8526   23.7993 C   0  0  0  0  0  0  0  0  0  0  0  0
  3  4  1  0
 12 13  1  0
  9 19  1  0
 19 20  1  0
 13 14  2  0
 14 15  1  0
 15 16  2  0
 16 17  1  0
 17 18  2  0
 18 13  1  0
 20 21  2  0
 21 22  1  0
 22 23  2  0
 23 24  1  0
 24 25  2  0
 25 20  1  0
  4  8  2  0
  8  9  1  0
  9 10  2  0
 10 12  1  0
 12 11  2  0
 11  4  1  0
  1  2  2  0
  2  5  1  0
  5  7  2  0
  7  6  1  0
  6  3  2  0
  3  1  1  0
M  END
$$$$
