No_7840-complexes_sdf/6BKW-FPZ/2024-09-17-14-21-01/
     RDKit          3D

 12 13  0  0  0  0  0  0  0  0999 V2000
   -7.2496    3.8871   27.4508 C   0  0  0  0  0  0  0  0  0  0  0  0
   -8.5096    4.0291   27.2770 C   0  0  0  0  0  0  0  0  0  0  0  0
   -9.3502    2.8685   26.8763 C   0  0  0  0  0  0  0  0  0  0  0  0
   -6.6288    2.5513   27.4938 C   0  0  0  0  0  0  0  0  0  0  0  0
   -7.4365    1.4714   27.2032 C   0  0  0  0  0  0  0  0  0  0  0  0
  -10.6956    3.0464   26.6122 C   0  0  0  0  0  0  0  0  0  0  0  0
   -8.7780    1.6365   26.9046 C   0  0  0  0  0  0  0  0  0  0  0  0
  -11.5430    2.8108   27.4182 C   0  0  0  0  0  0  0  0  0  0  0  0
  -12.9479    2.9880   27.3703 C   0  0  0  0  0  0  0  0  0  0  0  0
  -13.3631    3.6168   26.2179 C   0  0  0  0  0  0  0  0  0  0  0  0
  -12.4385    4.0691   25.2774 C   0  0  0  0  0  0  0  0  0  0  0  0
  -11.0671    3.8671   25.4960 C   0  0  0  0  0  0  0  0  0  0  0  0
  3  6  1  0
  1  2  2  0
  2  3  1  0
  3  7  2  0
  7  5  1  0
  5  4  2  0
  4  1  1  0
  6  8  2  0
  8  9  1  0
  9 10  2  0
 10 11  1  0
 11 12  2  0
 12  6  1  0
M  END
$$$$
