No_7946-complexes_sdf/6BKW-FPZ/2024-09-17-14-21-01/
     RDKit          3D

 33 39  0  0  0  0  0  0  0  0999 V2000
   -7.2496    3.8871   27.4508 C   0  0  0  0  0  0  0  0  0  0  0  0
   -8.5096    4.0291   27.2770 C   0  0  0  0  0  0  0  0  0  0  0  0
   -9.3502    2.8685   26.8763 C   0  0  0  0  0  0  0  0  0  0  0  0
   -6.4573    5.0085   27.9854 C   0  0  0  0  0  0  0  0  0  0  0  0
   -9.1243    5.2674   27.5163 C   0  0  0  0  0  0  0  0  0  0  0  0
   -8.4032    6.3854   27.8703 C   0  0  0  0  0  0  0  0  0  0  0  0
   -7.0896    6.2292   28.0937 C   0  0  0  0  0  0  0  0  0  0  0  0
   -8.7457    1.6476   26.7403 C   0  0  0  0  0  0  0  0  0  0  0  0
   -9.5064    0.4955   26.4066 C   0  0  0  0  0  0  0  0  0  0  0  0
  -10.8746    0.6734   26.2014 C   0  0  0  0  0  0  0  0  0  0  0  0
  -10.7168    2.8059   26.7122 C   0  0  0  0  0  0  0  0  0  0  0  0
  -11.4647    1.7914   26.4714 C   0  0  0  0  0  0  0  0  0  0  0  0
  -12.9614    1.8747   26.3549 C   0  0  0  0  0  0  0  0  0  0  0  0
  -13.6326    2.9584   26.6763 C   0  0  0  0  0  0  0  0  0  0  0  0
  -12.7764    4.1373   26.8912 C   0  0  0  0  0  0  0  0  0  0  0  0
  -11.4981    4.1441   27.0276 C   0  0  0  0  0  0  0  0  0  0  0  0
  -10.7017    5.3858   27.3870 C   0  0  0  0  0  0  0  0  0  0  0  0
  -11.5854   -0.6499   25.9953 C   0  0  0  0  0  0  0  0  0  0  0  0
  -10.9391   -1.6746   25.4352 C   0  0  0  0  0  0  0  0  0  0  0  0
  -11.5616   -2.7229   25.1803 C   0  0  0  0  0  0  0  0  0  0  0  0
  -10.8930   -3.8602   24.5799 C   0  0  0  0  0  0  0  0  0  0  0  0
   -9.5567   -3.7162   24.3030 C   0  0  0  0  0  0  0  0  0  0  0  0
   -8.8713   -2.5886   24.5371 C   0  0  0  0  0  0  0  0  0  0  0  0
   -9.5096   -1.5166   25.1084 C   0  0  0  0  0  0  0  0  0  0  0  0
   -8.8052   -0.3639   25.6439 C   0  0  2  0  0  0  0  0  0  0  0  0
  -12.8016   -0.7185   26.3106 O   0  0  0  0  0  0  0  0  0  0  0  0
   -7.3120   -0.3487   25.4348 C   0  0  0  0  0  0  0  0  0  0  0  0
   -6.4311   -1.2553   25.9473 C   0  0  0  0  0  0  0  0  0  0  0  0
   -6.0404   -1.0829   27.2635 C   0  0  0  0  0  0  0  0  0  0  0  0
   -5.3575   -2.0344   27.9179 C   0  0  0  0  0  0  0  0  0  0  0  0
   -4.7280   -3.0160   27.1318 C   0  0  0  0  0  0  0  0  0  0  0  0
   -5.8772   -2.3206   25.3072 C   0  0  0  0  0  0  0  0  0  0  0  0
   -5.0204   -3.1909   25.8450 C   0  0  0  0  0  0  0  0  0  0  0  0
  2  3  1  0
  5 17  1  0
 16 17  1  0
 10 18  1  0
 18 19  1  0
  9 25  1  0
 24 25  1  0
 18 26  2  0
 25 27  1  1
 27 28  1  0
 28 29  2  0
 29 30  1  0
 30 31  2  0
 31 33  1  0
 33 32  2  0
 32 28  1  0
 19 20  2  0
 20 21  1  0
 21 22  2  0
 22 23  1  0
 23 24  2  0
 24 19  1  0
 12 13  2  0
 13 14  1  0
 14 15  2  0
 15 16  1  0
 16 11  2  0
  3  8  2  0
  8  9  1  0
  9 10  2  0
 10 12  1  0
 12 11  1  0
 11  3  1  0
  1  2  2  0
  2  5  1  0
  5  6  2  0
  6  7  1  0
  7  4  2  0
  4  1  1  0
M  END
$$$$
