No_708-complexes_sdf/6BKW-FPZ/2024-09-17-14-21-01/
     RDKit          3D

 15 16  0  0  0  0  0  0  0  0999 V2000
   -7.7129    4.2099   27.0854 C   0  0  0  0  0  0  0  0  0  0  0  0
   -8.9133    4.4736   27.0998 C   0  0  2  0  0  0  0  0  0  0  0  0
   -9.7135    3.9633   26.0300 C   0  0  0  0  0  0  0  0  0  0  0  0
   -6.8420    4.9760   28.0851 C   0  0  0  0  0  0  0  0  0  0  0  0
   -9.6552    4.2399   24.9004 C   0  0  0  0  0  0  0  0  0  0  0  0
  -10.3675    3.7380   23.7526 C   0  0  0  0  0  0  0  0  0  0  0  0
  -11.1614    2.6751   23.9753 C   0  0  0  0  0  0  0  0  0  0  0  0
  -10.6806    2.8936   26.3035 C   0  0  0  0  0  0  0  0  0  0  0  0
  -10.8422    2.4531   27.7248 C   0  0  0  0  0  0  0  0  0  0  0  0
  -11.3956    2.2705   25.3404 C   0  0  0  0  0  0  0  0  0  0  0  0
  -12.0418    2.6662   28.3864 C   0  0  0  0  0  0  0  0  0  0  0  0
   -9.5043    5.4183   27.9981 C   0  0  0  0  0  0  0  0  0  0  0  0
   -8.9059    3.5826   27.8270 C   0  0  2  0  0  0  0  0  0  0  0  0
   -9.5924    2.5922   27.9518 N   0  0  0  0  0  0  0  0  0  0  0  0
   -8.5277    4.0707   29.1709 O   0  0  0  0  0  0  0  0  0  0  0  0
  1  2  1  0
  2  3  1  0
  1  4  1  0
  8  9  1  0
  9 11  2  0
  2 12  1  1
  2 13  1  0
  9 14  1  0
 13 14  1  0
 13 15  1  1
  3  5  2  0
  5  6  1  0
  6  7  2  0
  7 10  1  0
 10  8  2  0
  8  3  1  0
M  END
$$$$
