No_7504-complexes_sdf/6BKW-FPZ/2024-09-17-14-21-01/
     RDKit          3D

 29 34  0  0  0  0  0  0  0  0999 V2000
   -7.9040    3.9820   27.1177 C   0  0  0  0  0  0  0  0  0  0  0  0
   -9.0711    4.3164   27.0630 C   0  0  0  0  0  0  0  0  0  0  0  0
   -9.5294    5.4517   27.7215 C   0  0  0  0  0  0  0  0  0  0  0  0
   -7.4336    2.7132   26.5681 C   0  0  0  0  0  0  0  0  0  0  0  0
   -8.3353    1.8569   26.0442 C   0  0  0  0  0  0  0  0  0  0  0  0
   -9.6477    2.2853   25.9146 C   0  0  2  0  0  0  0  0  0  0  0  0
  -10.0346    3.4497   26.4483 C   0  0  2  0  0  0  0  0  0  0  0  0
   -7.9226    0.6896   25.6309 F   0  0  0  0  0  0  0  0  0  0  0  0
   -6.9329    4.7465   27.8293 N   0  0  0  0  0  0  0  0  0  0  0  0
   -7.2757    5.9290   28.3784 C   0  0  0  0  0  0  0  0  0  0  0  0
   -8.5406    6.2909   28.2770 N   0  0  0  0  0  0  0  0  0  0  0  0
  -11.4266    3.8821   26.1473 C   0  0  0  0  0  0  0  0  0  0  0  0
  -12.3136    2.9320   26.4388 C   0  0  0  0  0  0  0  0  0  0  0  0
  -13.6249    3.3543   26.3928 C   0  0  0  0  0  0  0  0  0  0  0  0
  -14.4028    3.2723   27.4548 C   0  0  0  0  0  0  0  0  0  0  0  0
  -14.0688    2.2729   28.4694 C   0  0  0  0  0  0  0  0  0  0  0  0
  -12.7378    1.7813   28.4933 C   0  0  0  0  0  0  0  0  0  0  0  0
  -11.8372    2.2364   27.5748 C   0  0  0  0  0  0  0  0  0  0  0  0
  -10.5132    1.3539   25.2387 C   0  0  0  0  0  0  0  0  0  0  0  0
  -10.1983    1.1570   23.9187 C   0  0  0  0  0  0  0  0  0  0  0  0
  -10.8637    1.2766   23.1373 C   0  0  0  0  0  0  0  0  0  0  0  0
  -12.1553    0.9635   23.0785 C   0  0  0  0  0  0  0  0  0  0  0  0
  -12.6190    0.6307   24.4489 C   0  0  0  0  0  0  0  0  0  0  0  0
  -11.7653    0.9511   25.5446 C   0  0  0  0  0  0  0  0  0  0  0  0
  -11.4839    0.8025   26.8285 C   0  0  2  0  0  0  0  0  0  0  0  0
  -11.1530   -0.4231   27.3756 C   0  0  0  0  0  0  0  0  0  0  0  0
  -12.2507    0.0142   27.3049 C   0  0  1  0  0  0  0  0  0  0  0  0
  -13.2984   -0.7571   26.9033 C   0  0  0  0  0  0  0  0  0  0  0  0
  -12.7142    0.5349   28.7440 C   0  0  0  0  0  0  0  0  0  0  0  0
  1  4  1  0
  4  5  1  0
  6  5  1  1
  2  7  1  0
  6  7  1  0
  5  8  1  0
  7 12  1  6
 12 13  1  0
  6 19  1  0
 18 25  1  0
 24 25  1  0
 25 26  1  1
 26 27  1  0
 27 28  1  1
 17 29  1  0
 27 29  1  0
  1  2  1  0
  2  3  2  0
  3 11  1  0
 11 10  2  0
 10  9  1  0
  9  1  2  0
 19 20  2  0
 20 21  1  0
 21 22  2  0
 22 23  1  0
 23 24  2  0
 24 19  1  0
 13 14  2  0
 14 15  1  0
 15 16  2  0
 16 17  1  0
 17 18  2  0
 18 13  1  0
M  END
$$$$
