No_7596-complexes_sdf/6BKW-FPZ/2024-09-17-14-21-01/
     RDKit          3D

 18 19  0  0  0  0  0  0  0  0999 V2000
   -7.7129    4.2099   27.0854 C   0  0  0  0  0  0  0  0  0  0  0  0
   -7.7814    5.1722   27.8972 C   0  0  0  0  0  0  0  0  0  0  0  0
   -8.8998    3.8713   26.3707 C   0  0  0  0  0  0  0  0  0  0  0  0
   -8.9563    2.6796   25.5490 C   0  0  0  0  0  0  0  0  0  0  0  0
   -8.8131    6.0996   27.7331 C   0  0  0  0  0  0  0  0  0  0  0  0
   -9.9794    4.6905   26.3821 C   0  0  0  0  0  0  0  0  0  0  0  0
  -11.0535    4.4030   25.6179 C   0  0  0  0  0  0  0  0  0  0  0  0
   -9.8862    5.8988   27.0851 C   0  0  0  0  0  0  0  0  0  0  0  0
   -9.9881    2.3860   24.7172 C   0  0  0  0  0  0  0  0  0  0  0  0
  -11.0842    3.3239   24.7443 C   0  0  0  0  0  0  0  0  0  0  0  0
  -12.2270    3.0086   23.8563 C   0  0  0  0  0  0  0  0  0  0  0  0
  -12.0404    2.8835   22.6428 C   0  0  0  0  0  0  0  0  0  0  0  0
  -10.6958    2.9164   22.0707 C   0  0  0  0  0  0  0  0  0  0  0  0
   -9.6696    2.2335   22.7932 C   0  0  0  0  0  0  0  0  0  0  0  0
   -8.6573    1.8153   22.6371 F   0  0  0  0  0  0  0  0  0  0  0  0
  -10.1493    1.2075   22.9520 F   0  0  0  0  0  0  0  0  0  0  0  0
  -10.5391    0.9774   25.1448 C   0  0  0  0  0  0  0  0  0  0  0  0
  -11.2073    0.9549   26.3449 C   0  0  0  0  0  0  0  0  0  0  0  0
 10 11  1  0
 11 12  2  3
 12 13  1  0
 13 14  1  0
 14 15  1  0
 14 16  1  0
  9 17  1  0
 17 18  1  0
  1  2  2  0
  2  5  1  0
  5  8  2  0
  8  6  1  0
  3  1  1  0
  3  4  2  0
  4  9  1  0
  9 10  2  0
 10  7  1  0
  7  6  2  0
  6  3  1  0
M  END
$$$$
