No_7357-complexes_sdf/6BKW-FPZ/2024-09-17-14-21-01/
     RDKit          3D

 20 22  0  0  0  0  0  0  0  0999 V2000
   -7.9040    3.9820   27.1177 C   0  0  0  0  0  0  0  0  0  0  0  0
   -8.2057    2.8231   26.8733 C   0  0  0  0  0  0  0  0  0  0  0  0
   -7.0130    4.3706   28.1140 C   0  0  0  0  0  0  0  0  0  0  0  0
   -9.3829    2.4374   26.1668 C   0  0  0  0  0  0  0  0  0  0  0  0
  -10.0975    3.4171   25.5988 C   0  0  0  0  0  0  0  0  0  0  0  0
   -9.7335    4.7745   25.7705 C   0  0  0  0  0  0  0  0  0  0  0  0
   -8.7317    5.1107   26.5933 C   0  0  0  0  0  0  0  0  0  0  0  0
   -8.2050    6.4063   26.9956 C   0  0  0  0  0  0  0  0  0  0  0  0
   -8.8712    7.5514   26.5994 N   0  0  0  0  0  0  0  0  0  0  0  0
   -7.1689    6.4590   27.9564 C   0  0  0  0  0  0  0  0  0  0  0  0
   -6.6624    5.5689   28.4627 N   0  0  0  0  0  0  0  0  0  0  0  0
   -9.6652    1.0379   25.8115 C   0  0  1  0  0  0  0  0  0  0  0  0
   -9.4123    0.5623   24.7956 C   0  0  0  0  0  0  0  0  0  0  0  0
   -9.0868    1.2896   23.6827 C   0  0  0  0  0  0  0  0  0  0  0  0
   -9.3273    0.8601   22.4397 C   0  0  0  0  0  0  0  0  0  0  0  0
   -9.4699   -0.4751   22.1919 C   0  0  0  0  0  0  0  0  0  0  0  0
   -9.6631   -1.3462   23.2421 C   0  0  0  0  0  0  0  0  0  0  0  0
   -9.7139   -0.8375   24.4838 C   0  0  0  0  0  0  0  0  0  0  0  0
  -10.0213    0.3166   27.0571 C   0  0  0  0  0  0  0  0  0  0  0  0
   -9.6203   -0.1705   27.9414 C   0  0  0  0  0  0  0  0  0  0  0  0
  8  9  1  0
  4 12  1  0
 12 13  1  0
 12 19  1  1
 19 20  2  0
 13 14  2  0
 14 15  1  0
 15 16  2  0
 16 17  1  0
 17 18  2  0
 18 13  1  0
  1  3  1  0
  3 11  2  0
 11 10  1  0
 10  8  2  0
  8  7  1  0
  1  2  2  0
  2  4  1  0
  4  5  2  0
  5  6  1  0
  6  7  2  0
  7  1  1  0
M  END
$$$$
