No_721-complexes_sdf/6BKW-FPZ/2024-09-17-14-21-01/
     RDKit          3D

 18 19  0  0  0  0  0  0  0  0999 V2000
   -7.2496    3.8871   27.4508 C   0  0  0  0  0  0  0  0  0  0  0  0
   -7.6161    2.7143   27.1523 C   0  0  0  0  0  0  0  0  0  0  0  0
   -8.8302    2.4659   26.5056 C   0  0  0  0  0  0  0  0  0  0  0  0
   -8.1584    5.0090   27.3234 C   0  0  0  0  0  0  0  0  0  0  0  0
   -9.3788    4.7965   26.7695 C   0  0  0  0  0  0  0  0  0  0  0  0
   -9.7028    3.5649   26.3276 C   0  0  0  0  0  0  0  0  0  0  0  0
   -6.9225    1.4464   27.3142 C   0  0  0  0  0  0  0  0  0  0  0  0
   -5.6363    1.5459   28.0507 C   0  0  0  0  0  0  0  0  0  0  0  0
   -4.8623    0.3825   28.2543 C   0  0  0  0  0  0  0  0  0  0  0  0
   -5.4168   -0.8279   27.9096 C   0  0  0  0  0  0  0  0  0  0  0  0
   -7.1793    0.1314   27.1349 C   0  0  0  0  0  0  0  0  0  0  0  0
   -6.5997   -0.9278   27.4102 C   0  0  0  0  0  0  0  0  0  0  0  0
   -7.6914    6.3521   27.7930 C   0  0  0  0  0  0  0  0  0  0  0  0
   -3.5061    0.5733   28.8815 C   0  0  0  0  0  0  0  0  0  0  0  0
   -2.5971   -0.3183   28.4943 N   0  0  0  0  0  0  0  0  0  0  0  0
   -1.9214   -1.1850   29.2208 C   0  0  0  0  0  0  0  0  0  0  0  0
   -2.2458   -0.2325   27.1023 C   0  0  0  0  0  0  0  0  0  0  0  0
   -8.3180    7.4908   27.0877 C   0  0  0  0  0  0  0  0  0  0  0  0
  2  7  1  0
  4 13  1  0
  9 14  1  0
 14 15  1  0
 15 16  1  0
 15 17  1  0
 13 18  1  0
  7  8  2  0
  8  9  1  0
  9 10  2  0
 10 12  1  0
 12 11  2  0
 11  7  1  0
  1  2  2  0
  2  3  1  0
  3  6  2  0
  6  5  1  0
  5  4  2  0
  4  1  1  0
M  END
$$$$
