No_7471-complexes_sdf/6BKW-FPZ/2024-09-17-14-21-01/
     RDKit          3D

 21 22  0  0  0  0  0  0  0  0999 V2000
   -7.7129    4.2099   27.0854 C   0  0  0  0  0  0  0  0  0  0  0  0
   -8.2112    3.0637   26.9225 C   0  0  0  0  0  0  0  0  0  0  0  0
   -8.5108    5.3904   26.9436 C   0  0  0  0  0  0  0  0  0  0  0  0
   -7.9752    6.6981   27.2112 C   0  0  0  0  0  0  0  0  0  0  0  0
   -9.5213    2.8208   26.4688 C   0  0  0  0  0  0  0  0  0  0  0  0
  -10.2979    3.9327   26.2378 C   0  0  0  0  0  0  0  0  0  0  0  0
   -9.7894    5.2123   26.4395 C   0  0  0  0  0  0  0  0  0  0  0  0
   -7.3384    1.8199   27.1767 C   0  0  0  0  0  0  0  0  0  0  0  0
   -6.0583    2.0002   27.7739 C   0  0  0  0  0  0  0  0  0  0  0  0
   -5.2561    0.8407   28.0452 C   0  0  0  0  0  0  0  0  0  0  0  0
   -5.7395   -0.4126   27.8436 C   0  0  0  0  0  0  0  0  0  0  0  0
   -7.7607    0.5213   27.0242 C   0  0  0  0  0  0  0  0  0  0  0  0
   -7.0352   -0.5413   27.3645 C   0  0  0  0  0  0  0  0  0  0  0  0
   -8.6254    7.7675   26.8562 O   0  0  0  0  0  0  0  0  0  0  0  0
   -7.0390    6.8692   28.1220 O   0  0  0  0  0  0  0  0  0  0  0  0
   -4.0580    1.0872   28.5767 F   0  0  0  0  0  0  0  0  0  0  0  0
  -11.6243    3.7812   25.6539 C   0  0  0  0  0  0  0  0  0  0  0  0
  -12.7133    3.4661   26.4650 C   0  0  0  0  0  0  0  0  0  0  0  0
  -12.4985    3.3890   27.8988 C   0  0  0  0  0  0  0  0  0  0  0  0
  -13.6351    3.1122   28.7735 C   0  0  0  0  0  0  0  0  0  0  0  0
  -14.8492    2.9254   28.1846 C   0  0  0  0  0  0  0  0  0  0  0  0
  3  4  1  0
  2  8  1  0
  4 14  1  0
  4 15  2  0
 10 16  1  0
  6 17  1  0
 17 18  2  3
 18 19  1  0
 19 20  2  3
 20 21  1  0
  1  2  2  0
  2  5  1  0
  5  6  2  0
  6  7  1  0
  7  3  2  0
  3  1  1  0
  8  9  2  0
  9 10  1  0
 10 11  2  0
 11 13  1  0
 13 12  2  0
 12  8  1  0
M  END
$$$$
