No_7012-complexes_sdf/6BKW-FPZ/2024-09-17-14-21-01/
     RDKit          3D

 23 25  0  0  0  0  0  0  0  0999 V2000
   -7.7129    4.2099   27.0854 C   0  0  0  0  0  0  0  0  0  0  0  0
   -8.9133    4.4736   27.0998 C   0  0  0  0  0  0  0  0  0  0  0  0
   -9.4643    5.5426   27.7628 C   0  0  0  0  0  0  0  0  0  0  0  0
   -6.8373    4.9942   27.9785 C   0  0  0  0  0  0  0  0  0  0  0  0
   -7.3717    6.0428   28.6744 C   0  0  0  0  0  0  0  0  0  0  0  0
   -8.6869    6.3937   28.5345 C   0  0  0  0  0  0  0  0  0  0  0  0
   -9.8077    3.6185   26.2213 C   0  0  0  0  0  0  0  0  0  0  0  0
   -9.9211    2.3431   26.3758 C   0  0  0  0  0  0  0  0  0  0  0  0
   -9.5330    1.7263   27.4233 C   0  0  0  0  0  0  0  0  0  0  0  0
   -9.5820    0.2614   27.7119 C   0  0  0  0  0  0  0  0  0  0  0  0
  -10.3997    4.3512   25.0919 C   0  0  0  0  0  0  0  0  0  0  0  0
  -10.9123    3.8938   24.1280 C   0  0  0  0  0  0  0  0  0  0  0  0
  -11.5125    4.5275   23.0471 C   0  0  0  0  0  0  0  0  0  0  0  0
  -10.9489    2.4213   24.0063 C   0  0  0  0  0  0  0  0  0  0  0  0
  -10.4201    1.6590   25.1852 C   0  0  0  0  0  0  0  0  0  0  0  0
   -8.5520   -0.6244   27.5190 C   0  0  0  0  0  0  0  0  0  0  0  0
   -7.2701   -0.1041   27.1729 C   0  0  0  0  0  0  0  0  0  0  0  0
   -6.2901   -0.8509   26.9704 C   0  0  0  0  0  0  0  0  0  0  0  0
   -4.9452   -0.2663   26.7279 C   0  0  0  0  0  0  0  0  0  0  0  0
   -4.1230    0.0150   27.7211 C   0  0  0  0  0  0  0  0  0  0  0  0
   -4.5753    0.1961   29.0415 C   0  0  0  0  0  0  0  0  0  0  0  0
   -5.5883   -0.1324   29.4776 C   0  0  0  0  0  0  0  0  0  0  0  0
   -6.3014   -1.1345   28.6494 C   0  0  0  0  0  0  0  0  0  0  0  0
  2  7  1  0
  8  9  1  0
  9 10  2  3
 12 13  1  0
 10 16  1  0
 16 17  1  0
 17 18  1  0
 18 19  2  0
 19 20  1  0
 20 21  2  0
 21 22  1  0
 22 23  2  0
 23 18  1  0
  1  2  2  0
  2  3  1  0
  3  6  2  0
  6  5  1  0
  5  4  2  0
  4  1  1  0
  7  8  2  0
  8 15  1  0
 15 14  2  0
 14 12  1  0
 12 11  2  0
 11  7  1  0
M  END
$$$$
