No_7448-complexes_sdf/6BKW-FPZ/2024-09-17-14-21-01/
     RDKit          3D

 17 19  0  0  0  0  0  0  0  0999 V2000
   -7.2496    3.8871   27.4508 C   0  0  0  0  0  0  0  0  0  0  0  0
   -7.9379    4.9063   27.8518 C   0  0  0  0  0  0  0  0  0  0  0  0
   -9.3376    4.8647   27.7795 C   0  0  0  0  0  0  0  0  0  0  0  0
   -7.8544    2.6294   27.0414 C   0  0  0  0  0  0  0  0  0  0  0  0
   -9.2665    2.6175   27.0340 C   0  0  0  0  0  0  0  0  0  0  0  0
   -9.9836    3.7042   27.4150 C   0  0  0  0  0  0  0  0  0  0  0  0
   -9.9053    1.3367   26.6546 C   0  0  2  0  0  0  0  0  0  0  0  0
  -10.5453    0.7121   27.6210 C   0  0  0  0  0  0  0  0  0  0  0  0
  -11.2666    1.2948   28.5253 C   0  0  0  0  0  0  0  0  0  0  0  0
  -10.3514   -0.7370   27.8020 C   0  0  0  0  0  0  0  0  0  0  0  0
   -9.3286   -1.3615   27.2390 C   0  0  0  0  0  0  0  0  0  0  0  0
   -8.9943   -0.9915   26.0194 C   0  0  0  0  0  0  0  0  0  0  0  0
   -8.5639    0.4260   26.2940 C   0  0  2  0  0  0  0  0  0  0  0  0
   -7.3196    1.5269   26.5569 N   0  0  0  0  0  0  0  0  0  0  0  0
  -10.7418    1.5157   25.4175 C   0  0  0  0  0  0  0  0  0  0  0  0
  -11.7465    2.1627   25.4361 C   0  0  0  0  0  0  0  0  0  0  0  0
  -12.4965    2.4859   24.2659 C   0  0  0  0  0  0  0  0  0  0  0  0
  5  7  1  0
  7  8  1  0
  8  9  2  0
  8 10  1  0
 10 11  1  0
 11 12  1  0
  7 13  1  0
 13 12  1  1
  4 14  1  0
 13 14  1  0
  7 15  1  6
 15 16  2  3
 16 17  1  0
  1  2  2  0
  2  3  1  0
  3  6  2  0
  6  5  1  0
  5  4  2  0
  4  1  1  0
M  END
$$$$
