No_7201-complexes_sdf/6BKW-FPZ/2024-09-17-14-21-01/
     RDKit          3D

 18 20  0  0  0  0  0  0  0  0999 V2000
   -7.2496    3.8871   27.4508 C   0  0  0  0  0  0  0  0  0  0  0  0
   -8.5096    4.0291   27.2770 C   0  0  0  0  0  0  0  0  0  0  0  0
   -9.2677    5.1714   27.5773 C   0  0  0  0  0  0  0  0  0  0  0  0
   -9.2765    2.8248   26.8371 C   0  0  0  0  0  0  0  0  0  0  0  0
  -10.4623    3.0171   26.3236 C   0  0  0  0  0  0  0  0  0  0  0  0
  -10.6079    5.2706   27.2578 C   0  0  0  0  0  0  0  0  0  0  0  0
  -11.2590    4.1999   26.7166 C   0  0  0  0  0  0  0  0  0  0  0  0
   -6.3863    2.3934   27.5388 Cl  0  0  0  0  0  0  0  0  0  0  0  0
  -12.6905    4.3109   26.3547 C   0  0  0  0  0  0  0  0  0  0  0  0
  -13.6045    4.5008   27.3169 N   0  0  0  0  0  0  0  0  0  0  0  0
  -14.8319    5.0155   27.1354 C   0  0  1  0  0  0  0  0  0  0  0  0
  -13.1534    4.2311   25.0684 C   0  0  0  0  0  0  0  0  0  0  0  0
  -15.3284    4.9369   25.8361 C   0  0  0  0  0  0  0  0  0  0  0  0
  -14.4295    4.7400   24.7990 C   0  0  0  0  0  0  0  0  0  0  0  0
  -15.6524    5.2330   28.2052 N   0  0  0  0  0  0  0  0  0  0  0  0
  -15.2828    4.8457   29.4385 C   0  0  0  0  0  0  0  0  0  0  0  0
  -14.3182    3.9352   29.6105 C   0  0  0  0  0  0  0  0  0  0  0  0
  -13.1775    3.9396   28.6252 C   0  0  0  0  0  0  0  0  0  0  0  0
  1  2  1  0
  1  8  1  0
  7  9  1  0
  9 10  1  0
 10 11  1  0
  9 12  1  0
 13 14  1  0
 11 15  1  0
 15 16  1  0
 10 18  1  0
 17 18  1  0
 12 14  1  0
 11 13  1  6
 16 17  1  0
  2  3  2  0
  3  6  1  0
  6  7  2  0
  7  5  1  0
  5  4  2  0
  4  2  1  0
M  END
$$$$
