No_7088-complexes_sdf/6BKW-FPZ/2024-09-17-14-21-01/
     RDKit          3D

 40 44  0  0  0  0  0  0  0  0999 V2000
   -7.9040    3.9820   27.1177 C   0  0  2  0  0  0  0  0  0  0  0  0
   -7.8663    4.8694   27.9238 C   0  0  0  0  0  0  0  0  0  0  0  0
   -9.0491    3.8523   26.2542 C   0  0  1  0  0  0  0  0  0  0  0  0
   -9.9827    3.2456   26.6451 C   0  0  0  0  0  0  0  0  0  0  0  0
  -10.8316    2.5972   25.8351 C   0  0  2  0  0  0  0  0  0  0  0  0
  -10.7305    2.5445   24.6128 C   0  0  0  0  0  0  0  0  0  0  0  0
  -10.9984    1.6035   23.7243 C   0  0  0  0  0  0  0  0  0  0  0  0
   -8.1905    5.9969   27.8620 C   0  0  0  0  0  0  0  0  0  0  0  0
   -8.6240    6.7302   26.8054 C   0  0  0  0  0  0  0  0  0  0  0  0
  -10.7486    1.6512   22.2817 C   0  0  0  0  0  0  0  0  0  0  0  0
  -10.1072    2.8086   21.8054 C   0  0  0  0  0  0  0  0  0  0  0  0
   -9.9406    3.8951   22.6109 C   0  0  0  0  0  0  0  0  0  0  0  0
  -10.1577    3.8331   23.9333 C   0  0  0  0  0  0  0  0  0  0  0  0
   -9.4420    6.0653   25.8138 C   0  0  0  0  0  0  0  0  0  0  0  0
   -9.0643    4.9122   25.4269 N   0  0  0  0  0  0  0  0  0  0  0  0
   -9.8149    4.9486   24.7252 C   0  0  0  0  0  0  0  0  0  0  0  0
   -7.1070    2.6847   27.1569 C   0  0  0  0  0  0  0  0  0  0  0  0
   -6.5372    1.8692   27.3893 C   0  0  0  0  0  0  0  0  0  0  0  0
   -5.7887    0.6339   27.6411 C   0  0  2  0  0  0  0  0  0  0  0  0
   -6.1217   -0.5968   27.5910 C   0  0  0  0  0  0  0  0  0  0  0  0
   -7.1481   -1.0178   26.9707 C   0  0  0  0  0  0  0  0  0  0  0  0
   -7.6595   -2.2888   27.1133 C   0  0  0  0  0  0  0  0  0  0  0  0
   -8.9016   -2.6500   26.5290 C   0  0  0  0  0  0  0  0  0  0  0  0
   -9.5448   -1.7250   25.7387 C   0  0  0  0  0  0  0  0  0  0  0  0
   -9.0593   -0.4500   25.5495 C   0  0  0  0  0  0  0  0  0  0  0  0
   -7.9422   -0.0710   26.2025 C   0  0  0  0  0  0  0  0  0  0  0  0
   -4.4904    1.1619   28.4178 C   0  0  0  0  0  0  0  0  0  0  0  0
   -3.7935    0.3068   29.1373 O   0  0  0  0  0  0  0  0  0  0  0  0
   -4.1089    2.3836   28.2582 O   0  0  0  0  0  0  0  0  0  0  0  0
  -12.1274    1.9556   26.3755 C   0  0  2  0  0  0  0  0  0  0  0  0
  -13.2408    2.7139   26.6795 C   0  0  0  0  0  0  0  0  0  0  0  0
  -13.0815    3.8050   27.3381 C   0  0  0  0  0  0  0  0  0  0  0  0
  -14.1568    4.7722   27.5772 C   0  0  0  0  0  0  0  0  0  0  0  0
  -15.3263    4.5888   26.8966 C   0  0  0  0  0  0  0  0  0  0  0  0
  -14.3689    2.8631   25.7881 C   0  0  0  0  0  0  0  0  0  0  0  0
  -15.4722    3.5920   26.0190 C   0  0  0  0  0  0  0  0  0  0  0  0
  -11.8064    1.1821   27.7540 C   0  0  0  0  0  0  0  0  0  0  0  0
  -12.0843   -0.2169   27.8233 C   0  0  0  0  0  0  0  0  0  0  0  0
  -12.3612   -0.6649   28.7264 C   0  0  0  0  0  0  0  0  0  0  0  0
  -12.6140   -2.1387   28.7805 C   0  0  0  0  0  0  0  0  0  0  0  0
  1  2  1  0
  1  3  1  0
  3  4  1  1
  5  4  1  6
  5  6  1  0
  2  8  2  0
  8  9  1  0
  9 14  2  0
  3 15  1  0
 14 15  1  0
 13 16  1  0
 15 16  1  0
  1 17  1  1
 17 18  3  0
 19 18  1  1
 19 20  1  0
 20 21  1  0
 19 27  1  0
 27 28  2  0
 27 29  1  0
  5 30  1  0
 30 31  1  1
 30 37  1  0
 37 38  2  3
 38 39  1  0
 39 40  2  0
  6  7  2  0
  7 10  1  0
 10 11  2  0
 11 12  1  0
 12 13  2  0
 13  6  1  0
 31 32  2  0
 32 33  1  0
 33 34  2  0
 34 36  1  0
 36 35  2  0
 35 31  1  0
 21 22  2  0
 22 23  1  0
 23 24  2  0
 24 25  1  0
 25 26  2  0
 26 21  1  0
M  END
$$$$
