No_7368-complexes_sdf/6BKW-FPZ/2024-09-17-14-21-01/
     RDKit          3D

 13 13  0  0  0  0  0  0  0  0999 V2000
   -7.7129    4.2099   27.0854 C   0  0  0  0  0  0  0  0  0  0  0  0
   -8.2112    3.0637   26.9225 C   0  0  0  0  0  0  0  0  0  0  0  0
   -9.4446    2.8304   26.1868 C   0  0  0  0  0  0  0  0  0  0  0  0
   -8.4697    5.3956   26.7238 C   0  0  0  0  0  0  0  0  0  0  0  0
   -9.6172    5.2111   25.9513 C   0  0  0  0  0  0  0  0  0  0  0  0
  -10.0424    3.9782   25.6873 C   0  0  0  0  0  0  0  0  0  0  0  0
   -7.9172    6.7181   27.0124 C   0  0  0  0  0  0  0  0  0  0  0  0
   -7.2016    6.7379   28.0490 F   0  0  0  0  0  0  0  0  0  0  0  0
   -9.0277    7.5536   27.3596 F   0  0  0  0  0  0  0  0  0  0  0  0
   -7.7147    1.7030   27.3524 C   0  0  0  0  0  0  0  0  0  0  0  0
   -7.2493    0.9698   26.7278 O   0  0  0  0  0  0  0  0  0  0  0  0
   -7.3129    7.2966   26.0416 F   0  0  0  0  0  0  0  0  0  0  0  0
   -7.5157    1.6120   28.7111 O   0  0  0  0  0  0  0  0  0  0  0  0
  4  7  1  0
  7  8  1  0
  7  9  1  0
  2 10  1  0
 10 11  2  0
  7 12  1  0
 10 13  1  0
  1  2  2  0
  2  3  1  0
  3  6  2  0
  6  5  1  0
  5  4  2  0
  4  1  1  0
M  END
$$$$
