No_7006-complexes_sdf/6BKW-FPZ/2024-09-17-14-21-01/
     RDKit          3D

 19 20  0  0  0  0  0  0  0  0999 V2000
   -7.2496    3.8871   27.4508 C   0  0  0  0  0  0  0  0  0  0  0  0
   -7.9379    4.9063   27.8518 C   0  0  0  0  0  0  0  0  0  0  0  0
   -9.3376    4.8647   27.7795 C   0  0  0  0  0  0  0  0  0  0  0  0
   -7.8544    2.6294   27.0414 C   0  0  0  0  0  0  0  0  0  0  0  0
   -9.2852    2.6570   27.0666 C   0  0  0  0  0  0  0  0  0  0  0  0
  -10.0126    3.7528   27.4890 C   0  0  0  0  0  0  0  0  0  0  0  0
  -11.4647    3.4920   27.5096 C   0  0  0  0  0  0  0  0  0  0  0  0
  -12.3300    4.0243   27.5956 C   0  0  0  0  0  0  0  0  0  0  0  0
  -13.7653    3.7778   27.7697 C   0  0  0  0  0  0  0  0  0  0  0  0
  -13.9969    2.4429   27.8730 C   0  0  0  0  0  0  0  0  0  0  0  0
  -12.1322    2.0583   27.6710 C   0  0  1  0  0  0  0  0  0  0  0  0
   -7.1169    1.4828   26.7372 C   0  0  0  0  0  0  0  0  0  0  0  0
   -5.8992    1.5128   27.0728 F   0  0  0  0  0  0  0  0  0  0  0  0
   -7.7150    0.4237   27.5409 F   0  0  0  0  0  0  0  0  0  0  0  0
   -7.3420    1.0400   25.5270 F   0  0  0  0  0  0  0  0  0  0  0  0
   -7.1105    6.3842   28.2659 Cl  0  0  0  0  0  0  0  0  0  0  0  0
  -12.2810    1.0623   26.8718 C   0  0  0  0  0  0  0  0  0  0  0  0
  -12.0883   -0.0934   27.0456 C   0  0  0  0  0  0  0  0  0  0  0  0
  -11.9652   -1.0861   26.5782 C   0  0  0  0  0  0  0  0  0  0  0  0
  6  7  1  0
  7  8  2  0
  8  9  1  0
  9 10  2  0
  7 11  1  0
 10 11  1  0
  4 12  1  0
 12 13  1  0
 12 14  1  0
 12 15  1  0
  2 16  1  0
 11 17  1  6
 17 18  2  3
 18 19  1  0
  1  2  2  0
  2  3  1  0
  3  6  2  0
  6  5  1  0
  5  4  2  0
  4  1  1  0
M  END
$$$$
