No_7944-complexes_sdf/6BKW-FPZ/2024-09-17-14-21-01/
     RDKit          3D

 22 22  0  0  0  0  0  0  0  0999 V2000
   -7.2496    3.8871   27.4508 C   0  0  0  0  0  0  0  0  0  0  0  0
   -7.9379    4.9063   27.8518 C   0  0  1  0  0  0  0  0  0  0  0  0
   -7.5112    6.1898   27.6280 C   0  0  0  0  0  0  0  0  0  0  0  0
   -9.3085    4.6933   28.2930 C   0  0  0  0  0  0  0  0  0  0  0  0
   -6.9424    2.7755   27.7938 C   0  0  0  0  0  0  0  0  0  0  0  0
   -6.0490    1.8086   27.3012 C   0  0  0  0  0  0  0  0  0  0  0  0
   -5.1953    1.1913   28.0796 C   0  0  0  0  0  0  0  0  0  0  0  0
   -4.1092    1.0528   28.1757 C   0  0  0  0  0  0  0  0  0  0  0  0
   -3.2281    1.2126   27.0350 C   0  0  0  0  0  0  0  0  0  0  0  0
   -2.5176    1.9375   26.5943 F   0  0  0  0  0  0  0  0  0  0  0  0
   -2.8234   -0.1761   26.7355 F   0  0  0  0  0  0  0  0  0  0  0  0
   -8.4429    7.1752   27.2124 N   0  0  0  0  0  0  0  0  0  0  0  0
  -10.2594    4.4220   27.4304 C   0  0  0  0  0  0  0  0  0  0  0  0
  -11.5555    4.0634   28.0551 C   0  0  0  0  0  0  0  0  0  0  0  0
  -12.7274    4.1220   27.3694 C   0  0  0  0  0  0  0  0  0  0  0  0
  -12.6098    4.2174   25.9347 C   0  0  0  0  0  0  0  0  0  0  0  0
  -11.3741    4.4792   25.3222 C   0  0  0  0  0  0  0  0  0  0  0  0
  -10.2490    4.6577   26.1030 C   0  0  0  0  0  0  0  0  0  0  0  0
   -8.1482    7.9914   26.1214 C   0  0  0  0  0  0  0  0  0  0  0  0
  -13.7902    4.1593   25.0372 C   0  0  0  0  0  0  0  0  0  0  0  0
  -13.6248    4.1561   23.7478 C   0  0  0  0  0  0  0  0  0  0  0  0
  -12.2832    4.3474   23.1662 C   0  0  0  0  0  0  0  0  0  0  0  0
  1  2  1  0
  2  3  1  6
  2  4  1  0
  1  5  2  3
  5  6  1  0
  6  7  2  3
  7  8  1  0
  8  9  1  0
  9 10  1  0
  9 11  1  0
  3 12  1  0
  4 13  1  0
 12 19  1  0
 16 20  1  0
 20 21  2  3
 21 22  1  0
 13 14  2  0
 14 15  1  0
 15 16  2  0
 16 17  1  0
 17 18  2  0
 18 13  1  0
M  END
$$$$
