No_7629-complexes_sdf/6BKW-FPZ/2024-09-17-14-21-01/
     RDKit          3D

 26 28  0  0  0  0  0  0  0  0999 V2000
   -7.9040    3.9820   27.1177 C   0  0  0  0  0  0  0  0  0  0  0  0
   -9.0711    4.3164   27.0630 C   0  0  0  0  0  0  0  0  0  0  0  0
   -9.5294    5.4517   27.7215 C   0  0  0  0  0  0  0  0  0  0  0  0
   -7.4336    2.7132   26.5681 C   0  0  0  0  0  0  0  0  0  0  0  0
   -8.3353    1.8569   26.0442 C   0  0  0  0  0  0  0  0  0  0  0  0
   -9.6477    2.2853   25.9146 C   0  0  1  0  0  0  0  0  0  0  0  0
  -10.0346    3.4497   26.4483 C   0  0  0  0  0  0  0  0  0  0  0  0
   -7.8750    0.5509   25.5918 C   0  0  0  0  0  0  0  0  0  0  0  0
   -7.0299   -0.1710   26.4003 C   0  0  0  0  0  0  0  0  0  0  0  0
   -6.7305    0.3654   27.7518 C   0  0  0  0  0  0  0  0  0  0  0  0
   -5.7936   -0.3183   28.5249 C   0  0  0  0  0  0  0  0  0  0  0  0
   -4.6927    0.4843   29.0078 C   0  0  0  0  0  0  0  0  0  0  0  0
   -3.7403   -0.1603   29.8161 C   0  0  0  0  0  0  0  0  0  0  0  0
   -2.7129    0.5842   30.3931 C   0  0  0  0  0  0  0  0  0  0  0  0
   -3.8452   -1.5695   29.8972 C   0  0  0  0  0  0  0  0  0  0  0  0
   -4.8946   -2.2656   29.3834 C   0  0  0  0  0  0  0  0  0  0  0  0
   -5.8307   -1.6159   28.6949 C   0  0  0  0  0  0  0  0  0  0  0  0
  -10.5683    1.4909   25.0947 C   0  0  0  0  0  0  0  0  0  0  0  0
  -11.4653    0.7626   25.6023 C   0  0  0  0  0  0  0  0  0  0  0  0
  -10.4918    1.5875   23.6468 C   0  0  0  0  0  0  0  0  0  0  0  0
  -11.1973    0.8222   22.8398 C   0  0  0  0  0  0  0  0  0  0  0  0
  -12.3286   -0.0738   24.8074 C   0  0  0  0  0  0  0  0  0  0  0  0
  -12.1939    0.0237   23.4145 C   0  0  0  0  0  0  0  0  0  0  0  0
  -13.0637   -0.7895   22.5690 C   0  0  0  0  0  0  0  0  0  0  0  0
  -13.0390   -0.9615   21.4710 C   0  0  0  0  0  0  0  0  0  0  0  0
  -11.9905   -0.2599   20.7626 C   0  0  0  0  0  0  0  0  0  0  0  0
  1  2  1  0
  2  3  2  0
  1  4  1  0
  4  5  1  0
  5  6  1  0
  2  7  1  0
  6  7  1  0
  5  8  1  0
  8  9  2  3
  9 10  1  0
 10 11  1  0
  6 18  1  6
 23 24  1  0
 24 25  2  3
 25 26  1  0
 14 13  1  0
 11 12  2  0
 12 13  1  0
 13 15  2  0
 15 16  1  0
 16 17  2  0
 17 11  1  0
 18 19  2  0
 19 22  1  0
 22 23  2  0
 23 21  1  0
 21 20  2  0
 20 18  1  0
M  END
$$$$
