No_7873-complexes_sdf/6BKW-FPZ/2024-09-17-14-21-01/
     RDKit          3D

 17 19  0  0  0  0  0  0  0  0999 V2000
   -7.2496    3.8871   27.4508 C   0  0  0  0  0  0  0  0  0  0  0  0
   -7.9379    4.9063   27.8518 C   0  0  0  0  0  0  0  0  0  0  0  0
   -8.7729    5.5444   27.0168 C   0  0  0  0  0  0  0  0  0  0  0  0
   -6.2858    3.2138   28.3467 C   0  0  0  0  0  0  0  0  0  0  0  0
   -9.2459    4.9714   25.8185 C   0  0  0  0  0  0  0  0  0  0  0  0
   -8.7245    3.6550   25.5132 C   0  0  0  0  0  0  0  0  0  0  0  0
   -7.8326    3.1219   26.4052 C   0  0  0  0  0  0  0  0  0  0  0  0
   -5.6873    1.9697   27.9543 C   0  0  0  0  0  0  0  0  0  0  0  0
   -6.3755    1.1447   27.0491 C   0  0  0  0  0  0  0  0  0  0  0  0
   -7.3924    1.7275   26.1973 C   0  0  0  0  0  0  0  0  0  0  0  0
   -4.5975    1.4524   28.7713 C   0  0  0  0  0  0  0  0  0  0  0  0
   -4.0886    0.1056   28.4826 C   0  0  0  0  0  0  0  0  0  0  0  0
   -4.8198   -0.6230   27.4909 C   0  0  0  0  0  0  0  0  0  0  0  0
   -5.9140   -0.1265   26.7730 C   0  0  0  0  0  0  0  0  0  0  0  0
   -2.9791   -0.3963   29.2317 C   0  0  0  0  0  0  0  0  0  0  0  0
   -1.8881   -0.5010   28.7181 O   0  0  0  0  0  0  0  0  0  0  0  0
   -3.1659   -0.6032   30.5329 O   0  0  0  0  0  0  0  0  0  0  0  0
 12 15  1  0
 15 16  2  0
 15 17  1  0
  9 14  1  0
 14 13  2  0
 13 12  1  0
 12 11  2  0
 11  8  1  0
  1  4  1  0
  4  8  2  0
  8  9  1  0
  9 10  2  0
 10  7  1  0
  1  2  2  0
  2  3  1  0
  3  5  2  0
  5  6  1  0
  6  7  2  0
  7  1  1  0
M  END
$$$$
