No_7530-complexes_sdf/6BKW-FPZ/2024-09-17-14-21-01/
     RDKit          3D

 13 14  0  0  0  0  0  0  0  0999 V2000
   -7.9040    3.9820   27.1177 C   0  0  0  0  0  0  0  0  0  0  0  0
   -7.8663    4.8694   27.9238 C   0  0  0  0  0  0  0  0  0  0  0  0
   -9.0491    3.8523   26.2542 C   0  0  0  0  0  0  0  0  0  0  0  0
   -8.7661    5.9491   27.9690 C   0  0  0  0  0  0  0  0  0  0  0  0
   -9.9295    4.8502   26.2323 C   0  0  0  0  0  0  0  0  0  0  0  0
   -9.8077    5.9288   27.0933 C   0  0  0  0  0  0  0  0  0  0  0  0
   -6.8002    2.6256   27.2024 Cl  0  0  0  0  0  0  0  0  0  0  0  0
   -8.9363    2.6143   25.3326 C   0  0  0  0  0  0  0  0  0  0  0  0
   -9.8079    2.6373   24.2795 C   0  0  0  0  0  0  0  0  0  0  0  0
   -9.7861    1.5676   23.3481 C   0  0  0  0  0  0  0  0  0  0  0  0
   -8.8974    0.4592   23.6143 C   0  0  0  0  0  0  0  0  0  0  0  0
   -8.1392    0.4546   24.7707 C   0  0  0  0  0  0  0  0  0  0  0  0
   -8.1362    1.5206   25.6154 C   0  0  0  0  0  0  0  0  0  0  0  0
  1  7  1  0
  3  8  1  0
  1  2  2  0
  2  4  1  0
  4  6  2  0
  6  5  1  0
  5  3  2  0
  3  1  1  0
  8  9  2  0
  9 10  1  0
 10 11  2  0
 11 12  1  0
 12 13  2  0
 13  8  1  0
M  END
$$$$
