No_7958-complexes_sdf/6BKW-FPZ/2024-09-17-14-21-01/
     RDKit          3D

 21 22  0  0  0  0  0  0  0  0999 V2000
   -7.2496    3.8871   27.4508 C   0  0  0  0  0  0  0  0  0  0  0  0
   -8.5096    4.0291   27.2770 C   0  0  0  0  0  0  0  0  0  0  0  0
   -9.2677    5.1714   27.5773 C   0  0  0  0  0  0  0  0  0  0  0  0
   -9.2765    2.8248   26.8371 C   0  0  0  0  0  0  0  0  0  0  0  0
   -8.6731    1.7312   26.5464 C   0  0  0  0  0  0  0  0  0  0  0  0
   -6.5216    2.6580   27.4010 C   0  0  0  0  0  0  0  0  0  0  0  0
   -7.2494    1.5864   26.9125 C   0  0  0  0  0  0  0  0  0  0  0  0
   -8.5929    6.3122   27.6805 N   0  0  0  0  0  0  0  0  0  0  0  0
  -10.4454    5.1571   28.1274 O   0  0  0  0  0  0  0  0  0  0  0  0
   -6.5514    0.3262   26.6752 C   0  0  1  0  0  0  0  0  0  0  0  0
   -5.5347    0.1300   27.2416 O   0  0  0  0  0  0  0  0  0  0  0  0
   -7.0794   -0.5464   26.0046 F   0  0  0  0  0  0  0  0  0  0  0  0
   -5.2054    0.2295   28.5135 C   0  0  0  0  0  0  0  0  0  0  0  0
   -3.8823    0.7161   28.8552 C   0  0  0  0  0  0  0  0  0  0  0  0
   -3.3752    0.1106   30.0579 C   0  0  0  0  0  0  0  0  0  0  0  0
   -4.2173   -0.4348   31.0773 C   0  0  0  0  0  0  0  0  0  0  0  0
   -3.7055   -0.7675   32.2826 C   0  0  0  0  0  0  0  0  0  0  0  0
   -4.5329   -1.1970   33.3506 C   0  0  0  0  0  0  0  0  0  0  0  0
   -5.9086   -1.4063   32.9774 C   0  0  0  0  0  0  0  0  0  0  0  0
   -6.3541   -1.2493   31.7206 C   0  0  0  0  0  0  0  0  0  0  0  0
   -5.5141   -0.7546   30.7716 C   0  0  0  0  0  0  0  0  0  0  0  0
  2  3  1  0
  3  8  1  0
  3  9  2  0
  7 10  1  0
 10 11  1  0
 10 12  1  1
 11 13  1  0
 13 14  1  0
 14 15  2  3
 15 16  1  0
  1  2  2  0
  2  4  1  0
  4  5  2  0
  5  7  1  0
  7  6  2  0
  6  1  1  0
 16 17  2  0
 17 18  1  0
 18 19  2  0
 19 20  1  0
 20 21  2  0
 21 16  1  0
M  END
$$$$
