No_7945-complexes_sdf/6BKW-FPZ/2024-09-17-14-21-01/
     RDKit          3D

 24 28  0  0  0  0  0  0  0  0999 V2000
   -7.9040    3.9820   27.1177 C   0  0  0  0  0  0  0  0  0  0  0  0
   -9.0711    4.3164   27.0630 C   0  0  0  0  0  0  0  0  0  0  0  0
   -9.8698    3.9665   25.9495 C   0  0  0  0  0  0  0  0  0  0  0  0
   -7.0332    4.5030   28.2025 C   0  0  0  0  0  0  0  0  0  0  0  0
   -9.4357    2.9501   25.1393 C   0  0  0  0  0  0  0  0  0  0  0  0
  -10.2810    2.6266   24.0411 C   0  0  0  0  0  0  0  0  0  0  0  0
   -7.3978    5.7069   28.6170 C   0  0  0  0  0  0  0  0  0  0  0  0
  -11.2623    3.4887   23.6203 C   0  0  0  0  0  0  0  0  0  0  0  0
  -11.6874    4.5510   24.4053 C   0  0  0  0  0  0  0  0  0  0  0  0
  -10.9575    4.8264   25.5518 C   0  0  0  0  0  0  0  0  0  0  0  0
   -9.3494    5.5711   27.8051 C   0  0  0  0  0  0  0  0  0  0  0  0
   -8.5364    6.2195   28.5695 C   0  0  0  0  0  0  0  0  0  0  0  0
   -9.8657    1.4869   23.1643 C   0  0  0  0  0  0  0  0  0  0  0  0
   -8.9403    0.6266   23.6035 C   0  0  0  0  0  0  0  0  0  0  0  0
   -8.4845    0.7336   24.8933 C   0  0  0  0  0  0  0  0  0  0  0  0
   -8.6013    1.9129   25.6628 C   0  0  0  0  0  0  0  0  0  0  0  0
  -12.0036    3.2388   22.3666 C   0  0  0  0  0  0  0  0  0  0  0  0
  -12.7595    4.0452   21.9817 C   0  0  0  0  0  0  0  0  0  0  0  0
  -13.4780    3.7672   20.7636 C   0  0  0  0  0  0  0  0  0  0  0  0
  -13.1366    2.6993   19.9828 C   0  0  0  0  0  0  0  0  0  0  0  0
  -12.1374    1.8646   20.4438 C   0  0  0  0  0  0  0  0  0  0  0  0
  -11.5348    2.1119   21.6070 C   0  0  0  0  0  0  0  0  0  0  0  0
  -10.5401    1.2539   22.0144 C   0  0  0  0  0  0  0  0  0  0  0  0
  -10.2138    0.2870   21.2642 O   0  0  0  0  0  0  0  0  0  0  0  0
  8 17  1  0
 13 23  1  0
 22 23  1  0
 23 24  2  0
  3  2  1  0
  1  2  2  0
  2 11  1  0
 11 12  2  0
 12  7  1  0
  7  4  2  0
  4  1  1  0
 17 18  2  0
 18 19  1  0
 19 20  2  0
 20 21  1  0
 21 22  2  0
 22 17  1  0
  6 13  2  0
 13 14  1  0
 14 15  2  0
 15 16  1  0
 16  5  2  0
  3  5  1  0
  5  6  1  0
  6  8  1  0
  8  9  2  0
  9 10  1  0
 10  3  2  0
M  END
$$$$
