No_7180-complexes_sdf/6BKW-FPZ/2024-09-17-14-21-01/
     RDKit          3D

 15 16  0  0  0  0  0  0  0  0999 V2000
   -7.7129    4.2099   27.0854 C   0  0  0  0  0  0  0  0  0  0  0  0
   -8.9133    4.4736   27.0998 C   0  0  0  0  0  0  0  0  0  0  0  0
   -9.7135    3.9633   26.0300 C   0  0  0  0  0  0  0  0  0  0  0  0
   -6.8655    4.8824   28.1822 C   0  0  0  0  0  0  0  0  0  0  0  0
   -9.2221    2.8459   25.3619 C   0  0  0  0  0  0  0  0  0  0  0  0
  -10.0341    2.3269   24.3143 C   0  0  0  0  0  0  0  0  0  0  0  0
   -9.5680    1.1749   23.6219 C   0  0  0  0  0  0  0  0  0  0  0  0
   -8.4462    0.4960   24.1310 C   0  0  0  0  0  0  0  0  0  0  0  0
   -7.8140    0.9863   25.2813 C   0  0  0  0  0  0  0  0  0  0  0  0
   -8.1834    2.1019   25.9245 C   0  0  0  0  0  0  0  0  0  0  0  0
   -7.2907    2.7901   26.8076 C   0  0  0  0  0  0  0  0  0  0  0  0
   -9.3615    5.8411   27.5928 C   0  0  0  0  0  0  0  0  0  0  0  0
  -10.2588    0.6249   22.4794 C   0  0  0  0  0  0  0  0  0  0  0  0
   -9.7976   -0.4343   21.8483 C   0  0  0  0  0  0  0  0  0  0  0  0
   -8.6007   -1.1162   22.3689 C   0  0  0  0  0  0  0  0  0  0  0  0
  1  4  1  0
  2 12  1  0
  7 13  1  0
 13 14  2  3
 14 15  1  0
  1  2  2  0
  2  3  1  0
  3  5  2  0
 10 11  2  0
 11  1  1  0
  5  6  1  0
  6  7  2  0
  7  8  1  0
  8  9  2  0
  9 10  1  0
 10  5  1  0
M  END
$$$$
