No_8811-complexes_sdf/6BKW-FPZ/2024-09-17-14-21-01/
     RDKit          3D

 19 21  0  0  0  0  0  0  0  0999 V2000
   -7.9040    3.9820   27.1177 C   0  0  0  0  0  0  0  0  0  0  0  0
   -7.8663    4.8694   27.9238 C   0  0  0  0  0  0  0  0  0  0  0  0
   -7.4547    2.7080   27.4594 C   0  0  0  0  0  0  0  0  0  0  0  0
   -7.9337    1.5946   26.8372 C   0  0  0  0  0  0  0  0  0  0  0  0
   -8.9032    1.7881   25.8510 C   0  0  0  0  0  0  0  0  0  0  0  0
   -9.3787    2.9871   25.5530 C   0  0  0  0  0  0  0  0  0  0  0  0
   -8.9781    4.0300   26.2200 C   0  0  0  0  0  0  0  0  0  0  0  0
   -8.0014    6.0716   27.8481 N   0  0  0  0  0  0  0  0  0  0  0  0
  -10.3904    3.3629   24.4394 C   0  0  0  0  0  0  0  0  0  0  0  0
  -11.3267    2.7753   24.1481 C   0  0  0  0  0  0  0  0  0  0  0  0
  -12.2167    3.1826   23.0573 C   0  0  0  0  0  0  0  0  0  0  0  0
  -11.8870    4.3697   22.3695 C   0  0  0  0  0  0  0  0  0  0  0  0
  -10.2271    4.6526   23.6050 C   0  0  0  0  0  0  0  0  0  0  0  0
  -10.8674    5.1158   22.7332 C   0  0  0  0  0  0  0  0  0  0  0  0
   -8.7211    6.6210   26.8575 C   0  0  0  0  0  0  0  0  0  0  0  0
   -9.2428    5.5650   25.9825 C   0  0  0  0  0  0  0  0  0  0  0  0
   -7.3982    0.2293   27.0613 C   0  0  0  0  0  0  0  0  0  0  0  0
   -8.0163   -0.8843   26.9631 C   0  0  0  0  0  0  0  0  0  0  0  0
   -7.4848   -2.1241   27.3481 C   0  0  0  0  0  0  0  0  0  0  0  0
  6  9  1  0
  4 17  1  0
 17 18  2  3
 18 19  1  0
  1  2  2  0
  2  8  1  0
  8 15  2  0
 15 16  1  0
 16  7  2  0
  9 10  2  0
 10 11  1  0
 11 12  2  0
 12 14  1  0
 14 13  2  0
 13  9  1  0
  1  3  1  0
  3  4  2  0
  4  5  1  0
  5  6  2  0
  6  7  1  0
  7  1  1  0
M  END
$$$$
