No_843-complexes_sdf/6BKW-FPZ/2024-09-17-14-21-01/
     RDKit          3D

 25 28  0  0  0  0  0  0  0  0999 V2000
   -7.7129    4.2099   27.0854 C   0  0  0  0  0  0  0  0  0  0  0  0
   -7.7814    5.1722   27.8972 C   0  0  0  0  0  0  0  0  0  0  0  0
   -8.8776    3.8408   26.3416 C   0  0  0  0  0  0  0  0  0  0  0  0
   -9.9844    4.6492   26.4743 C   0  0  0  0  0  0  0  0  0  0  0  0
   -8.8033    6.1375   27.8728 C   0  0  0  0  0  0  0  0  0  0  0  0
   -9.9554    5.8280   27.1736 C   0  0  0  0  0  0  0  0  0  0  0  0
   -8.8740    2.6184   25.5584 C   0  0  0  0  0  0  0  0  0  0  0  0
   -8.2513    1.5373   26.0855 N   0  0  0  0  0  0  0  0  0  0  0  0
   -8.1045    0.3937   25.4062 C   0  0  0  0  0  0  0  0  0  0  0  0
   -7.1654   -0.5315   25.8981 C   0  0  0  0  0  0  0  0  0  0  0  0
   -6.4288   -0.2427   27.0928 C   0  0  0  0  0  0  0  0  0  0  0  0
   -6.5618    1.0371   27.7061 C   0  0  0  0  0  0  0  0  0  0  0  0
   -7.3868    1.9382   27.1706 C   0  0  1  0  0  0  0  0  0  0  0  0
   -7.2810    3.1737   27.6052 N   0  0  0  0  0  0  0  0  0  0  0  0
   -9.5842    2.5530   24.5431 O   0  0  0  0  0  0  0  0  0  0  0  0
   -6.7106    5.6273   28.6078 F   0  0  0  0  0  0  0  0  0  0  0  0
   -5.5692   -1.2966   27.6926 C   0  0  0  0  0  0  0  0  0  0  0  0
   -4.8627   -1.0679   28.7111 C   0  0  0  0  0  0  0  0  0  0  0  0
   -5.0343   -1.7303   29.9207 C   0  0  0  0  0  0  0  0  0  0  0  0
   -4.2774   -1.3890   31.1529 C   0  0  0  0  0  0  0  0  0  0  0  0
   -3.4369   -0.2809   31.0813 C   0  0  0  0  0  0  0  0  0  0  0  0
   -3.2818    0.4281   29.8988 C   0  0  0  0  0  0  0  0  0  0  0  0
   -3.9850    0.0664   28.7785 C   0  0  0  0  0  0  0  0  0  0  0  0
   -6.0239   -2.4914   27.4919 O   0  0  0  0  0  0  0  0  0  0  0  0
   -2.4886    0.1661   32.4894 Cl  0  0  0  0  0  0  0  0  0  0  0  0
  3  7  1  0
  7  8  1  0
  8  9  1  0
 10 11  1  0
  8 13  1  0
 13 12  1  6
  1 14  1  0
 13 14  1  0
  7 15  2  0
  2 16  1  0
 11 17  1  0
 17 18  1  0
 17 24  2  0
 21 25  1  0
  9 10  1  0
 11 12  1  0
 18 19  2  0
 19 20  1  0
 20 21  2  0
 21 22  1  0
 22 23  2  0
 23 18  1  0
  1  2  2  0
  2  5  1  0
  5  6  2  0
  6  4  1  0
  4  3  2  0
  3  1  1  0
M  END
$$$$
