No_8909-complexes_sdf/6BKW-FPZ/2024-09-17-14-21-01/
     RDKit          3D

 24 27  0  0  0  0  0  0  0  0999 V2000
   -7.7129    4.2099   27.0854 C   0  0  0  0  0  0  0  0  0  0  0  0
   -8.2112    3.0637   26.9225 C   0  0  0  0  0  0  0  0  0  0  0  0
   -7.5138    1.9223   27.4249 C   0  0  0  0  0  0  0  0  0  0  0  0
   -8.5309    5.4147   26.8151 C   0  0  0  0  0  0  0  0  0  0  0  0
   -9.6817    5.2393   26.1100 C   0  0  0  0  0  0  0  0  0  0  0  0
  -10.1032    3.9957   25.8534 C   0  0  0  0  0  0  0  0  0  0  0  0
   -9.4034    2.8430   26.2573 C   0  0  0  0  0  0  0  0  0  0  0  0
   -6.8643    1.0176   26.6720 C   0  0  0  0  0  0  0  0  0  0  0  0
   -7.2970    0.6056   25.5144 C   0  0  0  0  0  0  0  0  0  0  0  0
   -6.8164   -0.5273   24.8138 C   0  0  0  0  0  0  0  0  0  0  0  0
   -5.6546   -1.0956   25.3527 C   0  0  0  0  0  0  0  0  0  0  0  0
   -5.1935   -0.7540   26.6220 C   0  0  0  0  0  0  0  0  0  0  0  0
   -5.7776    0.2736   27.3535 C   0  0  0  0  0  0  0  0  0  0  0  0
   -7.9928    6.7666   27.0792 C   0  0  0  0  0  0  0  0  0  0  0  0
   -8.6729    7.8638   26.7377 N   0  0  0  0  0  0  0  0  0  0  0  0
   -6.9140    6.8375   27.7807 O   0  0  0  0  0  0  0  0  0  0  0  0
   -4.0231   -1.4475   27.2105 C   0  0  0  0  0  0  0  0  0  0  0  0
   -3.3733   -2.1925   26.7227 C   0  0  0  0  0  0  0  0  0  0  0  0
   -2.3650   -2.7463   27.0157 C   0  0  0  0  0  0  0  0  0  0  0  0
   -1.7596   -2.4267   28.3388 C   0  0  0  0  0  0  0  0  0  0  0  0
   -2.4274   -1.4406   29.0441 C   0  0  0  0  0  0  0  0  0  0  0  0
   -3.5582   -0.7810   28.4435 C   0  0  0  0  0  0  0  0  0  0  0  0
   -4.2749    0.2557   29.1280 C   0  0  0  0  0  0  0  0  0  0  0  0
   -5.3239    0.8109   28.5227 C   0  0  0  0  0  0  0  0  0  0  0  0
  2  3  1  0
  4 14  1  0
 14 15  1  0
 14 16  2  0
  3  8  1  0
 17 18  1  0
 18 19  2  0
 19 20  1  0
 20 21  2  0
 21 22  1  0
 13 24  2  0
 24 23  1  0
 23 22  2  0
 22 17  1  0
 17 12  2  0
  1  2  2  0
  2  7  1  0
  7  6  2  0
  6  5  1  0
  5  4  2  0
  4  1  1  0
  8  9  2  0
  9 10  1  0
 10 11  2  0
 11 12  1  0
 12 13  1  0
 13  8  1  0
M  END
$$$$
