No_8273-complexes_sdf/6BKW-FPZ/2024-09-17-14-21-01/
     RDKit          3D

 40 45  0  0  0  0  0  0  0  0999 V2000
   -7.9040    3.9820   27.1177 C   0  0  0  0  0  0  0  0  0  0  0  0
   -7.8663    4.8694   27.9238 C   0  0  0  0  0  0  0  0  0  0  0  0
   -7.4547    2.7080   27.4594 C   0  0  0  0  0  0  0  0  0  0  0  0
   -8.7044    6.0412   27.8492 C   0  0  0  0  0  0  0  0  0  0  0  0
   -7.9501    1.5743   26.8848 C   0  0  0  0  0  0  0  0  0  0  0  0
   -8.8773    1.7289   25.8707 C   0  0  0  0  0  0  0  0  0  0  0  0
   -9.3595    2.9624   25.5238 C   0  0  0  0  0  0  0  0  0  0  0  0
   -9.0069    4.0555   26.2453 C   0  0  0  0  0  0  0  0  0  0  0  0
   -9.5933    5.3054   26.1815 C   0  0  0  0  0  0  0  0  0  0  0  0
   -9.4139    6.3673   26.9051 C   0  0  0  0  0  0  0  0  0  0  0  0
   -7.3276    0.2404   27.1272 C   0  0  0  0  0  0  0  0  0  0  0  0
   -7.9898   -0.7380   27.4129 O   0  0  0  0  0  0  0  0  0  0  0  0
   -6.0378    0.2633   27.4984 O   0  0  0  0  0  0  0  0  0  0  0  0
   -5.2181   -0.6899   27.4547 C   0  0  0  0  0  0  0  0  0  0  0  0
   -3.9692   -0.1922   27.5988 C   0  0  0  0  0  0  0  0  0  0  0  0
   -3.8398    0.9954   28.3543 C   0  0  0  0  0  0  0  0  0  0  0  0
   -3.9829    0.8828   29.6542 O   0  0  0  0  0  0  0  0  0  0  0  0
   -3.0116   -1.1070   28.0946 O   0  0  0  0  0  0  0  0  0  0  0  0
  -10.3178    3.0309   24.4244 C   0  0  0  0  0  0  0  0  0  0  0  0
  -10.0366    2.4439   23.2352 C   0  0  0  0  0  0  0  0  0  0  0  0
  -10.8813    2.5867   22.1104 C   0  0  0  0  0  0  0  0  0  0  0  0
  -10.6097    1.8562   20.9383 C   0  0  0  0  0  0  0  0  0  0  0  0
   -9.6398    0.8132   21.0136 C   0  0  0  0  0  0  0  0  0  0  0  0
   -8.8884    0.5767   22.1726 C   0  0  0  0  0  0  0  0  0  0  0  0
   -9.0945    1.4233   23.3005 C   0  0  0  0  0  0  0  0  0  0  0  0
   -7.9039   -0.4914   22.1784 C   0  0  0  0  0  0  0  0  0  0  0  0
   -7.9401   -1.6313   21.5217 C   0  0  0  0  0  0  0  0  0  0  0  0
   -6.9234   -2.6064   21.6067 C   0  0  0  0  0  0  0  0  0  0  0  0
   -5.9227   -2.4536   22.5654 C   0  0  0  0  0  0  0  0  0  0  0  0
   -5.9606   -1.3453   23.4359 C   0  0  0  0  0  0  0  0  0  0  0  0
   -6.8883   -0.3956   23.3063 C   0  0  0  0  0  0  0  0  0  0  0  0
   -5.0596   -1.2843   24.4345 O   0  0  0  0  0  0  0  0  0  0  0  0
   -2.8716   -1.4101   29.0836 C   0  0  0  0  0  0  0  0  0  0  0  0
   -3.0106   -0.2295   30.0799 C   0  0  2  0  0  0  0  0  0  0  0  0
   -3.4055   -0.5969   31.4244 N   0  0  0  0  0  0  0  0  0  0  0  0
   -2.6622   -0.4270   32.5374 C   0  0  0  0  0  0  0  0  0  0  0  0
   -4.6630   -1.1889   31.5712 C   0  0  0  0  0  0  0  0  0  0  0  0
   -5.1979   -1.3570   32.9035 C   0  0  0  0  0  0  0  0  0  0  0  0
   -3.0729   -0.6652   33.8474 C   0  0  0  0  0  0  0  0  0  0  0  0
   -4.3905   -1.1229   34.0498 C   0  0  0  0  0  0  0  0  0  0  0  0
  5 11  1  0
 11 12  2  0
 11 13  1  0
 13 14  1  0
 14 15  2  3
 15 16  1  0
 16 17  1  0
 15 18  1  0
  7 19  1  0
 24 26  1  0
 30 32  1  0
 18 33  1  0
 17 34  1  0
 33 34  1  0
 34 35  1  1
 35 36  1  0
 35 37  1  0
 38 40  1  0
 39 40  1  0
 19 20  1  0
 36 39  1  0
 38 37  1  0
  1  3  1  0
  3  5  2  0
  5  6  1  0
  6  7  2  0
  7  8  1  0
  1  2  2  0
  2  4  1  0
  4 10  2  0
 10  9  1  0
  9  8  2  0
  8  1  1  0
 20 21  2  0
 21 22  1  0
 22 23  2  0
 23 24  1  0
 24 25  2  0
 25 20  1  0
 26 27  2  0
 27 28  1  0
 28 29  2  0
 29 30  1  0
 30 31  2  0
 31 26  1  0
M  END
$$$$
