No_8984-complexes_sdf/6BKW-FPZ/2024-09-17-14-21-01/
     RDKit          3D

 17 17  0  0  0  0  0  0  0  0999 V2000
   -7.9040    3.9820   27.1177 C   0  0  0  0  0  0  0  0  0  0  0  0
   -9.0711    4.3164   27.0630 C   0  0  0  0  0  0  0  0  0  0  0  0
   -9.5294    5.4517   27.7215 C   0  0  0  0  0  0  0  0  0  0  0  0
   -6.9328    4.7309   27.8881 C   0  0  0  0  0  0  0  0  0  0  0  0
   -7.3377    5.8421   28.5537 C   0  0  0  0  0  0  0  0  0  0  0  0
   -8.6411    6.2609   28.3972 C   0  0  0  0  0  0  0  0  0  0  0  0
  -10.0467    3.4917   26.2630 C   0  0  0  0  0  0  0  0  0  0  0  0
  -10.6279    2.7594   26.7109 N   0  0  0  0  0  0  0  0  0  0  0  0
  -10.6837    2.4170   27.9130 C   0  0  0  0  0  0  0  0  0  0  0  0
  -10.0227    3.9266   24.8391 C   0  0  0  0  0  0  0  0  0  0  0  0
  -10.3512    2.9837   23.8594 C   0  0  0  0  0  0  0  0  0  0  0  0
  -10.0363    1.6929   24.0260 C   0  0  0  0  0  0  0  0  0  0  0  0
  -10.1915    0.7888   22.9379 C   0  0  0  0  0  0  0  0  0  0  0  0
   -9.7986   -0.5695   22.9973 C   0  0  0  0  0  0  0  0  0  0  0  0
  -11.8540    1.9330   28.5555 C   0  0  0  0  0  0  0  0  0  0  0  0
   -9.2528   -1.0098   24.2212 C   0  0  0  0  0  0  0  0  0  0  0  0
   -9.1300   -0.2024   25.2975 C   0  0  0  0  0  0  0  0  0  0  0  0
  2  7  1  0
  7  8  1  0
  8  9  1  0
  7 10  1  0
 10 11  2  3
 11 12  1  0
 12 13  2  3
 13 14  1  0
  9 15  2  0
 14 16  2  3
 16 17  1  0
  1  2  2  0
  2  3  1  0
  3  6  2  0
  6  5  1  0
  5  4  2  0
  4  1  1  0
M  END
$$$$
