No_8307-complexes_sdf/6BKW-FPZ/2024-09-17-14-21-01/
     RDKit          3D

 21 23  0  0  0  0  0  0  0  0999 V2000
   -7.2496    3.8871   27.4508 C   0  0  0  0  0  0  0  0  0  0  0  0
   -7.6161    2.7143   27.1523 C   0  0  0  0  0  0  0  0  0  0  0  0
   -7.1619    1.8631   27.5232 C   0  0  0  0  0  0  0  0  0  0  0  0
   -8.0036    5.1085   27.2100 C   0  0  2  0  0  0  0  0  0  0  0  0
   -9.0764    5.1562   26.4023 C   0  0  0  0  0  0  0  0  0  0  0  0
   -9.5423    3.9741   25.8512 C   0  0  2  0  0  0  0  0  0  0  0  0
   -8.8464    2.7352   26.2619 C   0  0  0  0  0  0  0  0  0  0  0  0
   -6.6341    0.7378   27.0346 C   0  0  0  0  0  0  0  0  0  0  0  0
   -5.7910   -0.1943   27.7020 C   0  0  0  0  0  0  0  0  0  0  0  0
   -5.8060   -1.4790   27.6375 C   0  0  0  0  0  0  0  0  0  0  0  0
   -7.3906    6.6034   27.9553 Cl  0  0  0  0  0  0  0  0  0  0  0  0
   -5.0150   -2.2514   28.4993 C   0  0  0  0  0  0  0  0  0  0  0  0
   -4.1346   -1.6313   29.4247 C   0  0  0  0  0  0  0  0  0  0  0  0
   -4.0707   -0.2329   29.4849 C   0  0  0  0  0  0  0  0  0  0  0  0
   -4.8797    0.5020   28.7286 C   0  0  0  0  0  0  0  0  0  0  0  0
  -10.5774    3.9391   24.8995 C   0  0  0  0  0  0  0  0  0  0  0  0
  -11.8359    3.7220   25.3163 C   0  0  0  0  0  0  0  0  0  0  0  0
  -12.9120    3.7019   24.4308 C   0  0  0  0  0  0  0  0  0  0  0  0
  -10.3418    4.2592   23.5614 C   0  0  0  0  0  0  0  0  0  0  0  0
  -11.3172    4.3995   22.6150 C   0  0  0  0  0  0  0  0  0  0  0  0
  -12.6360    4.1222   23.0937 C   0  0  0  0  0  0  0  0  0  0  0  0
  1  2  1  0
  2  3  2  3
  1  4  1  0
  4  5  1  0
  5  6  1  0
  2  7  1  0
  6  7  1  0
  3  8  1  0
  4 11  1  6
  6 16  1  6
  8  9  1  0
  9 10  2  0
 10 12  1  0
 12 13  2  0
 13 14  1  0
 14 15  2  0
 15  9  1  0
 16 17  2  0
 17 18  1  0
 18 21  2  0
 21 20  1  0
 20 19  2  0
 19 16  1  0
M  END
$$$$
