No_8248-complexes_sdf/6BKW-FPZ/2024-09-17-14-21-01/
     RDKit          3D

  9  9  0  0  0  0  0  0  0  0999 V2000
   -7.2496    3.8871   27.4508 C   0  0  0  0  0  0  0  0  0  0  0  0
   -8.5096    4.0291   27.2770 C   0  0  0  0  0  0  0  0  0  0  0  0
   -9.3451    2.8786   26.9046 C   0  0  0  0  0  0  0  0  0  0  0  0
   -8.7138    1.7135   26.7541 C   0  0  0  0  0  0  0  0  0  0  0  0
   -6.5992    2.6226   27.4994 C   0  0  0  0  0  0  0  0  0  0  0  0
   -7.3741    1.5404   27.1241 C   0  0  0  0  0  0  0  0  0  0  0  0
   -8.9564    5.4831   27.3179 C   0  0  0  0  0  0  0  0  0  0  0  0
  -10.3001    5.8164   27.0464 C   0  0  0  0  0  0  0  0  0  0  0  0
   -8.0154    6.5162   27.4024 C   0  0  0  0  0  0  0  0  0  0  0  0
  2  7  1  0
  7  8  1  0
  7  9  1  0
  1  2  2  0
  2  3  1  0
  3  4  2  0
  4  6  1  0
  6  5  2  0
  5  1  1  0
M  END
$$$$
