No_8138-complexes_sdf/6BKW-FPZ/2024-09-17-14-21-01/
     RDKit          3D

 29 33  0  0  0  0  0  0  0  0999 V2000
   -7.7129    4.2099   27.0854 C   0  0  0  0  0  0  0  0  0  0  0  0
   -7.7814    5.1722   27.8972 C   0  0  0  0  0  0  0  0  0  0  0  0
   -7.3155    2.9700   27.6145 C   0  0  0  0  0  0  0  0  0  0  0  0
   -7.6814    1.8188   26.9581 C   0  0  0  0  0  0  0  0  0  0  0  0
   -8.6377    1.9131   25.9324 C   0  0  0  0  0  0  0  0  0  0  0  0
   -9.1866    3.0673   25.6037 C   0  0  0  0  0  0  0  0  0  0  0  0
   -8.8394    4.1752   26.2513 C   0  0  0  0  0  0  0  0  0  0  0  0
   -8.2782    6.4669   27.5870 N   0  0  0  0  0  0  0  0  0  0  0  0
   -9.1782    6.6191   26.5818 C   0  0  0  0  0  0  0  0  0  0  0  0
   -9.4874    5.4604   25.8830 C   0  0  0  0  0  0  0  0  0  0  0  0
   -7.0154    0.5462   27.2654 C   0  0  0  0  0  0  0  0  0  0  0  0
   -5.8082    0.4824   27.9784 C   0  0  0  0  0  0  0  0  0  0  0  0
   -5.2390   -0.7604   28.2999 C   0  0  0  0  0  0  0  0  0  0  0  0
   -5.9293   -1.8904   27.9568 C   0  0  0  0  0  0  0  0  0  0  0  0
   -7.6619   -0.7328   26.9929 C   0  0  0  0  0  0  0  0  0  0  0  0
   -7.1212   -1.8769   27.3696 C   0  0  0  0  0  0  0  0  0  0  0  0
   -3.9918   -0.9632   29.0363 C   0  0  2  0  0  0  0  0  0  0  0  0
   -3.5968    0.1441   29.8036 C   0  0  0  0  0  0  0  0  0  0  0  0
   -2.8153   -1.3491   28.1130 C   0  0  0  0  0  0  0  0  0  0  0  0
   -4.2051   -2.0204   30.1830 C   0  0  0  0  0  0  0  0  0  0  0  0
   -4.2759   -1.6571   31.2900 C   0  0  0  0  0  0  0  0  0  0  0  0
   -3.7826   -0.2028   31.3131 C   0  0  0  0  0  0  0  0  0  0  0  0
   -2.5926   -2.4000   27.6869 C   0  0  0  0  0  0  0  0  0  0  0  0
   -3.4447   -3.5173   27.8722 C   0  0  0  0  0  0  0  0  0  0  0  0
   -3.8770   -4.1043   28.9824 C   0  0  0  0  0  0  0  0  0  0  0  0
   -4.2079   -3.3947   29.9716 C   0  0  0  0  0  0  0  0  0  0  0  0
   -4.5770   -2.1584   32.5694 C   0  0  0  0  0  0  0  0  0  0  0  0
   -5.1136   -3.2040   32.2774 F   0  0  0  0  0  0  0  0  0  0  0  0
   -5.4743   -1.2844   33.1889 F   0  0  0  0  0  0  0  0  0  0  0  0
  4 11  1  0
 17 13  1  6
 17 18  1  0
 17 19  1  0
 17 20  1  0
 20 21  2  0
 18 22  2  0
 21 22  1  0
 19 23  2  0
 23 24  1  0
 24 25  2  0
 20 26  1  0
 25 26  1  0
 21 27  1  0
 27 28  1  0
 27 29  1  0
  1  2  2  0
  2  8  1  0
  8  9  2  0
  9 10  1  0
 10  7  2  0
 11 12  2  0
 12 13  1  0
 13 14  2  0
 14 16  1  0
 16 15  2  0
 15 11  1  0
  1  3  1  0
  3  4  2  0
  4  5  1  0
  5  6  2  0
  6  7  1  0
  7  1  1  0
M  END
$$$$
