No_8679-complexes_sdf/6BKW-FPZ/2024-09-17-14-21-01/
     RDKit          3D

 16 18  0  0  0  0  0  0  0  0999 V2000
   -7.7129    4.2099   27.0854 C   0  0  0  0  0  0  0  0  0  0  0  0
   -7.7814    5.1722   27.8972 C   0  0  0  0  0  0  0  0  0  0  0  0
   -8.8998    3.8713   26.3707 C   0  0  0  0  0  0  0  0  0  0  0  0
   -9.9938    4.6774   26.5446 C   0  0  0  0  0  0  0  0  0  0  0  0
   -8.7789    6.1536   27.9256 C   0  0  0  0  0  0  0  0  0  0  0  0
   -9.9428    5.8398   27.2296 C   0  0  0  0  0  0  0  0  0  0  0  0
   -8.9119    2.6447   25.5685 C   0  0  0  0  0  0  0  0  0  0  0  0
   -8.2955    1.5559   26.0609 N   0  0  0  0  0  0  0  0  0  0  0  0
   -9.3802    2.6393   24.2212 C   0  0  0  0  0  0  0  0  0  0  0  0
   -8.3142    0.4109   25.3763 C   0  0  0  0  0  0  0  0  0  0  0  0
   -9.4621    1.4595   23.5331 C   0  0  0  0  0  0  0  0  0  0  0  0
   -8.8306    0.3387   24.1341 C   0  0  0  0  0  0  0  0  0  0  0  0
   -9.9909    1.4434   22.2155 C   0  0  0  0  0  0  0  0  0  0  0  0
  -10.0943    0.2689   21.4904 C   0  0  0  0  0  0  0  0  0  0  0  0
   -9.3921   -0.8803   22.0732 C   0  0  0  0  0  0  0  0  0  0  0  0
   -8.8282   -0.8488   23.3163 C   0  0  0  0  0  0  0  0  0  0  0  0
  3  7  1  0
 12 16  1  0
 16 15  2  0
 15 14  1  0
 14 13  2  0
 13 11  1  0
  1  2  2  0
  2  5  1  0
  5  6  2  0
  6  4  1  0
  4  3  2  0
  3  1  1  0
  7  8  2  0
  8 10  1  0
 10 12  2  0
 12 11  1  0
 11  9  2  0
  9  7  1  0
M  END
$$$$
