No_8883-complexes_sdf/6BKW-FPZ/2024-09-17-14-21-01/
     RDKit          3D

 30 34  0  0  0  0  0  0  0  0999 V2000
   -7.9040    3.9820   27.1177 C   0  0  0  0  0  0  0  0  0  0  0  0
   -7.8663    4.8694   27.9238 C   0  0  0  0  0  0  0  0  0  0  0  0
   -7.4547    2.7080   27.4594 C   0  0  0  0  0  0  0  0  0  0  0  0
   -7.9337    1.5946   26.8372 C   0  0  0  0  0  0  0  0  0  0  0  0
   -8.9032    1.7881   25.8510 C   0  0  0  0  0  0  0  0  0  0  0  0
   -9.3787    2.9871   25.5530 C   0  0  0  0  0  0  0  0  0  0  0  0
   -8.9781    4.0300   26.2200 C   0  0  0  0  0  0  0  0  0  0  0  0
   -8.2132    6.2312   27.6173 N   0  0  0  0  0  0  0  0  0  0  0  0
   -9.1014    6.5119   26.6241 C   0  0  0  0  0  0  0  0  0  0  0  0
   -9.5143    5.3947   25.8857 C   0  0  0  0  0  0  0  0  0  0  0  0
   -7.3340    0.2629   27.1258 C   0  0  0  0  0  0  0  0  0  0  0  0
   -6.0795    0.1346   27.6427 C   0  0  0  0  0  0  0  0  0  0  0  0
   -5.5309   -1.1113   27.9865 C   0  0  0  0  0  0  0  0  0  0  0  0
   -6.3507   -2.2076   27.8067 C   0  0  0  0  0  0  0  0  0  0  0  0
   -7.9069   -1.0248   27.0956 C   0  0  0  0  0  0  0  0  0  0  0  0
   -7.5281   -2.1438   27.4116 C   0  0  0  0  0  0  0  0  0  0  0  0
   -4.1138   -1.1180   28.5176 C   0  0  1  0  0  0  0  0  0  0  0  0
   -3.2515   -1.4558   27.9289 C   0  0  0  0  0  0  0  0  0  0  0  0
   -2.5200   -1.0307   27.2056 C   0  0  0  0  0  0  0  0  0  0  0  0
   -2.7561    0.4134   26.7368 C   0  0  0  0  0  0  0  0  0  0  0  0
   -4.0992   -0.4344   29.9292 C   0  0  0  0  0  0  0  0  0  0  0  0
   -3.3579   -1.1092   30.8886 C   0  0  0  0  0  0  0  0  0  0  0  0
   -3.3356   -0.5844   32.2299 C   0  0  0  0  0  0  0  0  0  0  0  0
   -2.5365   -1.2457   33.2172 C   0  0  0  0  0  0  0  0  0  0  0  0
   -1.7295   -2.2923   32.8473 C   0  0  0  0  0  0  0  0  0  0  0  0
   -1.7116   -2.6998   31.5510 C   0  0  0  0  0  0  0  0  0  0  0  0
   -2.4498   -2.1183   30.5956 C   0  0  0  0  0  0  0  0  0  0  0  0
   -2.8577   -2.9935   28.1974 C   0  0  0  0  0  0  0  0  0  0  0  0
   -3.0386   -3.6481   29.1569 C   0  0  0  0  0  0  0  0  0  0  0  0
   -2.7066   -3.0999   29.7774 C   0  0  0  0  0  0  0  0  0  0  0  0
  4 11  1  0
 17 13  1  6
 17 18  1  0
 18 19  2  3
 19 20  1  0
 17 21  1  0
 18 28  1  0
 28 29  2  3
 27 30  1  0
 29 30  1  0
 21 22  1  0
  1  2  2  0
  2  8  1  0
  8  9  2  0
  9 10  1  0
 10  7  2  0
 22 23  2  0
 23 24  1  0
 24 25  2  0
 25 26  1  0
 26 27  2  0
 27 22  1  0
 11 12  2  0
 12 13  1  0
 13 14  2  0
 14 16  1  0
 16 15  2  0
 15 11  1  0
  1  3  1  0
  3  4  2  0
  4  5  1  0
  5  6  2  0
  6  7  1  0
  7  1  1  0
M  END
$$$$
