No_8590-complexes_sdf/6BKW-FPZ/2024-09-17-14-21-01/
     RDKit          3D

 17 19  0  0  0  0  0  0  0  0999 V2000
   -7.9040    3.9820   27.1177 C   0  0  0  0  0  0  0  0  0  0  0  0
   -7.8663    4.8694   27.9238 C   0  0  0  0  0  0  0  0  0  0  0  0
   -7.4698    2.6989   27.4277 C   0  0  0  0  0  0  0  0  0  0  0  0
   -7.9683    1.5964   26.8266 C   0  0  0  0  0  0  0  0  0  0  0  0
   -8.9447    1.7923   25.8533 C   0  0  0  0  0  0  0  0  0  0  0  0
   -9.4405    2.9988   25.5757 C   0  0  0  0  0  0  0  0  0  0  0  0
   -8.9424    4.1117   26.2388 C   0  0  0  0  0  0  0  0  0  0  0  0
   -8.3103    6.1970   27.6444 N   0  0  0  0  0  0  0  0  0  0  0  0
   -9.1782    6.4963   26.6776 C   0  0  0  0  0  0  0  0  0  0  0  0
   -9.5449    5.3904   25.9238 C   0  0  0  0  0  0  0  0  0  0  0  0
   -7.3883    0.2624   27.0880 C   0  0  0  0  0  0  0  0  0  0  0  0
   -6.0928    0.1336   27.5359 C   0  0  0  0  0  0  0  0  0  0  0  0
   -5.1643    1.2396   27.7313 C   0  0  0  0  0  0  0  0  0  0  0  0
   -3.8879    0.9242   28.2164 C   0  0  0  0  0  0  0  0  0  0  0  0
   -3.5207   -0.3146   28.5341 C   0  0  0  0  0  0  0  0  0  0  0  0
   -4.3659   -1.3781   28.3842 C   0  0  0  0  0  0  0  0  0  0  0  0
   -5.6482   -1.1531   27.9270 C   0  0  0  0  0  0  0  0  0  0  0  0
  4 11  1  0
 11 12  1  0
 12 13  2  0
 13 14  1  0
 14 15  2  0
 15 16  1  0
 16 17  2  0
 17 12  1  0
  1  2  2  0
  2  8  1  0
  8  9  2  0
  9 10  1  0
 10  7  2  0
  1  3  1  0
  3  4  2  0
  4  5  1  0
  5  6  2  0
  6  7  1  0
  7  1  1  0
M  END
$$$$
