No_8276-complexes_sdf/6BKW-FPZ/2024-09-17-14-21-01/
     RDKit          3D

 23 24  0  0  0  0  0  0  0  0999 V2000
   -7.9040    3.9820   27.1177 C   0  0  0  0  0  0  0  0  0  0  0  0
   -8.2057    2.8231   26.8733 C   0  0  0  0  0  0  0  0  0  0  0  0
   -8.7695    5.0740   26.7916 C   0  0  0  0  0  0  0  0  0  0  0  0
   -8.4337    6.4678   27.0913 C   0  0  0  0  0  0  0  0  0  0  0  0
   -9.3742    2.4311   26.2346 C   0  0  0  0  0  0  0  0  0  0  0  0
  -10.2395    3.4267   25.8887 C   0  0  0  0  0  0  0  0  0  0  0  0
   -9.9567    4.7548   26.1374 C   0  0  0  0  0  0  0  0  0  0  0  0
   -8.7531    7.4243   26.4062 N   0  0  0  0  0  0  0  0  0  0  0  0
   -7.2249    6.6079   28.3199 Cl  0  0  0  0  0  0  0  0  0  0  0  0
   -7.2619    1.6793   27.2835 C   0  0  0  0  0  0  0  0  0  0  0  0
   -6.3428    2.0698   28.0661 F   0  0  0  0  0  0  0  0  0  0  0  0
   -7.3762    0.3891   26.8637 C   0  0  0  0  0  0  0  0  0  0  0  0
   -6.6957   -0.5395   27.3722 C   0  0  0  0  0  0  0  0  0  0  0  0
   -5.6414   -0.2015   28.2347 C   0  0  0  0  0  0  0  0  0  0  0  0
   -5.3804    1.1720   28.4224 C   0  0  0  0  0  0  0  0  0  0  0  0
   -4.0718    1.7831   29.3774 Cl  0  0  0  0  0  0  0  0  0  0  0  0
   -5.1096    1.5072   27.1589 F   0  0  0  0  0  0  0  0  0  0  0  0
   -4.7650   -1.1727   28.9004 C   0  0  0  0  0  0  0  0  0  0  0  0
   -5.1314   -2.3466   29.1907 C   0  0  0  0  0  0  0  0  0  0  0  0
   -4.6617   -3.1167   29.8959 C   0  0  0  0  0  0  0  0  0  0  0  0
   -3.3676   -2.7766   30.5957 C   0  0  0  0  0  0  0  0  0  0  0  0
   -2.8980   -1.4748   30.3609 C   0  0  0  0  0  0  0  0  0  0  0  0
   -3.5787   -0.6602   29.6471 C   0  0  0  0  0  0  0  0  0  0  0  0
  3  4  1  0
  4  8  2  0
  4  9  1  0
  2 10  1  0
 10 11  1  0
 10 12  1  0
 12 13  1  0
 13 14  1  0
 14 15  2  3
 15 16  1  0
 15 17  1  0
 14 18  1  0
 18 19  2  0
 19 20  1  0
 20 21  2  0
 21 22  1  0
 22 23  2  0
 23 18  1  0
  1  2  2  0
  2  5  1  0
  5  6  2  0
  6  7  1  0
  7  3  2  0
  3  1  1  0
M  END
$$$$
