No_8907-complexes_sdf/6BKW-FPZ/2024-09-17-14-21-01/
     RDKit          3D

 21 23  0  0  0  0  0  0  0  0999 V2000
   -7.9040    3.9820   27.1177 C   0  0  0  0  0  0  0  0  0  0  0  0
   -7.8663    4.8694   27.9238 C   0  0  0  0  0  0  0  0  0  0  0  0
   -9.0491    3.8523   26.2542 C   0  0  0  0  0  0  0  0  0  0  0  0
   -8.7661    5.9491   27.9690 C   0  0  0  0  0  0  0  0  0  0  0  0
   -9.9279    4.8544   26.1938 C   0  0  0  0  0  0  0  0  0  0  0  0
   -9.8044    5.9413   27.0782 C   0  0  0  0  0  0  0  0  0  0  0  0
   -6.8172    2.6194   27.2211 Cl  0  0  0  0  0  0  0  0  0  0  0  0
   -9.1054    2.7059   25.2783 C   0  0  0  0  0  0  0  0  0  0  0  0
   -8.9153    1.4825   25.7157 C   0  0  0  0  0  0  0  0  0  0  0  0
   -9.6077    2.9773   24.0027 C   0  0  0  0  0  0  0  0  0  0  0  0
   -9.1009    0.4033   24.8644 C   0  0  0  0  0  0  0  0  0  0  0  0
   -9.8221    1.9163   23.1529 C   0  0  0  0  0  0  0  0  0  0  0  0
   -9.5124    0.6231   23.5852 C   0  0  0  0  0  0  0  0  0  0  0  0
  -10.2863    2.1656   21.7855 C   0  0  0  0  0  0  0  0  0  0  0  0
  -10.1759    3.3541   21.3313 N   0  0  0  0  0  0  0  0  0  0  0  0
  -10.6510    1.2030   21.0812 O   0  0  0  0  0  0  0  0  0  0  0  0
  -10.5497    3.7011   19.9391 C   0  0  0  0  0  0  0  0  0  0  0  0
   -8.7113   -0.9423   25.2891 C   0  0  0  0  0  0  0  0  0  0  0  0
   -8.7202   -1.2479   26.4716 C   0  0  0  0  0  0  0  0  0  0  0  0
   -8.6202   -0.1875   27.5153 C   0  0  0  0  0  0  0  0  0  0  0  0
   -8.7161    1.0979   27.1530 C   0  0  0  0  0  0  0  0  0  0  0  0
  1  7  1  0
  3  8  1  0
 12 14  1  0
 14 15  1  0
 14 16  2  0
 15 17  1  0
  8  9  2  0
 11 13  2  0
 13 12  1  0
 12 10  2  0
 10  8  1  0
  1  2  2  0
  2  4  1  0
  4  6  2  0
  6  5  1  0
  5  3  2  0
  3  1  1  0
  9 11  1  0
 11 18  1  0
 18 19  2  0
 19 20  1  0
 20 21  2  0
 21  9  1  0
M  END
$$$$
