No_8836-complexes_sdf/6BKW-FPZ/2024-09-17-14-21-01/
     RDKit          3D

 40 44  0  0  0  0  0  0  0  0999 V2000
   -7.7129    4.2099   27.0854 C   0  0  0  0  0  0  0  0  0  0  0  0
   -7.7814    5.1722   27.8972 C   0  0  0  0  0  0  0  0  0  0  0  0
   -8.8998    3.8713   26.3707 C   0  0  0  0  0  0  0  0  0  0  0  0
   -8.9563    2.6796   25.5490 C   0  0  0  0  0  0  0  0  0  0  0  0
   -6.6919    5.5589   28.6764 F   0  0  0  0  0  0  0  0  0  0  0  0
   -8.8872    5.9539   27.8306 C   0  0  0  0  0  0  0  0  0  0  0  0
   -9.9209    4.7427   26.4373 C   0  0  0  0  0  0  0  0  0  0  0  0
   -9.9305    5.8583   27.1779 C   0  0  0  0  0  0  0  0  0  0  0  0
   -9.8463    2.5180   24.5082 C   0  0  0  0  0  0  0  0  0  0  0  0
   -9.8681    1.3989   23.7095 C   0  0  0  0  0  0  0  0  0  0  0  0
   -8.9410    0.3257   24.0326 C   0  0  0  0  0  0  0  0  0  0  0  0
   -8.0889    0.4463   25.0859 C   0  0  0  0  0  0  0  0  0  0  0  0
   -8.0414    1.5807   25.8780 C   0  0  0  0  0  0  0  0  0  0  0  0
  -10.7621    1.2881   22.5976 C   0  0  0  0  0  0  0  0  0  0  0  0
  -10.7332    0.3152   21.7762 C   0  0  0  0  0  0  0  0  0  0  0  0
   -9.7397   -0.8074   22.0280 C   0  0  0  0  0  0  0  0  0  0  0  0
   -8.9203   -0.7623   23.1130 C   0  0  0  0  0  0  0  0  0  0  0  0
   -9.7774   -1.8343   21.1600 F   0  0  0  0  0  0  0  0  0  0  0  0
   -7.1557   -0.6415   25.4181 C   0  0  0  0  0  0  0  0  0  0  0  0
   -6.6683   -1.2716   24.7879 O   0  0  0  0  0  0  0  0  0  0  0  0
   -6.7995   -0.6687   26.7874 N   0  0  0  0  0  0  0  0  0  0  0  0
   -5.8688   -1.6131   27.3403 C   0  0  0  0  0  0  0  0  0  0  0  0
   -5.7846   -1.5093   28.6901 C   0  0  0  0  0  0  0  0  0  0  0  0
   -4.6128   -1.5643   29.4678 C   0  0  0  0  0  0  0  0  0  0  0  0
   -3.4233   -1.6000   28.7622 C   0  0  0  0  0  0  0  0  0  0  0  0
   -3.5054   -1.6656   27.3174 C   0  0  0  0  0  0  0  0  0  0  0  0
   -4.6988   -1.4139   26.7036 C   0  0  0  0  0  0  0  0  0  0  0  0
   -4.5556   -1.5273   30.9353 C   0  0  0  0  0  0  0  0  0  0  0  0
   -3.9745   -0.4612   31.5602 C   0  0  0  0  0  0  0  0  0  0  0  0
   -3.8511   -0.3855   32.9921 C   0  0  0  0  0  0  0  0  0  0  0  0
   -4.5173   -1.3572   33.7198 C   0  0  0  0  0  0  0  0  0  0  0  0
   -5.2990   -2.3138   33.0762 C   0  0  0  0  0  0  0  0  0  0  0  0
   -5.3339   -2.3813   31.7114 C   0  0  0  0  0  0  0  0  0  0  0  0
   -4.4167   -1.2439   35.2105 C   0  0  0  0  0  0  0  0  0  0  0  0
   -3.5331   -0.5068   35.7754 N   0  0  0  0  0  0  0  0  0  0  0  0
   -2.3231   -0.5096   35.4541 C   0  0  0  0  0  0  0  0  0  0  0  0
   -3.9071    0.3094   36.9293 C   0  0  0  0  0  0  0  0  0  0  0  0
   -3.4025   -0.1474   38.2011 C   0  0  0  0  0  0  0  0  0  0  0  0
   -3.6149    0.5462   39.1339 C   0  0  0  0  0  0  0  0  0  0  0  0
   -4.4186    1.7836   39.2073 C   0  0  0  0  0  0  0  0  0  0  0  0
  3  4  1  0
  2  5  1  0
 16 18  1  0
 12 19  1  0
 19 20  2  0
 19 21  1  0
 21 22  1  0
 24 28  1  0
 31 34  1  0
 34 35  1  0
 35 36  1  0
 35 37  1  0
 37 38  1  0
 38 39  2  3
 39 40  1  0
  4  9  2  0
  9 10  1  0
 11 12  1  0
 12 13  2  0
 13  4  1  0
 10 11  2  0
 11 17  1  0
 17 16  2  0
 16 15  1  0
 15 14  2  0
 14 10  1  0
 22 23  2  0
 23 24  1  0
 24 25  2  0
 25 26  1  0
 26 27  2  0
 27 22  1  0
  1  2  2  0
  2  6  1  0
  6  8  2  0
  8  7  1  0
  7  3  2  0
  3  1  1  0
 28 29  2  0
 29 30  1  0
 30 31  2  0
 31 32  1  0
 32 33  2  0
 33 28  1  0
M  END
$$$$
