No_890-complexes_sdf/6BKW-FPZ/2024-09-17-14-21-01/
     RDKit          3D

 25 28  0  0  0  0  0  0  0  0999 V2000
   -7.7129    4.2099   27.0854 C   0  0  0  0  0  0  0  0  0  0  0  0
   -8.2112    3.0637   26.9225 C   0  0  0  0  0  0  0  0  0  0  0  0
   -7.5138    1.9223   27.4249 C   0  0  1  0  0  0  0  0  0  0  0  0
   -8.5309    5.4147   26.8151 C   0  0  0  0  0  0  0  0  0  0  0  0
   -8.1184    6.7672   27.1362 C   0  0  0  0  0  0  0  0  0  0  0  0
   -7.9453    0.5891   27.2424 C   0  0  0  0  0  0  0  0  0  0  0  0
   -9.2846    0.4513   26.8076 C   0  0  0  0  0  0  0  0  0  0  0  0
  -10.0204    1.5585   26.4266 C   0  0  0  0  0  0  0  0  0  0  0  0
   -9.4894    2.8275   26.5368 C   0  0  0  0  0  0  0  0  0  0  0  0
   -9.6589    5.2700   26.0346 C   0  0  0  0  0  0  0  0  0  0  0  0
  -10.1963    3.9605   25.9170 C   0  0  0  0  0  0  0  0  0  0  0  0
   -8.7821    7.9069   26.6781 C   0  0  0  0  0  0  0  0  0  0  0  0
   -7.0372   -0.7081   27.8250 Cl  0  0  0  0  0  0  0  0  0  0  0  0
  -11.4609    3.8049   25.2263 C   0  0  0  0  0  0  0  0  0  0  0  0
   -7.4158    6.8400   28.2652 O   0  0  0  0  0  0  0  0  0  0  0  0
  -11.6982    2.7795   24.7326 C   0  0  0  0  0  0  0  0  0  0  0  0
  -12.8520    2.4799   23.9051 C   0  0  0  0  0  0  0  0  0  0  0  0
  -11.1813    1.3513   25.5492 C   0  0  0  0  0  0  0  0  0  0  0  0
  -13.1638    3.3971   23.1353 C   0  0  0  0  0  0  0  0  0  0  0  0
  -14.1316    3.2266   22.1632 C   0  0  0  0  0  0  0  0  0  0  0  0
  -14.7079    2.0844   21.9622 C   0  0  0  0  0  0  0  0  0  0  0  0
  -14.3047    1.0132   22.7515 C   0  0  0  0  0  0  0  0  0  0  0  0
  -13.3497    1.1813   23.7021 C   0  0  0  0  0  0  0  0  0  0  0  0
   -6.1913    2.2753   27.8390 O   0  0  0  0  0  0  0  0  0  0  0  0
   -9.8104   -0.7339   26.7549 F   0  0  0  0  0  0  0  0  0  0  0  0
  1  2  2  0
  2  3  1  0
  1  4  1  0
  4  5  2  3
  3  6  1  0
  6  7  2  0
  7  8  1  0
  2  9  1  0
  8  9  2  0
  4 10  1  0
  9 11  1  0
 10 11  1  0
  5 12  1  0
  6 13  1  0
 11 14  1  0
  5 15  1  0
 14 16  2  0
 16 17  1  0
  8 18  1  0
 16 18  1  0
 17 19  2  0
 19 20  1  0
 20 21  2  0
 21 22  1  0
 17 23  1  0
 22 23  2  0
  3 24  1  6
  7 25  1  0
M  END
$$$$
