No_8418-complexes_sdf/6BKW-FPZ/2024-09-17-14-21-01/
     RDKit          3D

 22 24  0  0  0  0  0  0  0  0999 V2000
   -7.2496    3.8871   27.4508 C   0  0  0  0  0  0  0  0  0  0  0  0
   -7.6161    2.7143   27.1523 C   0  0  0  0  0  0  0  0  0  0  0  0
   -8.6212    2.2239   26.4073 C   0  0  0  0  0  0  0  0  0  0  0  0
   -8.2540    4.9237   27.1711 C   0  0  0  0  0  0  0  0  0  0  0  0
   -8.0481    6.2918   27.4896 C   0  0  0  0  0  0  0  0  0  0  0  0
   -9.5812    3.2432   26.0960 C   0  0  0  0  0  0  0  0  0  0  0  0
   -9.3651    4.5697   26.4537 C   0  0  0  0  0  0  0  0  0  0  0  0
   -8.9363    7.2465   27.1225 N   0  0  0  0  0  0  0  0  0  0  0  0
   -6.9156    6.6027   28.0831 O   0  0  0  0  0  0  0  0  0  0  0  0
   -8.8587    0.9376   26.0990 N   0  0  0  0  0  0  0  0  0  0  0  0
   -8.8797    0.4190   25.0252 C   0  0  0  0  0  0  0  0  0  0  0  0
   -8.8526   -0.9181   24.7793 C   0  0  0  0  0  0  0  0  0  0  0  0
   -8.8495   -0.1520   27.1338 C   0  0  0  0  0  0  0  0  0  0  0  0
   -8.8662   -1.3636   27.0689 C   0  0  0  0  0  0  0  0  0  0  0  0
   -8.9477   -1.4245   23.3412 C   0  0  0  0  0  0  0  0  0  0  0  0
   -8.9333   -1.8223   25.7544 C   0  0  0  0  0  0  0  0  0  0  0  0
   -9.6294   -0.7054   22.4755 C   0  0  0  0  0  0  0  0  0  0  0  0
  -10.2431    0.5115   22.8232 C   0  0  0  0  0  0  0  0  0  0  0  0
   -9.7100    1.1704   24.0188 C   0  0  0  0  0  0  0  0  0  0  0  0
  -10.7378    1.4114   21.7819 C   0  0  0  0  0  0  0  0  0  0  0  0
  -11.6314    0.9128   20.9345 C   0  0  0  0  0  0  0  0  0  0  0  0
  -12.2606    1.7180   19.9326 C   0  0  0  0  0  0  0  0  0  0  0  0
  4  5  1  0
  5  8  2  0
  5  9  1  0
  3 10  1  0
 10 11  1  0
 10 13  1  0
 12 16  1  0
 14 16  1  0
 18 20  1  0
 20 21  2  3
 21 22  1  0
 14 13  1  0
  1  2  2  0
  2  3  1  0
  3  6  2  0
  6  7  1  0
  7  4  2  0
  4  1  1  0
 11 19  2  0
 19 18  1  0
 18 17  2  0
 17 15  1  0
 15 12  2  0
 12 11  1  0
M  END
$$$$
