No_8576-complexes_sdf/6BKW-FPZ/2024-09-17-14-21-01/
     RDKit          3D

 23 25  0  0  0  0  0  0  0  0999 V2000
   -7.7129    4.2099   27.0854 C   0  0  0  0  0  0  0  0  0  0  0  0
   -8.9133    4.4736   27.0998 C   0  0  0  0  0  0  0  0  0  0  0  0
   -9.7937    3.7368   26.2091 C   0  0  0  0  0  0  0  0  0  0  0  0
   -7.2496    2.8647   26.8496 C   0  0  0  0  0  0  0  0  0  0  0  0
   -8.1891    1.9790   26.3454 C   0  0  0  0  0  0  0  0  0  0  0  0
   -9.4252    2.4603   26.0121 C   0  0  0  0  0  0  0  0  0  0  0  0
   -9.3121    5.9663   27.2474 C   0  0  0  0  0  0  0  0  0  0  0  0
   -7.7466    0.5946   26.1401 C   0  0  0  0  0  0  0  0  0  0  0  0
   -8.0852    0.0018   24.9819 C   0  0  0  0  0  0  0  0  0  0  0  0
   -7.6073   -1.3168   24.7009 C   0  0  0  0  0  0  0  0  0  0  0  0
   -6.8329   -1.9903   25.6777 C   0  0  0  0  0  0  0  0  0  0  0  0
   -6.8819   -0.1006   27.0655 C   0  0  0  0  0  0  0  0  0  0  0  0
   -6.4756   -1.3261   26.8823 C   0  0  0  0  0  0  0  0  0  0  0  0
   -8.1857    6.9005   27.3504 C   0  0  1  0  0  0  0  0  0  0  0  0
   -8.4995    8.2594   26.7963 C   0  0  0  0  0  0  0  0  0  0  0  0
   -7.4826    6.9316   28.4704 O   0  0  0  0  0  0  0  0  0  0  0  0
  -10.9560    4.1671   25.8756 F   0  0  0  0  0  0  0  0  0  0  0  0
   -7.9659   -1.9796   23.4478 C   0  0  0  0  0  0  0  0  0  0  0  0
   -8.6933   -1.3855   22.6069 C   0  0  0  0  0  0  0  0  0  0  0  0
   -9.0236   -1.9663   21.2894 C   0  0  0  0  0  0  0  0  0  0  0  0
   -8.3510   -3.1412   20.9567 C   0  0  0  0  0  0  0  0  0  0  0  0
   -7.4645   -3.7001   21.8277 C   0  0  0  0  0  0  0  0  0  0  0  0
   -7.1842   -3.1269   23.0567 C   0  0  0  0  0  0  0  0  0  0  0  0
  2  7  1  0
  5  8  1  0
  7 14  1  0
 14 15  1  1
 14 16  1  0
  3 17  1  0
 10 18  1  0
 18 19  2  0
 19 20  1  0
 20 21  2  0
 21 22  1  0
 22 23  2  0
 23 18  1  0
  1  2  2  0
  2  3  1  0
  3  6  2  0
  6  5  1  0
  5  4  2  0
  4  1  1  0
  8  9  2  0
  9 10  1  0
 10 11  2  0
 11 13  1  0
 13 12  2  0
 12  8  1  0
M  END
$$$$
