No_8505-complexes_sdf/6BKW-FPZ/2024-09-17-14-21-01/
     RDKit          3D

 26 30  0  0  0  0  0  0  0  0999 V2000
   -7.7129    4.2099   27.0854 C   0  0  0  0  0  0  0  0  0  0  0  0
   -7.7814    5.1722   27.8972 C   0  0  0  0  0  0  0  0  0  0  0  0
   -8.8255    3.2789   27.1191 C   0  0  0  0  0  0  0  0  0  0  0  0
   -9.9209    3.4734   27.9101 C   0  0  0  0  0  0  0  0  0  0  0  0
  -10.9988    2.5645   28.0473 C   0  0  0  0  0  0  0  0  0  0  0  0
   -8.9569    5.5944   28.6231 C   0  0  0  0  0  0  0  0  0  0  0  0
   -9.9727    4.6600   28.6972 C   0  0  0  0  0  0  0  0  0  0  0  0
  -12.1537    2.9830   28.5585 C   0  0  0  0  0  0  0  0  0  0  0  0
  -10.7754    1.1831   27.7938 C   0  0  0  0  0  0  0  0  0  0  0  0
  -13.2075    2.1190   28.9502 C   0  0  0  0  0  0  0  0  0  0  0  0
  -11.8310    0.2636   28.1045 C   0  0  0  0  0  0  0  0  0  0  0  0
  -12.9975    0.7537   28.6500 C   0  0  0  0  0  0  0  0  0  0  0  0
   -8.8140    2.0121   26.3950 C   0  0  0  0  0  0  0  0  0  0  0  0
   -9.6706    0.9610   26.7904 C   0  0  0  0  0  0  0  0  0  0  0  0
   -9.4647   -0.4264   26.3263 C   0  0  0  0  0  0  0  0  0  0  0  0
   -9.2244   -1.4378   26.5821 C   0  0  0  0  0  0  0  0  0  0  0  0
   -9.1050   -2.5413   25.8217 C   0  0  0  0  0  0  0  0  0  0  0  0
   -9.7454   -0.3365   24.8014 C   0  0  0  0  0  0  0  0  0  0  0  0
  -10.1397    0.9772   24.1679 C   0  0  0  0  0  0  0  0  0  0  0  0
   -9.2730   -2.4630   24.5115 C   0  0  0  0  0  0  0  0  0  0  0  0
   -9.5854   -1.2974   23.9393 C   0  0  0  0  0  0  0  0  0  0  0  0
  -11.1673    1.2790   23.6054 C   0  0  0  0  0  0  0  0  0  0  0  0
  -11.4867    2.5240   23.1269 C   0  0  0  0  0  0  0  0  0  0  0  0
  -10.5754    3.6042   23.3303 C   0  0  0  0  0  0  0  0  0  0  0  0
   -9.4531    3.4150   24.1614 C   0  0  0  0  0  0  0  0  0  0  0  0
   -9.1989    2.1410   24.5745 C   0  0  0  0  0  0  0  0  0  0  0  0
 14 15  1  0
 18 19  1  0
 15 16  2  0
 16 17  1  0
 17 20  2  0
 20 21  1  0
 21 18  2  0
 18 15  1  0
  1  2  2  0
  2  6  1  0
  6  7  2  0
  7  4  1  0
  3  1  1  0
 19 22  2  0
 22 23  1  0
 23 24  2  0
 24 25  1  0
 25 26  2  0
 26 19  1  0
  5  8  2  0
  8 10  1  0
 10 12  2  0
 12 11  1  0
 11  9  2  0
  3  4  2  0
  4  5  1  0
  5  9  1  0
  9 14  1  0
 14 13  2  0
 13  3  1  0
M  END
$$$$
