No_8124-complexes_sdf/6BKW-FPZ/2024-09-17-14-21-01/
     RDKit          3D

 26 29  0  0  0  0  0  0  0  0999 V2000
   -7.9040    3.9820   27.1177 C   0  0  0  0  0  0  0  0  0  0  0  0
   -9.0711    4.3164   27.0630 C   0  0  0  0  0  0  0  0  0  0  0  0
  -10.0395    3.8218   27.1938 C   0  0  0  0  0  0  0  0  0  0  0  0
   -7.6424    2.5858   27.3610 C   0  0  0  0  0  0  0  0  0  0  0  0
   -6.3587    2.0254   27.5043 C   0  0  0  0  0  0  0  0  0  0  0  0
  -10.0535    2.3534   27.5126 C   0  0  0  0  0  0  0  0  0  0  0  0
   -8.7612    1.7909   27.6094 C   0  0  0  0  0  0  0  0  0  0  0  0
   -6.0820    0.6715   27.4694 C   0  0  0  0  0  0  0  0  0  0  0  0
   -4.8122    0.2480   27.7070 C   0  0  0  0  0  0  0  0  0  0  0  0
   -4.4681   -1.0665   27.6563 C   0  0  0  0  0  0  0  0  0  0  0  0
  -11.2395    1.5319   27.8573 C   0  0  0  0  0  0  0  0  0  0  0  0
  -12.2996    1.6952   27.0177 C   0  0  0  0  0  0  0  0  0  0  0  0
  -13.3881    1.0936   27.4411 C   0  0  0  0  0  0  0  0  0  0  0  0
  -13.4697    0.2868   28.6387 C   0  0  0  0  0  0  0  0  0  0  0  0
  -12.3318    0.1626   29.3989 C   0  0  0  0  0  0  0  0  0  0  0  0
  -11.1987    0.8168   29.0614 C   0  0  0  0  0  0  0  0  0  0  0  0
   -9.1776    5.9683   26.7771 C   0  0  0  0  0  0  0  0  0  0  0  0
   -9.1886    6.7264   25.9226 F   0  0  0  0  0  0  0  0  0  0  0  0
   -9.0505    6.7323   27.9431 F   0  0  0  0  0  0  0  0  0  0  0  0
  -10.2143    6.1844   26.6546 O   0  0  0  0  0  0  0  0  0  0  0  0
  -10.2082    7.3216   27.6765 Cl  0  0  0  0  0  0  0  0  0  0  0  0
   -5.4153   -1.9814   27.3242 C   0  0  0  0  0  0  0  0  0  0  0  0
   -6.6919   -1.5617   27.0254 C   0  0  0  0  0  0  0  0  0  0  0  0
   -7.0519   -0.2302   27.1246 C   0  0  0  0  0  0  0  0  0  0  0  0
   -8.5758    0.3765   27.5268 N   0  0  0  0  0  0  0  0  0  0  0  0
   -3.8634    1.1327   27.9857 F   0  0  0  0  0  0  0  0  0  0  0  0
  4  5  1  0
  5  8  1  0
  6 11  1  0
  2 17  1  0
 17 18  1  0
 17 19  1  0
 17 20  1  0
 20 21  1  0
  7 25  1  0
 24 25  1  0
  9 26  1  0
  1  2  2  0
  2  3  1  0
  3  6  2  0
  6  7  1  0
  7  4  2  0
  4  1  1  0
 11 12  2  0
 12 13  1  0
 13 14  2  0
 14 15  1  0
 15 16  2  0
 16 11  1  0
  8  9  2  0
  9 10  1  0
 10 22  2  0
 22 23  1  0
 23 24  2  0
 24  8  1  0
M  END
$$$$
