No_8703-complexes_sdf/6BKW-FPZ/2024-09-17-14-21-01/
     RDKit          3D

 23 26  0  0  0  0  0  0  0  0999 V2000
   -7.9040    3.9820   27.1177 C   0  0  0  0  0  0  0  0  0  0  0  0
   -7.8663    4.8694   27.9238 C   0  0  0  0  0  0  0  0  0  0  0  0
   -9.0491    3.8523   26.2542 C   0  0  0  0  0  0  0  0  0  0  0  0
   -8.7661    5.9491   27.9690 C   0  0  0  0  0  0  0  0  0  0  0  0
   -9.9295    4.8502   26.2323 C   0  0  0  0  0  0  0  0  0  0  0  0
   -9.8077    5.9288   27.0933 C   0  0  0  0  0  0  0  0  0  0  0  0
   -6.9996    2.9096   27.1565 O   0  0  0  0  0  0  0  0  0  0  0  0
   -7.2903    1.6969   27.7061 C   0  0  0  0  0  0  0  0  0  0  0  0
   -6.1989    0.7609   27.6446 C   0  0  0  0  0  0  0  0  0  0  0  0
   -6.3285   -0.5404   27.9834 C   0  0  0  0  0  0  0  0  0  0  0  0
   -7.6549   -1.0117   28.0954 C   0  0  0  0  0  0  0  0  0  0  0  0
   -8.7740   -0.1677   27.8438 C   0  0  0  0  0  0  0  0  0  0  0  0
   -8.5466    1.2135   27.5990 C   0  0  0  0  0  0  0  0  0  0  0  0
   -4.8883    1.4854   27.5659 C   0  0  0  0  0  0  0  0  0  0  0  0
   -3.9208    0.8438   26.9885 O   0  0  0  0  0  0  0  0  0  0  0  0
   -3.5705   -0.3162   27.1091 C   0  0  0  0  0  0  0  0  0  0  0  0
   -2.5527   -0.7395   26.2632 C   0  0  0  0  0  0  0  0  0  0  0  0
   -2.0143   -2.0616   26.1950 C   0  0  0  0  0  0  0  0  0  0  0  0
   -2.6649   -2.9812   26.9150 C   0  0  0  0  0  0  0  0  0  0  0  0
   -3.5763   -2.7538   27.5581 C   0  0  0  0  0  0  0  0  0  0  0  0
   -4.1069   -1.4157   27.7444 C   0  0  0  0  0  0  0  0  0  0  0  0
   -5.0588   -1.1697   28.7839 C   0  0  0  0  0  0  0  0  0  0  0  0
   -9.1725    2.7066   25.3133 C   0  0  0  0  0  0  0  0  0  0  0  0
  1  7  1  0
  7  8  1  0
  9 14  1  0
 14 15  1  0
 15 16  1  0
 10 22  1  0
 21 22  1  0
  3 23  1  0
  1  2  2  0
  2  4  1  0
  4  6  2  0
  6  5  1  0
  5  3  2  0
  3  1  1  0
  8  9  2  0
  9 10  1  0
 10 11  2  0
 11 12  1  0
 12 13  2  0
 13  8  1  0
 16 17  2  0
 17 18  1  0
 18 19  2  0
 19 20  1  0
 20 21  2  0
 21 16  1  0
M  END
$$$$
