No_8886-complexes_sdf/6BKW-FPZ/2024-09-17-14-21-01/
     RDKit          3D

 39 44  0  0  0  0  0  0  0  0999 V2000
   -7.7129    4.2099   27.0854 C   0  0  0  0  0  0  0  0  0  0  0  0
   -7.7814    5.1722   27.8972 C   0  0  0  0  0  0  0  0  0  0  0  0
   -7.3155    2.9700   27.6145 C   0  0  0  0  0  0  0  0  0  0  0  0
   -7.6814    1.8188   26.9581 C   0  0  0  0  0  0  0  0  0  0  0  0
   -8.7493    1.8056   26.3403 C   0  0  0  0  0  0  0  0  0  0  0  0
   -9.3899    2.9750   25.9038 C   0  0  0  0  0  0  0  0  0  0  0  0
   -8.9604    4.1020   26.4096 C   0  0  0  0  0  0  0  0  0  0  0  0
   -8.2759    6.4727   27.5642 N   0  0  0  0  0  0  0  0  0  0  0  0
   -9.2018    6.5809   26.5700 C   0  0  0  0  0  0  0  0  0  0  0  0
   -9.6125    5.3829   26.0244 C   0  0  0  0  0  0  0  0  0  0  0  0
   -6.9456    0.5486   27.4294 C   0  0  0  0  0  0  0  0  0  0  0  0
   -5.6430    0.5742   27.9315 C   0  0  0  0  0  0  0  0  0  0  0  0
   -4.9673   -0.5839   28.2685 C   0  0  0  0  0  0  0  0  0  0  0  0
   -5.6215   -1.7808   28.1456 C   0  0  0  0  0  0  0  0  0  0  0  0
   -7.4220   -0.7361   27.3137 C   0  0  0  0  0  0  0  0  0  0  0  0
   -6.8598   -1.8347   27.6858 C   0  0  0  0  0  0  0  0  0  0  0  0
  -10.4586    2.8448   24.9156 C   0  0  0  0  0  0  0  0  0  0  0  0
  -11.7165    2.9523   25.2851 C   0  0  0  0  0  0  0  0  0  0  0  0
  -10.0952    2.6362   23.5566 C   0  0  0  0  0  0  0  0  0  0  0  0
  -10.6782    2.3688   22.7626 C   0  0  0  0  0  0  0  0  0  0  0  0
  -12.2287    3.1639   26.5831 C   0  0  0  0  0  0  0  0  0  0  0  0
  -12.1469    2.4556   22.9378 C   0  0  0  0  0  0  0  0  0  0  0  0
  -12.6690    2.7746   24.1974 C   0  0  0  0  0  0  0  0  0  0  0  0
  -12.8009    2.2065   27.3081 C   0  0  0  0  0  0  0  0  0  0  0  0
  -12.8255    0.9287   26.9553 C   0  0  0  0  0  0  0  0  0  0  0  0
  -12.7406    0.0768   27.4740 C   0  0  0  0  0  0  0  0  0  0  0  0
  -12.9491    0.0887   29.0144 C   0  0  0  0  0  0  0  0  0  0  0  0
  -13.0122    1.3717   29.5398 C   0  0  0  0  0  0  0  0  0  0  0  0
  -12.8175    2.4558   28.7661 C   0  0  0  0  0  0  0  0  0  0  0  0
  -12.8272    3.8309   29.3084 C   0  0  0  0  0  0  0  0  0  0  0  0
  -13.0443    4.3884   26.6204 C   0  0  0  0  0  0  0  0  0  0  0  0
   -3.5823   -0.4154   28.8707 C   0  0  0  0  0  0  0  0  0  0  0  0
   -3.0967    0.7010   28.6394 F   0  0  0  0  0  0  0  0  0  0  0  0
   -3.6404   -0.5182   30.2336 F   0  0  0  0  0  0  0  0  0  0  0  0
   -2.8081   -1.3577   28.4187 F   0  0  0  0  0  0  0  0  0  0  0  0
  -13.0148    4.8379   28.1630 C   0  0  0  0  0  0  0  0  0  0  0  0
  -14.1107    2.8319   24.3549 C   0  0  0  0  0  0  0  0  0  0  0  0
  -14.6378    4.1238   24.0140 C   0  0  0  0  0  0  0  0  0  0  0  0
  -15.7677    4.5272   24.6472 C   0  0  0  0  0  0  0  0  0  0  0  0
  4 11  1  0
  6 17  1  0
 18 21  1  0
 13 32  1  0
 32 33  1  0
 32 34  1  0
 32 35  1  0
 23 37  1  0
 37 38  1  0
 38 39  2  0
 17 18  2  0
 18 23  1  0
 23 22  2  0
 22 20  1  0
 20 19  2  0
 19 17  1  0
  1  2  2  0
  2  8  1  0
  8  9  2  0
  9 10  1  0
 10  7  2  0
 24 25  2  0
 25 26  1  0
 26 27  2  0
 27 28  1  0
 28 29  2  0
  1  3  1  0
  3  4  2  0
  4  5  1  0
  5  6  2  0
  6  7  1  0
  7  1  1  0
 11 12  2  0
 12 13  1  0
 13 14  2  0
 14 16  1  0
 16 15  2  0
 15 11  1  0
 21 24  1  0
 24 29  1  0
 29 30  1  0
 30 36  2  0
 36 31  1  0
 31 21  2  0
M  END
$$$$
