No_8940-complexes_sdf/6BKW-FPZ/2024-09-17-14-21-01/
     RDKit          3D

 21 23  0  0  0  0  0  0  0  0999 V2000
   -7.9040    3.9820   27.1177 C   0  0  0  0  0  0  0  0  0  0  0  0
   -8.2057    2.8231   26.8733 C   0  0  0  0  0  0  0  0  0  0  0  0
   -8.7695    5.0740   26.7916 C   0  0  0  0  0  0  0  0  0  0  0  0
   -9.9618    4.7598   26.1630 C   0  0  0  0  0  0  0  0  0  0  0  0
   -9.4200    2.4524   26.2849 C   0  0  0  0  0  0  0  0  0  0  0  0
  -10.2590    3.4815   25.9250 C   0  0  0  0  0  0  0  0  0  0  0  0
   -8.3840    6.4693   27.0829 C   0  0  0  0  0  0  0  0  0  0  0  0
   -8.7433    7.4015   26.4522 O   0  0  0  0  0  0  0  0  0  0  0  0
   -7.6017    6.5709   28.1657 O   0  0  0  0  0  0  0  0  0  0  0  0
   -7.1181    1.7791   27.3427 C   0  0  0  0  0  0  0  0  0  0  0  0
   -5.9097    2.1741   27.8250 C   0  0  0  0  0  0  0  0  0  0  0  0
   -4.9657    1.1418   28.2086 C   0  0  0  0  0  0  0  0  0  0  0  0
   -5.2655   -0.1712   28.1201 C   0  0  0  0  0  0  0  0  0  0  0  0
   -7.3829    0.3848   27.2867 C   0  0  0  0  0  0  0  0  0  0  0  0
   -6.5102   -0.5220   27.7026 C   0  0  0  0  0  0  0  0  0  0  0  0
   -4.2977   -1.1664   28.6536 C   0  0  0  0  0  0  0  0  0  0  0  0
   -3.8249   -1.1792   29.8525 C   0  0  0  0  0  0  0  0  0  0  0  0
   -2.8212   -2.0278   30.2805 C   0  0  0  0  0  0  0  0  0  0  0  0
   -2.4542   -3.0327   29.3947 C   0  0  0  0  0  0  0  0  0  0  0  0
   -3.8036   -2.1443   27.7618 C   0  0  0  0  0  0  0  0  0  0  0  0
   -2.8693   -3.0449   28.1192 C   0  0  0  0  0  0  0  0  0  0  0  0
  3  7  1  0
  7  8  2  0
  7  9  1  0
  2 10  1  0
 13 16  1  0
 10 11  2  0
 11 12  1  0
 12 13  2  0
 13 15  1  0
 15 14  2  0
 14 10  1  0
  1  2  2  0
  2  5  1  0
  5  6  2  0
  6  4  1  0
  4  3  2  0
  3  1  1  0
 16 17  2  0
 17 18  1  0
 18 19  2  0
 19 21  1  0
 21 20  2  0
 20 16  1  0
M  END
$$$$
