No_8728-complexes_sdf/6BKW-FPZ/2024-09-17-14-21-01/
     RDKit          3D

 19 21  0  0  0  0  0  0  0  0999 V2000
   -7.7129    4.2099   27.0854 C   0  0  0  0  0  0  0  0  0  0  0  0
   -7.7814    5.1722   27.8972 C   0  0  0  0  0  0  0  0  0  0  0  0
   -7.3155    2.9699   27.6145 C   0  0  0  0  0  0  0  0  0  0  0  0
   -7.6814    1.8188   26.9581 C   0  0  0  0  0  0  0  0  0  0  0  0
   -8.6377    1.9131   25.9324 C   0  0  0  0  0  0  0  0  0  0  0  0
   -9.1866    3.0673   25.6037 C   0  0  0  0  0  0  0  0  0  0  0  0
   -8.8394    4.1752   26.2513 C   0  0  0  0  0  0  0  0  0  0  0  0
   -8.2782    6.4669   27.5870 N   0  0  0  0  0  0  0  0  0  0  0  0
   -9.1782    6.6191   26.5818 C   0  0  0  0  0  0  0  0  0  0  0  0
   -9.4874    5.4604   25.8830 C   0  0  0  0  0  0  0  0  0  0  0  0
   -7.0154    0.5462   27.2654 C   0  0  0  0  0  0  0  0  0  0  0  0
   -7.6285   -0.6863   27.1124 C   0  0  0  0  0  0  0  0  0  0  0  0
   -9.0153   -0.6226   26.8245 C   0  0  0  0  0  0  0  0  0  0  0  0
   -9.7540   -1.8481   26.7619 C   0  0  0  0  0  0  0  0  0  0  0  0
  -11.1096   -1.7942   26.5623 C   0  0  0  0  0  0  0  0  0  0  0  0
  -11.7366   -0.5317   26.4332 C   0  0  0  0  0  0  0  0  0  0  0  0
  -11.0587    0.6160   26.5683 C   0  0  0  0  0  0  0  0  0  0  0  0
   -9.6637    0.5830   26.8726 C   0  0  0  0  0  0  0  0  0  0  0  0
   -9.6962    0.9086   28.2553 O   0  0  0  0  0  0  0  0  0  0  0  0
  4 11  1  0
 11 12  2  3
 12 13  1  0
 18 19  1  0
  1  2  2  0
  2  8  1  0
  8  9  2  0
  9 10  1  0
 10  7  2  0
 13 14  2  0
 14 15  1  0
 15 16  2  0
 16 17  1  0
 17 18  2  0
 18 13  1  0
  1  3  1  0
  3  4  2  0
  4  5  1  0
  5  6  2  0
  6  7  1  0
  7  1  1  0
M  END
$$$$
