No_8451-complexes_sdf/6BKW-FPZ/2024-09-17-14-21-01/
     RDKit          3D

 24 27  0  0  0  0  0  0  0  0999 V2000
   -7.9040    3.9820   27.1177 C   0  0  0  0  0  0  0  0  0  0  0  0
   -9.0711    4.3164   27.0630 C   0  0  0  0  0  0  0  0  0  0  0  0
   -9.5182    5.5541   27.5777 C   0  0  0  0  0  0  0  0  0  0  0  0
   -6.9424    4.7983   27.8424 C   0  0  0  0  0  0  0  0  0  0  0  0
   -7.3526    5.9739   28.3909 C   0  0  0  0  0  0  0  0  0  0  0  0
   -8.6479    6.3742   28.2169 C   0  0  0  0  0  0  0  0  0  0  0  0
  -10.0793    3.4689   26.3368 C   0  0  0  0  0  0  0  0  0  0  0  0
   -9.6567    2.5965   25.4484 C   0  0  0  0  0  0  0  0  0  0  0  0
  -10.3116    1.9106   24.6395 C   0  0  0  0  0  0  0  0  0  0  0  0
  -11.7204    2.1751   24.5122 C   0  0  0  0  0  0  0  0  0  0  0  0
  -12.2208    3.1551   25.3594 C   0  0  0  0  0  0  0  0  0  0  0  0
  -11.4263    3.9071   26.2187 C   0  0  0  0  0  0  0  0  0  0  0  0
   -9.5569    0.9330   23.7805 C   0  0  0  0  0  0  0  0  0  0  0  0
   -9.9318   -0.3311   23.7380 C   0  0  0  0  0  0  0  0  0  0  0  0
  -10.5943   -0.9148   24.3392 C   0  0  0  0  0  0  0  0  0  0  0  0
  -10.8809   -2.3556   24.1521 C   0  0  0  0  0  0  0  0  0  0  0  0
  -11.7098   -3.1289   24.9485 C   0  0  0  0  0  0  0  0  0  0  0  0
  -11.9214   -4.4420   24.7085 C   0  0  0  0  0  0  0  0  0  0  0  0
  -11.3035   -4.9844   23.5832 C   0  0  0  0  0  0  0  0  0  0  0  0
  -10.5150   -4.2810   22.7643 C   0  0  0  0  0  0  0  0  0  0  0  0
  -10.2549   -2.9086   23.0109 C   0  0  0  0  0  0  0  0  0  0  0  0
   -9.1467   -0.9795   22.5716 C   0  0  0  0  0  0  0  0  0  0  0  0
   -8.2232   -0.1577   21.7830 C   0  0  0  0  0  0  0  0  0  0  0  0
   -9.4178   -2.3159   22.2937 C   0  0  0  0  0  0  0  0  0  0  0  0
  2  7  1  0
  9 13  1  0
 13 14  1  0
 22 23  1  0
  1  2  2  0
  2  3  1  0
  3  6  2  0
  6  5  1  0
  5  4  2  0
  4  1  1  0
 14 15  2  0
 15 16  1  0
 21 24  1  0
 24 22  2  0
 22 14  1  0
  7  8  2  0
  8  9  1  0
  9 10  2  0
 10 11  1  0
 11 12  2  0
 12  7  1  0
 16 17  2  0
 17 18  1  0
 18 19  2  0
 19 20  1  0
 20 21  2  0
 21 16  1  0
M  END
$$$$
