No_8282-complexes_sdf/6BKW-FPZ/2024-09-17-14-21-01/
     RDKit          3D

 28 32  0  0  0  0  0  0  0  0999 V2000
   -7.9040    3.9820   27.1177 C   0  0  0  0  0  0  0  0  0  0  0  0
   -7.8663    4.8694   27.9238 C   0  0  0  0  0  0  0  0  0  0  0  0
   -7.4698    2.6989   27.4277 C   0  0  0  0  0  0  0  0  0  0  0  0
   -7.9683    1.5964   26.8266 C   0  0  0  0  0  0  0  0  0  0  0  0
   -8.9447    1.7923   25.8533 C   0  0  0  0  0  0  0  0  0  0  0  0
   -9.4405    2.9988   25.5757 C   0  0  2  0  0  0  0  0  0  0  0  0
  -10.4397    3.2630   24.6146 C   0  0  0  0  0  0  0  0  0  0  0  0
   -8.9100    4.1245   26.1959 C   0  0  0  0  0  0  0  0  0  0  0  0
   -8.1498    6.2592   27.6587 N   0  0  0  0  0  0  0  0  0  0  0  0
   -9.1628    6.6323   26.8618 C   0  0  0  0  0  0  0  0  0  0  0  0
   -9.5010    5.3910   25.9602 N   0  0  0  0  0  0  0  0  0  0  0  0
  -10.4936    2.6036   23.4424 C   0  0  0  0  0  0  0  0  0  0  0  0
  -11.4279    2.9100   22.4426 C   0  0  0  0  0  0  0  0  0  0  0  0
  -11.9946    3.7312   22.5567 C   0  0  0  0  0  0  0  0  0  0  0  0
  -12.1340    4.6940   23.6566 C   0  0  0  0  0  0  0  0  0  0  0  0
  -11.2756    4.4545   24.6623 C   0  0  0  0  0  0  0  0  0  0  0  0
   -7.3714    0.2465   27.0194 C   0  0  0  0  0  0  0  0  0  0  0  0
   -7.9362   -0.8431   26.8836 C   0  0  0  0  0  0  0  0  0  0  0  0
   -9.3488   -0.8317   26.4848 C   0  0  0  0  0  0  0  0  0  0  0  0
   -9.9769    0.5691   26.0591 C   0  0  0  0  0  0  0  0  0  0  0  0
   -9.7882   -1.8762   25.5395 C   0  0  0  0  0  0  0  0  0  0  0  0
   -9.7511   -2.9867   25.9118 N   0  0  0  0  0  0  0  0  0  0  0  0
   -9.7711   -3.3458   27.1471 C   0  0  0  0  0  0  0  0  0  0  0  0
   -9.6220   -4.1013   24.9651 C   0  0  0  0  0  0  0  0  0  0  0  0
   -9.7047   -4.6532   27.6153 C   0  0  0  0  0  0  0  0  0  0  0  0
   -9.6232   -5.4064   25.4123 C   0  0  0  0  0  0  0  0  0  0  0  0
   -9.6382   -5.6720   26.7560 C   0  0  0  0  0  0  0  0  0  0  0  0
  -10.5122   -1.5130   24.5831 O   0  0  0  0  0  0  0  0  0  0  0  0
  1  3  1  0
  3  4  1  0
  5  6  1  0
  6  7  1  6
  6  8  1  0
 19 21  1  0
 21 22  1  0
 22 23  1  0
 22 24  1  0
 25 27  1  0
 26 27  1  0
 21 28  2  0
 23 25  1  0
 26 24  1  0
  4  5  2  0
  5 20  1  0
 20 19  2  0
 19 18  1  0
 18 17  2  0
 17  4  1  0
  7 12  2  0
 12 13  1  0
 13 14  2  0
 14 15  1  0
 15 16  2  0
 16  7  1  0
  1  2  2  0
  2  9  1  0
  9 10  2  0
 10 11  1  0
 11  8  2  0
  8  1  1  0
M  END
$$$$
