No_8684-complexes_sdf/6BKW-FPZ/2024-09-17-14-21-01/
     RDKit          3D

 36 42  0  0  0  0  0  0  0  0999 V2000
   -7.9040    3.9820   27.1177 C   0  0  0  0  0  0  0  0  0  0  0  0
   -7.8663    4.8694   27.9238 C   0  0  0  0  0  0  0  0  0  0  0  0
   -9.0953    3.1697   27.0532 C   0  0  0  0  0  0  0  0  0  0  0  0
  -10.1313    3.4052   27.8871 C   0  0  0  0  0  0  0  0  0  0  0  0
  -11.2910    2.5514   27.9289 C   0  0  0  0  0  0  0  0  0  0  0  0
   -8.8225    5.5968   28.1023 C   0  0  0  0  0  0  0  0  0  0  0  0
  -10.1459    4.7014   28.4891 C   0  0  0  0  0  0  0  0  0  0  0  0
  -11.9732    2.4416   26.9677 C   0  0  0  0  0  0  0  0  0  0  0  0
  -13.1281    1.5104   27.0179 C   0  0  0  0  0  0  0  0  0  0  0  0
  -13.3826    0.8218   28.1702 C   0  0  0  0  0  0  0  0  0  0  0  0
  -12.5606    0.9724   29.2876 C   0  0  0  0  0  0  0  0  0  0  0  0
  -11.4762    1.8463   29.2442 C   0  0  0  0  0  0  0  0  0  0  0  0
   -8.9860    1.8145   26.4047 C   0  0  0  0  0  0  0  0  0  0  0  0
   -8.1337    0.8066   26.7884 C   0  0  0  0  0  0  0  0  0  0  0  0
   -8.0198   -0.3754   26.2004 C   0  0  0  0  0  0  0  0  0  0  0  0
   -8.8799   -0.6131   25.1133 C   0  0  0  0  0  0  0  0  0  0  0  0
   -9.7447    0.3593   24.6236 C   0  0  0  0  0  0  0  0  0  0  0  0
   -9.7630    1.6142   25.2686 C   0  0  0  0  0  0  0  0  0  0  0  0
  -10.5404    0.1445   23.4476 C   0  0  0  0  0  0  0  0  0  0  0  0
  -11.0032    1.2653   22.8794 C   0  0  0  0  0  0  0  0  0  0  0  0
  -10.9643    2.5663   23.4975 C   0  0  0  0  0  0  0  0  0  0  0  0
  -10.3252    2.7316   24.6387 C   0  0  0  0  0  0  0  0  0  0  0  0
  -11.6107    3.7006   22.7596 C   0  0  0  0  0  0  0  0  0  0  0  0
  -11.3424    4.8725   23.4769 C   0  0  0  0  0  0  0  0  0  0  0  0
  -10.0283    5.0697   24.0781 C   0  0  0  0  0  0  0  0  0  0  0  0
   -9.7726    3.9760   25.0465 C   0  0  0  0  0  0  0  0  0  0  0  0
  -14.0181    1.3350   25.8423 C   0  0  0  0  0  0  0  0  0  0  0  0
  -14.7025    2.3979   25.3526 C   0  0  0  0  0  0  0  0  0  0  0  0
  -14.0454    0.1047   25.2079 C   0  0  0  0  0  0  0  0  0  0  0  0
  -15.4285    2.3240   24.1754 C   0  0  0  0  0  0  0  0  0  0  0  0
  -14.8317   -0.0303   24.0578 C   0  0  0  0  0  0  0  0  0  0  0  0
  -15.5073    1.0758   23.5707 C   0  0  0  0  0  0  0  0  0  0  0  0
  -12.5277    3.5508   21.7835 C   0  0  0  0  0  0  0  0  0  0  0  0
  -16.2272    0.9047   22.4382 O   0  0  0  0  0  0  0  0  0  0  0  0
  -11.8561    1.1039   21.6374 C   0  0  0  0  0  0  0  0  0  0  0  0
  -12.6539    2.2424   21.1745 C   0  0  0  0  0  0  0  0  0  0  0  0
  4  5  1  0
  3 13  1  0
 23 24  1  0
 24 25  1  0
 22 26  1  0
 25 26  1  0
  9 27  1  0
 32 34  1  0
 27 28  2  0
 28 30  1  0
 30 32  2  0
 32 31  1  0
 31 29  2  0
 29 27  1  0
 21 23  2  0
 23 33  1  0
 33 36  2  0
 36 35  1  0
 35 20  2  0
 18 22  2  0
 22 21  1  0
 21 20  1  0
 20 19  1  0
 19 17  2  0
  5  8  2  0
  8  9  1  0
  9 10  2  0
 10 11  1  0
 11 12  2  0
 12  5  1  0
  1  2  2  0
  2  6  1  0
  6  7  2  0
  7  4  1  0
  4  3  2  0
  3  1  1  0
 13 14  2  0
 14 15  1  0
 15 16  2  0
 16 17  1  0
 17 18  1  0
 18 13  1  0
M  END
$$$$
