No_8650-complexes_sdf/6BKW-FPZ/2024-09-17-14-21-01/
     RDKit          3D

 17 19  0  0  0  0  0  0  0  0999 V2000
   -7.9040    3.9820   27.1177 C   0  0  0  0  0  0  0  0  0  0  0  0
   -8.2057    2.8231   26.8733 C   0  0  0  0  0  0  0  0  0  0  0  0
   -9.2962    2.4021   26.1155 C   0  0  0  0  0  0  0  0  0  0  0  0
   -8.7358    5.0662   26.5917 C   0  0  0  0  0  0  0  0  0  0  0  0
   -9.7618    4.7023   25.7546 C   0  0  0  0  0  0  0  0  0  0  0  0
  -10.0066    3.4105   25.4922 C   0  0  0  0  0  0  0  0  0  0  0  0
   -8.3936    6.4769   26.8843 C   0  0  0  0  0  0  0  0  0  0  0  0
   -8.1939    6.7736   28.0729 O   0  0  0  0  0  0  0  0  0  0  0  0
   -8.5364    7.3498   25.9528 O   0  0  0  0  0  0  0  0  0  0  0  0
   -7.3514    1.6727   27.4988 C   0  0  0  0  0  0  0  0  0  0  0  0
   -7.7010    0.3362   27.3769 C   0  0  0  0  0  0  0  0  0  0  0  0
   -6.7852   -0.6012   27.7527 C   0  0  0  0  0  0  0  0  0  0  0  0
   -7.1326   -1.9649   27.8460 C   0  0  0  0  0  0  0  0  0  0  0  0
   -8.4521   -2.2664   27.4080 C   0  0  0  0  0  0  0  0  0  0  0  0
   -9.3477   -1.3550   27.0290 C   0  0  0  0  0  0  0  0  0  0  0  0
   -8.9907   -0.0124   27.0492 C   0  0  0  0  0  0  0  0  0  0  0  0
   -9.7092    1.0016   26.0890 C   0  0  0  0  0  0  0  0  0  0  0  0
  4  7  1  0
  7  8  2  0
  7  9  1  0
 11 12  1  0
 12 13  2  0
 13 14  1  0
 14 15  2  0
 15 16  1  0
  1  2  2  0
  3  6  2  0
  6  5  1  0
  5  4  2  0
  4  1  1  0
  2  3  1  0
  3 17  1  0
 17 16  2  0
 16 11  1  0
 11 10  2  0
 10  2  1  0
M  END
$$$$
