No_8825-complexes_sdf/6BKW-FPZ/2024-09-17-14-21-01/
     RDKit          3D

 37 40  0  0  0  0  0  0  0  0999 V2000
   -7.9040    3.9820   27.1177 C   0  0  0  0  0  0  0  0  0  0  0  0
   -9.0711    4.3164   27.0630 C   0  0  0  0  0  0  0  0  0  0  0  0
   -9.8698    3.9665   25.9495 C   0  0  0  0  0  0  0  0  0  0  0  0
   -6.9515    4.6878   28.0207 C   0  0  0  0  0  0  0  0  0  0  0  0
  -10.0928    2.7224   25.5448 C   0  0  0  0  0  0  0  0  0  0  0  0
   -8.8484    1.9308   25.8854 C   0  0  0  0  0  0  0  0  0  0  0  0
   -7.8605    2.5047   26.7763 C   0  0  0  0  0  0  0  0  0  0  0  0
   -8.6627    0.5665   25.4506 C   0  0  0  0  0  0  0  0  0  0  0  0
   -9.6069   -0.2799   25.8379 F   0  0  0  0  0  0  0  0  0  0  0  0
   -7.5020    0.1746   25.9993 F   0  0  0  0  0  0  0  0  0  0  0  0
   -8.5305    0.5685   24.1228 F   0  0  0  0  0  0  0  0  0  0  0  0
   -7.2799    5.8004   28.4702 O   0  0  0  0  0  0  0  0  0  0  0  0
   -5.8625    4.0163   28.4128 O   0  0  0  0  0  0  0  0  0  0  0  0
  -10.8924    2.2559   24.5559 C   0  0  0  0  0  0  0  0  0  0  0  0
  -12.2323    2.1438   25.1138 C   0  0  0  0  0  0  0  0  0  0  0  0
  -13.1294    1.5837   24.3946 C   0  0  0  0  0  0  0  0  0  0  0  0
  -14.3439    1.4013   24.7897 C   0  0  0  0  0  0  0  0  0  0  0  0
  -14.7658    1.9407   26.0727 C   0  0  0  0  0  0  0  0  0  0  0  0
  -13.8353    2.6132   26.8202 C   0  0  0  0  0  0  0  0  0  0  0  0
  -12.5816    2.7309   26.3931 C   0  0  0  0  0  0  0  0  0  0  0  0
  -14.2557    3.1988   28.1448 C   0  0  0  0  0  0  0  0  0  0  0  0
  -14.4206    4.5146   28.2405 C   0  0  0  0  0  0  0  0  0  0  0  0
  -13.9623    5.4532   27.2680 C   0  0  0  0  0  0  0  0  0  0  0  0
  -15.1292    5.0635   29.4463 C   0  0  1  0  0  0  0  0  0  0  0  0
  -15.6843    6.2506   29.4068 N   0  0  0  0  0  0  0  0  0  0  0  0
  -15.3021    4.3408   30.4176 F   0  0  0  0  0  0  0  0  0  0  0  0
  -16.0327    6.9194   30.5313 C   0  0  0  0  0  0  0  0  0  0  0  0
  -15.8105    6.9695   28.1487 C   0  0  0  0  0  0  0  0  0  0  0  0
  -14.8298    6.6754   27.1533 C   0  0  0  0  0  0  0  0  0  0  0  0
  -17.4973    6.7868   30.9042 C   0  0  0  0  0  0  0  0  0  0  0  0
  -17.9062    5.5045   31.0472 C   0  0  0  0  0  0  0  0  0  0  0  0
  -19.0337    5.2124   30.5143 C   0  0  0  0  0  0  0  0  0  0  0  0
  -19.5393    3.8244   30.6116 C   0  0  0  0  0  0  0  0  0  0  0  0
  -18.7231    2.8842   31.2444 C   0  0  0  0  0  0  0  0  0  0  0  0
  -17.5563    3.2480   31.8396 C   0  0  0  0  0  0  0  0  0  0  0  0
  -17.1258    4.5581   31.7790 C   0  0  0  0  0  0  0  0  0  0  0  0
  -16.2544    8.1413   28.1674 O   0  0  0  0  0  0  0  0  0  0  0  0
  1  4  1  0
  6  8  1  0
  8  9  1  0
  8 10  1  0
  8 11  1  0
  4 12  2  0
  4 13  1  0
  5 14  1  0
 14 15  1  0
 19 21  1  0
 22 23  1  0
 22 24  1  0
 24 25  1  0
 24 26  1  6
 25 27  1  0
 25 28  1  0
 28 29  1  0
 27 30  1  0
 30 31  1  0
 28 37  2  0
 21 22  1  0
 23 29  1  0
 15 16  2  0
 16 17  1  0
 17 18  2  0
 18 19  1  0
 19 20  2  0
 20 15  1  0
 31 32  2  0
 32 33  1  0
 33 34  2  0
 34 35  1  0
 35 36  2  0
 36 31  1  0
  1  2  2  0
  2  3  1  0
  3  5  2  0
  5  6  1  0
  6  7  2  0
  7  1  1  0
M  END
$$$$
