No_8131-complexes_sdf/6BKW-FPZ/2024-09-17-14-21-01/
     RDKit          3D

 17 18  0  0  0  0  0  0  0  0999 V2000
   -7.7129    4.2099   27.0854 C   0  0  0  0  0  0  0  0  0  0  0  0
   -8.2112    3.0637   26.9225 C   0  0  0  0  0  0  0  0  0  0  0  0
   -8.5108    5.3904   26.9436 C   0  0  0  0  0  0  0  0  0  0  0  0
   -9.7256    5.1955   26.3518 C   0  0  0  0  0  0  0  0  0  0  0  0
   -9.4995    2.8258   26.4878 C   0  0  0  0  0  0  0  0  0  0  0  0
  -10.2542    3.9691   26.2055 C   0  0  0  0  0  0  0  0  0  0  0  0
   -7.7461    6.6275   27.1846 C   0  0  0  0  0  0  0  0  0  0  0  0
   -7.1928    1.9107   27.3037 C   0  0  0  0  0  0  0  0  0  0  0  0
   -6.0514    2.2101   27.7244 N   0  0  0  0  0  0  0  0  0  0  0  0
   -5.2229    1.0786   28.0691 C   0  0  0  0  0  0  0  0  0  0  0  0
   -3.8976    1.2537   28.6570 C   0  0  0  0  0  0  0  0  0  0  0  0
   -5.6645   -0.1942   27.7898 C   0  0  0  0  0  0  0  0  0  0  0  0
   -7.8964    0.8083   27.1885 O   0  0  0  0  0  0  0  0  0  0  0  0
   -4.7509   -1.2418   28.2218 C   0  0  0  0  0  0  0  0  0  0  0  0
   -3.1275    0.2568   29.0744 C   0  0  0  0  0  0  0  0  0  0  0  0
   -3.5535   -1.0225   28.8621 C   0  0  0  0  0  0  0  0  0  0  0  0
   -8.6168    7.8367   27.0875 C   0  0  0  0  0  0  0  0  0  0  0  0
  3  7  1  0
  2  8  1  0
  8  9  1  0
  8 13  2  0
  7 17  1  0
  9 10  1  0
 10 11  2  0
 11 15  1  0
 15 16  2  0
 16 14  1  0
 14 12  2  0
 12 10  1  0
  1  2  2  0
  2  5  1  0
  5  6  2  0
  6  4  1  0
  4  3  2  0
  3  1  1  0
M  END
$$$$
