No_8480-complexes_sdf/6BKW-FPZ/2024-09-17-14-21-01/
     RDKit          3D

 27 29  0  0  0  0  0  0  0  0999 V2000
   -7.9040    3.9820   27.1177 C   0  0  0  0  0  0  0  0  0  0  0  0
   -9.0711    4.3164   27.0630 C   0  0  0  0  0  0  0  0  0  0  0  0
   -9.5182    5.5541   27.5777 C   0  0  0  0  0  0  0  0  0  0  0  0
   -7.4468    2.6843   26.6499 C   0  0  0  0  0  0  0  0  0  0  0  0
   -8.3856    1.7878   26.2216 C   0  0  0  0  0  0  0  0  0  0  0  0
   -9.6812    2.2328   26.0889 C   0  0  0  0  0  0  0  0  0  0  0  0
  -10.0147    3.4312   26.5259 C   0  0  0  0  0  0  0  0  0  0  0  0
   -7.9143    0.4677   25.8109 C   0  0  0  0  0  0  0  0  0  0  0  0
   -8.3506   -0.4352   26.4493 C   0  0  0  0  0  0  0  0  0  0  0  0
   -9.0375   -0.5902   27.3703 C   0  0  0  0  0  0  0  0  0  0  0  0
   -9.4682   -1.8039   28.1658 C   0  0  0  0  0  0  0  0  0  0  0  0
   -8.8733   -2.9151   27.7697 C   0  0  0  0  0  0  0  0  0  0  0  0
   -8.0341   -2.9193   26.7262 C   0  0  0  0  0  0  0  0  0  0  0  0
   -7.6443   -1.8213   26.0814 C   0  0  0  0  0  0  0  0  0  0  0  0
   -8.6746    6.6055   27.6703 N   0  0  0  0  0  0  0  0  0  0  0  0
   -7.8690    6.8898   26.5807 C   0  0  0  0  0  0  0  0  0  0  0  0
   -7.2079    8.1877   27.0017 C   0  0  0  0  0  0  0  0  0  0  0  0
  -10.7292    5.6666   28.0036 O   0  0  0  0  0  0  0  0  0  0  0  0
   -7.4319   -4.2504   26.3144 C   0  0  0  0  0  0  0  0  0  0  0  0
   -7.5251   -4.6821   25.2855 O   0  0  0  0  0  0  0  0  0  0  0  0
   -6.6917   -4.8895   27.3435 N   0  0  0  0  0  0  0  0  0  0  0  0
   -6.0593   -6.1283   27.0491 C   0  0  0  0  0  0  0  0  0  0  0  0
   -5.8434   -6.7540   28.1252 C   0  0  0  0  0  0  0  0  0  0  0  0
   -5.2478   -8.0424   28.1284 C   0  0  0  0  0  0  0  0  0  0  0  0
   -4.9199   -8.5741   26.8470 C   0  0  0  0  0  0  0  0  0  0  0  0
   -5.1985   -7.8152   25.7259 C   0  0  0  0  0  0  0  0  0  0  0  0
   -5.7557   -6.5515   25.8030 C   0  0  0  0  0  0  0  0  0  0  0  0
  2  3  1  0
  5  8  1  0
  8  9  1  0
  3 15  1  0
 15 16  1  0
 16 17  1  0
  3 18  2  0
 13 19  1  0
 19 20  2  0
 19 21  1  0
 21 22  1  0
 22 23  2  0
 23 24  1  0
 24 25  2  0
 25 26  1  0
 26 27  2  0
 27 22  1  0
  1  2  2  0
  2  7  1  0
  7  6  2  0
  6  5  1  0
  5  4  2  0
  4  1  1  0
  9 10  2  0
 10 11  1  0
 11 12  2  0
 12 13  1  0
 13 14  2  0
 14  9  1  0
M  END
$$$$
