No_8659-complexes_sdf/6BKW-FPZ/2024-09-17-14-21-01/
     RDKit          3D

 40 44  0  0  0  0  0  0  0  0999 V2000
   -7.9040    3.9820   27.1177 C   0  0  0  0  0  0  0  0  0  0  0  0
   -7.8663    4.8694   27.9238 C   0  0  0  0  0  0  0  0  0  0  0  0
   -9.0491    3.8523   26.2542 C   0  0  0  0  0  0  0  0  0  0  0  0
   -8.7661    5.9491   27.9690 C   0  0  0  0  0  0  0  0  0  0  0  0
   -9.9295    4.8502   26.2323 C   0  0  0  0  0  0  0  0  0  0  0  0
   -9.8077    5.9288   27.0933 C   0  0  0  0  0  0  0  0  0  0  0  0
   -6.8002    2.6256   27.2024 Cl  0  0  0  0  0  0  0  0  0  0  0  0
   -9.1191    2.6984   25.2948 C   0  0  0  0  0  0  0  0  0  0  0  0
  -10.1024    2.8266   24.2781 C   0  0  0  0  0  0  0  0  0  0  0  0
  -10.8610    4.0038   24.1872 C   0  0  0  0  0  0  0  0  0  0  0  0
  -10.8512    4.9126   25.1652 N   0  0  0  0  0  0  0  0  0  0  0  0
  -11.9232    4.0636   23.2029 C   0  0  0  0  0  0  0  0  0  0  0  0
  -11.6558    4.3590   22.0766 O   0  0  0  0  0  0  0  0  0  0  0  0
  -13.1726    4.0246   23.5873 O   0  0  0  0  0  0  0  0  0  0  0  0
  -10.1844    1.7398   23.3743 C   0  0  0  0  0  0  0  0  0  0  0  0
   -9.8078    1.7537   22.3255 N   0  0  0  0  0  0  0  0  0  0  0  0
   -9.6937    0.6360   21.4379 C   0  0  0  0  0  0  0  0  0  0  0  0
  -11.0547    0.6471   23.7268 C   0  0  0  0  0  0  0  0  0  0  0  0
  -11.1116   -0.4801   22.9950 C   0  0  0  0  0  0  0  0  0  0  0  0
  -10.4261   -0.4192   21.7423 C   0  0  0  0  0  0  0  0  0  0  0  0
  -10.4166   -1.7153   20.6391 Cl  0  0  0  0  0  0  0  0  0  0  0  0
  -14.1088    3.4107   23.1273 C   0  0  0  0  0  0  0  0  0  0  0  0
  -14.6865    2.4771   23.9499 C   0  0  0  0  0  0  0  0  0  0  0  0
  -15.6461    1.5526   23.4080 C   0  0  0  0  0  0  0  0  0  0  0  0
  -16.0298    1.7178   22.0502 C   0  0  0  0  0  0  0  0  0  0  0  0
  -15.3970    2.7012   21.2902 C   0  0  0  0  0  0  0  0  0  0  0  0
  -14.4326    3.5618   21.8151 C   0  0  0  0  0  0  0  0  0  0  0  0
  -17.0548    0.8777   21.4626 C   0  0  0  0  0  0  0  0  0  0  0  0
  -17.4061    0.8500   20.4263 N   0  0  0  0  0  0  0  0  0  0  0  0
  -17.3364   -0.2377   22.2592 N   0  0  0  0  0  0  0  0  0  0  0  0
  -18.2351   -1.1342   21.7709 C   0  0  0  0  0  0  0  0  0  0  0  0
  -18.2888    0.0657   19.8069 C   0  0  0  0  0  0  0  0  0  0  0  0
  -18.7334   -1.0261   20.5564 C   0  0  0  0  0  0  0  0  0  0  0  0
  -19.6805   -1.9586   19.9946 C   0  0  0  0  0  0  0  0  0  0  0  0
  -20.1741   -2.7891   20.6441 O   0  0  0  0  0  0  0  0  0  0  0  0
  -19.9021   -1.9551   18.5903 N   0  0  0  0  0  0  0  0  0  0  0  0
  -20.7722   -2.8446   18.0041 C   0  0  0  0  0  0  0  0  0  0  0  0
  -21.4720   -3.5889   18.0485 C   0  0  0  0  0  0  0  0  0  0  0  0
  -22.1709   -4.2859   17.0353 C   0  0  0  0  0  0  0  0  0  0  0  0
  -21.8755   -3.9113   15.7464 C   0  0  0  0  0  0  0  0  0  0  0  0
  1  7  1  0
 10 12  1  0
 12 13  2  0
 12 14  1  0
  9 15  1  0
 20 21  1  0
 14 22  1  0
 25 28  1  0
 33 34  1  0
 34 35  2  0
 34 36  1  0
 36 37  1  0
 37 38  2  3
 38 39  1  0
 39 40  2  0
  5 11  2  0
 11 10  1  0
 10  9  2  0
  9  8  1  0
  8  3  2  0
 22 23  2  0
 23 24  1  0
 24 25  2  0
 25 26  1  0
 26 27  2  0
 27 22  1  0
 15 16  2  0
 16 17  1  0
 17 20  2  0
 20 19  1  0
 19 18  2  0
 18 15  1  0
 28 29  2  0
 29 32  1  0
 32 33  2  0
 33 31  1  0
 31 30  2  0
 30 28  1  0
  1  2  2  0
  2  4  1  0
  4  6  2  0
  6  5  1  0
  5  3  1  0
  3  1  1  0
M  END
$$$$
