No_8217-complexes_sdf/6BKW-FPZ/2024-09-17-14-21-01/
     RDKit          3D

 30 33  0  0  0  0  0  0  0  0999 V2000
   -7.2496    3.8871   27.4508 C   0  0  0  0  0  0  0  0  0  0  0  0
   -7.6161    2.7143   27.1523 C   0  0  0  0  0  0  0  0  0  0  0  0
   -8.8302    2.4659   26.5056 C   0  0  0  0  0  0  0  0  0  0  0  0
   -8.1584    5.0090   27.3234 C   0  0  0  0  0  0  0  0  0  0  0  0
   -9.3788    4.7965   26.7695 C   0  0  0  0  0  0  0  0  0  0  0  0
   -9.7028    3.5649   26.3276 C   0  0  0  0  0  0  0  0  0  0  0  0
   -6.5671    1.3685   27.4084 Cl  0  0  0  0  0  0  0  0  0  0  0  0
   -7.7205    6.2551   27.7266 O   0  0  0  0  0  0  0  0  0  0  0  0
  -10.9963    3.1655   25.7323 C   0  0  0  0  0  0  0  0  0  0  0  0
  -12.0180    2.7677   26.4674 C   0  0  0  0  0  0  0  0  0  0  0  0
  -11.7661    2.6734   27.9227 C   0  0  0  0  0  0  0  0  0  0  0  0
  -12.8076    2.1442   28.8503 C   0  0  0  0  0  0  0  0  0  0  0  0
  -12.5375    2.1308   30.1981 C   0  0  0  0  0  0  0  0  0  0  0  0
  -13.6282    1.7135   30.9678 C   0  0  0  0  0  0  0  0  0  0  0  0
  -14.7756    1.2560   30.4456 C   0  0  0  0  0  0  0  0  0  0  0  0
  -14.1848    1.5980   28.7568 C   0  0  0  0  0  0  0  0  0  0  0  0
  -11.1634    3.4985   24.3319 C   0  0  0  0  0  0  0  0  0  0  0  0
  -10.4108    4.3205   23.6917 C   0  0  0  0  0  0  0  0  0  0  0  0
  -10.7897    4.6302   22.3596 C   0  0  0  0  0  0  0  0  0  0  0  0
  -11.7882    3.9552   21.7703 C   0  0  0  0  0  0  0  0  0  0  0  0
  -12.2087    2.9682   23.5255 C   0  0  0  0  0  0  0  0  0  0  0  0
  -12.5184    3.1544   22.3453 C   0  0  0  0  0  0  0  0  0  0  0  0
  -14.8700    1.3640   27.7590 O   0  0  0  0  0  0  0  0  0  0  0  0
  -14.6624    0.2874   27.0081 C   0  0  0  0  0  0  0  0  0  0  0  0
  -15.1931    0.4712   25.7079 C   0  0  0  0  0  0  0  0  0  0  0  0
  -16.0711   -0.3178   25.4349 C   0  0  0  0  0  0  0  0  0  0  0  0
  -16.9048   -0.1014   24.1966 C   0  0  0  0  0  0  0  0  0  0  0  0
  -16.4683    0.8906   23.3418 C   0  0  0  0  0  0  0  0  0  0  0  0
  -15.4314    1.7068   23.6762 C   0  0  0  0  0  0  0  0  0  0  0  0
  -14.8088    1.5500   24.8710 C   0  0  0  0  0  0  0  0  0  0  0  0
  2  7  1  0
  4  8  1  0
  6  9  1  0
  9 10  2  3
 10 11  1  0
 11 12  2  3
 12 13  1  0
 13 14  1  0
 14 15  2  0
 12 16  1  0
 15 16  1  0
  9 17  1  0
 16 23  1  0
 23 24  1  0
 24 25  1  0
 17 18  2  0
 18 19  1  0
 19 20  2  0
 20 22  1  0
 22 21  2  0
 21 17  1  0
  1  2  2  0
  2  3  1  0
  3  6  2  0
  6  5  1  0
  5  4  2  0
  4  1  1  0
 25 26  2  0
 26 27  1  0
 27 28  2  0
 28 29  1  0
 29 30  2  0
 30 25  1  0
M  END
$$$$
