No_8352-complexes_sdf/6BKW-FPZ/2024-09-17-14-21-01/
     RDKit          3D

 17 18  0  0  0  0  0  0  0  0999 V2000
   -7.9040    3.9820   27.1177 C   0  0  0  0  0  0  0  0  0  0  0  0
   -9.0711    4.3164   27.0630 C   0  0  0  0  0  0  0  0  0  0  0  0
   -9.5294    5.4517   27.7215 C   0  0  0  0  0  0  0  0  0  0  0  0
   -9.9845    3.5634   26.2189 C   0  0  0  0  0  0  0  0  0  0  0  0
  -10.5758    2.5046   26.7628 C   0  0  0  0  0  0  0  0  0  0  0  0
   -6.9870    4.6198   28.1137 C   0  0  0  0  0  0  0  0  0  0  0  0
   -5.6556    4.1738   28.1659 C   0  0  0  0  0  0  0  0  0  0  0  0
  -10.5242    2.1847   28.0393 C   0  0  0  0  0  0  0  0  0  0  0  0
  -11.1604    1.0375   28.6699 C   0  0  0  0  0  0  0  0  0  0  0  0
  -11.7270    0.1470   27.7679 C   0  0  0  0  0  0  0  0  0  0  0  0
  -12.3365   -1.0119   28.3544 C   0  0  0  0  0  0  0  0  0  0  0  0
  -11.2421    1.4781   25.9629 C   0  0  0  0  0  0  0  0  0  0  0  0
  -11.7921    0.3489   26.5001 C   0  0  0  0  0  0  0  0  0  0  0  0
  -12.6571   -1.9095   28.0053 O   0  0  0  0  0  0  0  0  0  0  0  0
  -12.4160   -0.9335   29.8472 O   0  0  0  0  0  0  0  0  0  0  0  0
   -7.3950    5.7248   28.7830 C   0  0  0  0  0  0  0  0  0  0  0  0
   -8.6990    6.2682   28.5117 C   0  0  0  0  0  0  0  0  0  0  0  0
  2  4  1  0
 10 11  1  0
 11 14  2  0
 11 15  1  0
  4  5  1  0
  7  6  1  0
  1  2  2  0
  2  3  1  0
  3 17  2  0
 17 16  1  0
 16  6  2  0
  6  1  1  0
  5  8  2  0
  8  9  1  0
  9 10  2  0
 10 13  1  0
 13 12  2  0
 12  5  1  0
M  END
$$$$
