No_8006-complexes_sdf/6BKW-FPZ/2024-09-17-14-21-01/
     RDKit          3D

 30 32  0  0  0  0  0  0  0  0999 V2000
   -7.9040    3.9820   27.1177 C   0  0  0  0  0  0  0  0  0  0  0  0
   -7.8663    4.8694   27.9238 C   0  0  0  0  0  0  0  0  0  0  0  0
   -9.0501    3.8017   26.2617 C   0  0  0  0  0  0  0  0  0  0  0  0
  -10.0189    4.7608   26.3707 C   0  0  0  0  0  0  0  0  0  0  0  0
   -8.6770    5.9780   27.9222 C   0  0  0  0  0  0  0  0  0  0  0  0
   -9.8040    5.8752   27.0958 C   0  0  0  0  0  0  0  0  0  0  0  0
   -9.1434    2.6226   25.4210 C   0  0  0  0  0  0  0  0  0  0  0  0
   -8.6414    1.4248   25.8504 C   0  0  0  0  0  0  0  0  0  0  0  0
   -8.7221    0.2951   25.0477 C   0  0  0  0  0  0  0  0  0  0  0  0
   -9.2843    0.4597   23.7792 C   0  0  0  0  0  0  0  0  0  0  0  0
   -9.7683    2.6338   24.1423 C   0  0  0  0  0  0  0  0  0  0  0  0
   -9.7776    1.6198   23.3474 C   0  0  0  0  0  0  0  0  0  0  0  0
   -9.3561   -0.7929   22.8694 C   0  0  0  0  0  0  0  0  0  0  0  0
  -10.3428   -1.6620   23.2089 C   0  0  0  0  0  0  0  0  0  0  0  0
  -11.0093   -1.8479   23.9729 C   0  0  0  0  0  0  0  0  0  0  0  0
  -11.8439   -2.2448   24.5377 C   0  0  0  0  0  0  0  0  0  0  0  0
  -12.7842   -2.5030   25.4939 C   0  0  0  0  0  0  0  0  0  0  0  0
  -13.6819   -3.1618   25.2925 O   0  0  0  0  0  0  0  0  0  0  0  0
  -12.8270   -1.6324   26.6424 O   0  0  0  0  0  0  0  0  0  0  0  0
  -12.1404   -0.7156   26.9531 C   0  0  0  0  0  0  0  0  0  0  0  0
  -12.6194    0.5917   26.9121 C   0  0  0  0  0  0  0  0  0  0  0  0
  -11.8295    1.6547   27.3514 C   0  0  0  0  0  0  0  0  0  0  0  0
  -12.2931    2.9974   27.3863 C   0  0  0  0  0  0  0  0  0  0  0  0
  -13.5303    3.3631   26.8953 C   0  0  0  0  0  0  0  0  0  0  0  0
  -14.3461    2.2882   26.4415 C   0  0  0  0  0  0  0  0  0  0  0  0
  -13.9156    0.9671   26.4347 C   0  0  0  0  0  0  0  0  0  0  0  0
  -10.9664   -0.9515   27.5037 O   0  0  0  0  0  0  0  0  0  0  0  0
  -10.2063   -2.7047   22.1958 O   0  0  0  0  0  0  0  0  0  0  0  0
  -10.4631   -0.9672   24.7753 F   0  0  0  0  0  0  0  0  0  0  0  0
  -12.4778   -3.0578   23.3938 C   0  0  0  0  0  0  0  0  0  0  0  0
  3  7  1  0
 10 13  1  0
 13 14  1  0
 14 15  1  0
 15 16  2  3
 16 17  1  0
 17 18  2  0
 17 19  1  0
 19 20  1  0
 20 21  1  0
 20 27  2  0
 14 28  2  0
 15 29  1  0
 16 30  1  0
  7  8  2  0
  8  9  1  0
  9 10  2  0
 10 12  1  0
 12 11  2  0
 11  7  1  0
  1  2  2  0
  2  5  1  0
  5  6  2  0
  6  4  1  0
  4  3  2  0
  3  1  1  0
 21 22  2  0
 22 23  1  0
 23 24  2  0
 24 25  1  0
 25 26  2  0
 26 21  1  0
M  END
$$$$
