No_8628-complexes_sdf/6BKW-FPZ/2024-09-17-14-21-01/
     RDKit          3D

 24 28  0  0  0  0  0  0  0  0999 V2000
   -7.7129    4.2099   27.0854 C   0  0  0  0  0  0  0  0  0  0  0  0
   -7.7814    5.1722   27.8972 C   0  0  0  0  0  0  0  0  0  0  0  0
   -8.8998    3.8713   26.3707 C   0  0  0  0  0  0  0  0  0  0  0  0
   -9.9938    4.6774   26.5446 C   0  0  0  0  0  0  0  0  0  0  0  0
   -8.7789    6.1536   27.9256 C   0  0  0  0  0  0  0  0  0  0  0  0
   -9.9428    5.8398   27.2296 C   0  0  0  0  0  0  0  0  0  0  0  0
   -8.9119    2.6447   25.5685 C   0  0  0  0  0  0  0  0  0  0  0  0
   -9.7323    2.5751   24.5467 N   0  0  0  0  0  0  0  0  0  0  0  0
   -9.7458    1.5379   23.6899 C   0  0  0  0  0  0  0  0  0  0  0  0
   -8.4464    1.6177   26.0264 O   0  0  0  0  0  0  0  0  0  0  0  0
  -10.2707    1.7659   22.4107 C   0  0  0  0  0  0  0  0  0  0  0  0
  -10.7760    3.0078   22.0670 C   0  0  1  0  0  0  0  0  0  0  0  0
  -10.7259    4.0619   23.0059 C   0  0  0  0  0  0  0  0  0  0  0  0
  -10.1927    3.8952   24.1568 C   0  0  1  0  0  0  0  0  0  0  0  0
  -10.7614    4.6593   25.3116 N   0  0  0  0  0  0  0  0  0  0  0  0
   -6.6780    5.5082   28.7025 O   0  0  0  0  0  0  0  0  0  0  0  0
  -11.3660    5.3601   22.5738 C   0  0  0  0  0  0  0  0  0  0  0  0
  -11.1721    3.2556   20.6677 C   0  0  0  0  0  0  0  0  0  0  0  0
  -10.6937    2.9297   19.7745 C   0  0  0  0  0  0  0  0  0  0  0  0
  -11.1667    3.2413   18.3340 C   0  0  0  0  0  0  0  0  0  0  0  0
  -12.3591    3.9369   18.3040 C   0  0  0  0  0  0  0  0  0  0  0  0
  -13.0031    4.4166   19.4447 C   0  0  0  0  0  0  0  0  0  0  0  0
  -12.4511    4.1060   20.6788 C   0  0  0  0  0  0  0  0  0  0  0  0
  -12.6030    5.1238   21.7483 C   0  0  0  0  0  0  0  0  0  0  0  0
  3  7  1  0
  7  8  1  0
  8  9  1  0
  7 10  2  0
 12 11  1  6
  8 14  1  0
 13 14  1  0
  4 15  1  0
 14 15  1  1
  2 16  1  0
 13 17  1  0
 12 18  1  0
 17 24  1  0
 23 24  1  0
  9 11  1  0
 12 13  1  0
 18 19  2  0
 19 20  1  0
 20 21  2  0
 21 22  1  0
 22 23  2  0
 23 18  1  0
  1  2  2  0
  2  5  1  0
  5  6  2  0
  6  4  1  0
  4  3  2  0
  3  1  1  0
M  END
$$$$
