No_8062-complexes_sdf/6BKW-FPZ/2024-09-17-14-21-01/
     RDKit          3D

 40 45  0  0  0  0  0  0  0  0999 V2000
   -7.9040    3.9820   27.1177 C   0  0  0  0  0  0  0  0  0  0  0  0
   -8.2057    2.8231   26.8733 C   0  0  0  0  0  0  0  0  0  0  0  0
   -7.4766    1.7477   27.4593 C   0  0  0  0  0  0  0  0  0  0  0  0
   -8.7468    5.1251   26.6967 C   0  0  0  0  0  0  0  0  0  0  0  0
   -9.7234    4.8589   25.8202 C   0  0  0  0  0  0  0  0  0  0  0  0
   -9.9711    3.5858   25.4266 C   0  0  0  0  0  0  0  0  0  0  0  0
   -9.2266    2.4957   25.9600 C   0  0  0  0  0  0  0  0  0  0  0  0
   -7.8305    0.3697   27.3235 C   0  0  0  0  0  0  0  0  0  0  0  0
   -8.9837    0.1833   26.4540 C   0  0  0  0  0  0  0  0  0  0  0  0
   -9.6460    1.1855   25.7538 C   0  0  0  0  0  0  0  0  0  0  0  0
   -8.3852    6.5353   27.0806 C   0  0  0  0  0  0  0  0  0  0  0  0
   -7.4054    6.8400   26.9376 F   0  0  0  0  0  0  0  0  0  0  0  0
   -8.8834    6.6224   28.4758 F   0  0  0  0  0  0  0  0  0  0  0  0
   -9.2284    7.4134   26.4203 F   0  0  0  0  0  0  0  0  0  0  0  0
   -7.1478   -0.6544   27.9953 C   0  0  0  0  0  0  0  0  0  0  0  0
   -5.8284   -0.4916   28.3905 C   0  0  0  0  0  0  0  0  0  0  0  0
   -4.9438   -1.0006   28.1121 C   0  0  0  0  0  0  0  0  0  0  0  0
   -3.5383   -0.6009   28.5543 C   0  0  0  0  0  0  0  0  0  0  0  0
   -2.3502   -1.2597   28.1883 C   0  0  0  0  0  0  0  0  0  0  0  0
   -2.4714   -2.2475   27.2664 C   0  0  0  0  0  0  0  0  0  0  0  0
   -3.7172   -2.6185   26.7875 C   0  0  0  0  0  0  0  0  0  0  0  0
   -4.8451   -2.0268   27.1315 C   0  0  0  0  0  0  0  0  0  0  0  0
   -3.5044    0.5091   29.5849 C   0  0  0  0  0  0  0  0  0  0  0  0
   -5.6035    0.6942   29.4044 C   0  0  0  0  0  0  0  0  0  0  0  0
   -4.4809    0.9445   29.9882 C   0  0  0  0  0  0  0  0  0  0  0  0
  -11.0378    3.3751   24.4503 C   0  0  0  0  0  0  0  0  0  0  0  0
  -10.7197    3.0988   23.1907 C   0  0  0  0  0  0  0  0  0  0  0  0
  -11.5417    2.9738   22.1505 C   0  0  0  0  0  0  0  0  0  0  0  0
  -12.1971    2.7050   24.8900 C   0  0  0  0  0  0  0  0  0  0  0  0
  -13.2504    2.6287   23.9451 C   0  0  0  0  0  0  0  0  0  0  0  0
  -14.5667    2.2688   24.3622 C   0  0  0  0  0  0  0  0  0  0  0  0
  -12.9115    2.7356   22.5773 C   0  0  0  0  0  0  0  0  0  0  0  0
  -15.4845    2.3080   23.8037 N   0  0  0  0  0  0  0  0  0  0  0  0
  -14.5483    1.3714   25.2937 F   0  0  0  0  0  0  0  0  0  0  0  0
   -9.5641   -1.1314   26.3816 C   0  0  0  0  0  0  0  0  0  0  0  0
  -10.2663   -1.6696   27.3519 C   0  0  0  0  0  0  0  0  0  0  0  0
  -10.6872   -2.9515   27.4522 C   0  0  0  0  0  0  0  0  0  0  0  0
   -9.3137   -1.9196   25.2774 C   0  0  0  0  0  0  0  0  0  0  0  0
   -9.7639   -3.2368   25.2224 C   0  0  0  0  0  0  0  0  0  0  0  0
  -10.4888   -3.7268   26.3102 C   0  0  0  0  0  0  0  0  0  0  0  0
  4 11  1  0
 11 12  1  0
 11 13  1  0
 11 14  1  0
  8 15  1  0
 15 16  1  0
  6 26  1  0
 30 31  1  0
 31 33  2  0
 31 34  1  0
  9 35  1  0
 26 27  2  0
 27 28  1  0
 28 32  2  0
 32 30  1  0
 30 29  2  0
 29 26  1  0
  1  2  2  0
  7  6  2  0
  6  5  1  0
  5  4  2  0
  4  1  1  0
 16 17  1  0
 18 23  1  0
 23 25  2  0
 25 24  1  0
 24 16  2  0
  2  3  1  0
  3  8  2  0
  8  9  1  0
  9 10  2  0
 10  7  1  0
  7  2  1  0
 17 18  1  0
 18 19  2  0
 19 20  1  0
 20 21  2  0
 21 22  1  0
 22 17  2  0
 35 36  2  0
 36 37  1  0
 37 40  2  0
 40 39  1  0
 39 38  2  0
 38 35  1  0
M  END
$$$$
