No_8819-complexes_sdf/6BKW-FPZ/2024-09-17-14-21-01/
     RDKit          3D

 34 39  0  0  0  0  0  0  0  0999 V2000
   -7.9040    3.9820   27.1177 C   0  0  0  0  0  0  0  0  0  0  0  0
   -7.8663    4.8694   27.9238 C   0  0  0  0  0  0  0  0  0  0  0  0
   -7.4547    2.7080   27.4594 C   0  0  0  0  0  0  0  0  0  0  0  0
   -8.0927    6.2909   27.5184 C   0  0  0  0  0  0  0  0  0  0  0  0
   -8.9150    6.5640   26.4331 C   0  0  0  0  0  0  0  0  0  0  0  0
   -7.6563    1.4669   26.7412 C   0  0  0  0  0  0  0  0  0  0  0  0
   -8.6545    4.2283   25.9171 C   0  0  0  0  0  0  0  0  0  0  0  0
   -9.1529    5.4633   25.5735 C   0  0  0  0  0  0  0  0  0  0  0  0
   -7.0798    0.3183   27.0998 C   0  0  0  0  0  0  0  0  0  0  0  0
   -5.9509    0.3445   27.9399 C   0  0  0  0  0  0  0  0  0  0  0  0
   -5.4666    1.6237   28.4092 C   0  0  0  0  0  0  0  0  0  0  0  0
   -6.0699    2.7366   28.0868 C   0  0  0  0  0  0  0  0  0  0  0  0
   -5.3535   -0.9626   28.1828 C   0  0  0  0  0  0  0  0  0  0  0  0
   -5.9244   -1.9705   28.2593 C   0  0  0  0  0  0  0  0  0  0  0  0
   -5.3808   -3.1915   28.6817 C   0  0  0  0  0  0  0  0  0  0  0  0
   -4.3667   -0.7823   29.3088 C   0  0  0  0  0  0  0  0  0  0  0  0
   -3.6921   -1.9653   29.7868 C   0  0  0  0  0  0  0  0  0  0  0  0
   -4.2746   -3.1527   29.5121 C   0  0  0  0  0  0  0  0  0  0  0  0
   -3.5997    0.5057   29.5987 C   0  0  0  0  0  0  0  0  0  0  0  0
   -4.2668    1.5992   29.1987 C   0  0  0  0  0  0  0  0  0  0  0  0
   -7.1691   -2.2445   27.3642 C   0  0  0  0  0  0  0  0  0  0  0  0
   -7.7579   -0.9251   26.8179 C   0  0  0  0  0  0  0  0  0  0  0  0
   -8.9491   -0.9940   26.0459 C   0  0  1  0  0  0  0  0  0  0  0  0
   -8.9490   -1.1327   24.7629 C   0  0  0  0  0  0  0  0  0  0  0  0
   -8.2273   -1.8460   24.0870 C   0  0  0  0  0  0  0  0  0  0  0  0
   -8.2165   -1.9536   22.6011 C   0  0  0  0  0  0  0  0  0  0  0  0
   -9.0854   -1.0838   21.8791 C   0  0  0  0  0  0  0  0  0  0  0  0
   -9.8439   -0.1789   22.5782 C   0  0  0  0  0  0  0  0  0  0  0  0
   -9.8047   -0.1261   23.9525 C   0  0  0  0  0  0  0  0  0  0  0  0
  -10.1903   -1.0716   26.8054 C   0  0  0  0  0  0  0  0  0  0  0  0
  -10.9062    0.0311   26.9749 C   0  0  0  0  0  0  0  0  0  0  0  0
  -12.1206    0.0521   27.7935 C   0  0  0  0  0  0  0  0  0  0  0  0
  -12.4844   -1.1704   28.3582 C   0  0  0  0  0  0  0  0  0  0  0  0
  -11.7006   -2.2960   28.1396 C   0  0  0  0  0  0  0  0  0  0  0  0
  1  3  1  0
 16 19  1  0
 11 20  1  0
 19 20  1  0
 23 22  1  1
 23 24  1  0
 23 30  1  0
 30 31  2  3
 31 32  1  0
 32 33  2  3
 33 34  1  0
 24 25  2  0
 25 26  1  0
 26 27  2  0
 27 28  1  0
 28 29  2  0
 29 24  1  0
 10 13  2  0
 14 21  2  0
 21 22  1  0
 22  9  2  0
  3  6  2  0
  6  9  1  0
  9 10  1  0
 10 11  1  0
 11 12  2  0
 12  3  1  0
 13 14  1  0
 14 15  1  0
 15 18  2  0
 18 17  1  0
 17 16  2  0
 16 13  1  0
  1  2  2  0
  2  4  1  0
  4  5  2  0
  5  8  1  0
  8  7  2  0
  7  1  1  0
M  END
$$$$
