No_8327-complexes_sdf/6BKW-FPZ/2024-09-17-14-21-01/
     RDKit          3D

  9  8  0  0  0  0  0  0  0  0999 V2000
   -7.2496    3.8871   27.4508 C   0  0  0  0  0  0  0  0  0  0  0  0
   -8.5096    4.0291   27.2770 C   0  0  2  0  0  0  0  0  0  0  0  0
   -9.2677    5.1714   27.5773 C   0  0  0  0  0  0  0  0  0  0  0  0
   -9.2765    2.8248   26.8371 C   0  0  0  0  0  0  0  0  0  0  0  0
  -10.4623    3.0171   26.3236 C   0  0  0  0  0  0  0  0  0  0  0  0
   -8.5069    6.3624   27.9334 C   0  0  0  0  0  0  0  0  0  0  0  0
  -11.1463    1.9453   25.7595 C   0  0  0  0  0  0  0  0  0  0  0  0
  -10.5941    0.7186   25.8021 C   0  0  0  0  0  0  0  0  0  0  0  0
   -9.3523    0.4725   26.4656 C   0  0  0  0  0  0  0  0  0  0  0  0
  2  1  1  1
  2  3  1  0
  2  4  1  0
  4  5  2  3
  3  6  1  0
  5  7  1  0
  7  8  2  3
  8  9  1  0
M  END
$$$$
