No_8285-complexes_sdf/6BKW-FPZ/2024-09-17-14-21-01/
     RDKit          3D

 40 44  0  0  0  0  0  0  0  0999 V2000
   -7.9040    3.9820   27.1177 C   0  0  0  0  0  0  0  0  0  0  0  0
   -9.0711    4.3164   27.0630 C   0  0  0  0  0  0  0  0  0  0  0  0
   -9.5182    5.5541   27.5777 C   0  0  0  0  0  0  0  0  0  0  0  0
   -7.4468    2.6843   26.6499 C   0  0  0  0  0  0  0  0  0  0  0  0
   -8.3856    1.7878   26.2216 C   0  0  0  0  0  0  0  0  0  0  0  0
   -7.9963    0.4896   25.8743 C   0  0  0  0  0  0  0  0  0  0  0  0
  -10.0508    3.4271   26.5305 C   0  0  0  0  0  0  0  0  0  0  0  0
   -9.6621    2.2116   26.1270 C   0  0  0  0  0  0  0  0  0  0  0  0
   -7.5587   -0.3484   26.6385 O   0  0  0  0  0  0  0  0  0  0  0  0
   -7.8427    0.2206   24.5954 O   0  0  0  0  0  0  0  0  0  0  0  0
   -8.5523    6.6629   27.4995 C   0  0  0  0  0  0  0  0  0  0  0  0
   -7.3122    6.3419   27.0082 C   0  0  0  0  0  0  0  0  0  0  0  0
   -6.8282    5.0349   27.0901 C   0  0  0  0  0  0  0  0  0  0  0  0
  -11.4711    3.8283   26.3736 C   0  0  0  0  0  0  0  0  0  0  0  0
  -12.0734    3.9642   25.2064 C   0  0  0  0  0  0  0  0  0  0  0  0
  -12.2122    4.0859   27.5980 C   0  0  0  0  0  0  0  0  0  0  0  0
  -13.5607    4.3768   27.6321 C   0  0  0  0  0  0  0  0  0  0  0  0
  -13.4449    4.2942   25.1720 C   0  0  0  0  0  0  0  0  0  0  0  0
  -14.1483    4.5959   26.3887 C   0  0  0  0  0  0  0  0  0  0  0  0
  -14.3112    4.7201   28.8252 C   0  0  0  0  0  0  0  0  0  0  0  0
  -15.2149    5.5645   28.9338 O   0  0  0  0  0  0  0  0  0  0  0  0
  -13.7802    4.2373   29.9523 O   0  0  0  0  0  0  0  0  0  0  0  0
  -14.5924    3.4116   30.7771 C   0  0  0  0  0  0  0  0  0  0  0  0
  -13.8892    3.1880   31.9368 C   0  0  0  0  0  0  0  0  0  0  0  0
  -13.3287    4.2652   32.6179 C   0  0  0  0  0  0  0  0  0  0  0  0
  -12.8581    4.1985   34.0099 C   0  0  0  0  0  0  0  0  0  0  0  0
  -12.7453    2.8908   34.5753 C   0  0  0  0  0  0  0  0  0  0  0  0
  -13.3372    1.8037   33.8993 C   0  0  0  0  0  0  0  0  0  0  0  0
  -13.9058    1.9816   32.6708 C   0  0  0  0  0  0  0  0  0  0  0  0
  -12.2462    5.3282   34.6637 C   0  0  0  0  0  0  0  0  0  0  0  0
  -11.4402    5.0444   35.8000 C   0  0  0  0  0  0  0  0  0  0  0  0
  -11.5884    3.8687   36.4985 C   0  0  0  0  0  0  0  0  0  0  0  0
  -12.1385    2.7619   35.8520 C   0  0  0  0  0  0  0  0  0  0  0  0
  -10.9836    3.7565   37.6830 O   0  0  0  0  0  0  0  0  0  0  0  0
  -10.3399    4.8277   38.2218 C   0  0  0  0  0  0  0  0  0  0  0  0
   -9.2710    4.3940   39.2008 C   0  0  0  0  0  0  0  0  0  0  0  0
   -9.5637    4.6317   40.5263 C   0  0  0  0  0  0  0  0  0  0  0  0
   -8.6608    4.2574   41.3382 C   0  0  0  0  0  0  0  0  0  0  0  0
   -7.3076    3.7703   41.0304 C   0  0  0  0  0  0  0  0  0  0  0  0
   -7.1203    3.6020   39.6267 C   0  0  0  0  0  0  0  0  0  0  0  0
  5  6  1  0
  6  9  2  0
  6 10  1  0
  7 14  1  0
 17 20  1  0
 20 21  2  0
 20 22  1  0
 22 23  1  0
 23 24  1  0
 32 34  1  0
 34 35  1  0
 35 36  1  0
 36 37  1  0
 37 38  2  3
 38 39  1  0
 39 40  2  0
  2  3  2  0
  3 11  1  0
 11 12  2  0
 12 13  1  0
 13  1  2  0
 24 25  2  0
 25 26  1  0
 27 28  1  0
 28 29  2  0
 29 24  1  0
  1  2  1  0
  2  7  1  0
  7  8  2  0
  8  5  1  0
  5  4  2  0
  4  1  1  0
 14 15  2  0
 15 18  1  0
 18 19  2  0
 19 17  1  0
 17 16  2  0
 16 14  1  0
 26 27  2  0
 27 33  1  0
 33 32  2  0
 32 31  1  0
 31 30  2  0
 30 26  1  0
M  END
$$$$
