No_8077-complexes_sdf/6BKW-FPZ/2024-09-17-14-21-01/
     RDKit          3D

  9 10  0  0  0  0  0  0  0  0999 V2000
   -7.9040    3.9820   27.1177 C   0  0  0  0  0  0  0  0  0  0  0  0
   -9.0711    4.3164   27.0630 C   0  0  0  0  0  0  0  0  0  0  0  0
   -9.9692    3.7224   26.1073 C   0  0  0  0  0  0  0  0  0  0  0  0
   -7.4776    2.6994   26.6283 C   0  0  0  0  0  0  0  0  0  0  0  0
   -8.4406    1.9440   25.9776 C   0  0  0  0  0  0  0  0  0  0  0  0
   -9.6379    2.5001   25.6881 C   0  0  0  0  0  0  0  0  0  0  0  0
   -7.1356    4.7803   27.9952 N   0  0  0  0  0  0  0  0  0  0  0  0
   -7.9418    5.8459   28.2186 N   0  0  0  0  0  0  0  0  0  0  0  0
   -9.1228    5.6415   27.6472 C   0  0  0  0  0  0  0  0  0  0  0  0
  1  7  1  0
  7  8  1  0
  2  9  1  0
  8  9  2  0
  1  2  1  0
  2  3  2  0
  3  6  1  0
  6  5  2  0
  5  4  1  0
  4  1  2  0
M  END
$$$$
