No_8283-complexes_sdf/6BKW-FPZ/2024-09-17-14-21-01/
     RDKit          3D

 40 44  0  0  0  0  0  0  0  0999 V2000
   -7.2496    3.8871   27.4508 C   0  0  0  0  0  0  0  0  0  0  0  0
   -7.6161    2.7143   27.1523 C   0  0  0  0  0  0  0  0  0  0  0  0
   -8.8302    2.4659   26.5056 C   0  0  0  0  0  0  0  0  0  0  0  0
   -8.1584    5.0090   27.3234 C   0  0  0  0  0  0  0  0  0  0  0  0
   -9.3788    4.7965   26.7695 C   0  0  0  0  0  0  0  0  0  0  0  0
   -9.7028    3.5649   26.3276 C   0  0  0  0  0  0  0  0  0  0  0  0
   -6.7190    1.5585   27.3667 C   0  0  0  0  0  0  0  0  0  0  0  0
   -5.4774    1.7392   28.0696 C   0  0  0  0  0  0  0  0  0  0  0  0
   -4.6023    0.6521   28.2584 C   0  0  0  0  0  0  0  0  0  0  0  0
   -3.4059    0.8135   28.9244 C   0  0  0  0  0  0  0  0  0  0  0  0
   -5.0251   -0.6550   27.8418 C   0  0  0  0  0  0  0  0  0  0  0  0
   -6.2751   -0.8320   27.2293 C   0  0  0  0  0  0  0  0  0  0  0  0
   -7.1006    0.2832   26.9986 C   0  0  0  0  0  0  0  0  0  0  0  0
   -7.7026    6.3730   27.7698 C   0  0  0  0  0  0  0  0  0  0  0  0
   -2.4656   -0.1707   28.8344 N   0  0  0  0  0  0  0  0  0  0  0  0
   -2.1362   -1.0635   29.8434 C   0  0  2  0  0  0  0  0  0  0  0  0
   -1.5204   -0.0601   27.7908 C   0  0  1  0  0  0  0  0  0  0  0  0
   -1.2765   -2.0332   29.6620 C   0  0  0  0  0  0  0  0  0  0  0  0
   -0.2814   -1.9353   28.6446 C   0  0  0  0  0  0  0  0  0  0  0  0
   -0.5796   -1.0706   27.5747 C   0  0  0  0  0  0  0  0  0  0  0  0
   -1.7803    0.8302   26.8123 N   0  0  0  0  0  0  0  0  0  0  0  0
   -3.0635   -1.0635   31.0149 C   0  0  0  0  0  0  0  0  0  0  0  0
   -3.7389   -0.3304   31.4778 C   0  0  0  0  0  0  0  0  0  0  0  0
   -4.5517   -0.4517   32.7127 C   0  0  0  0  0  0  0  0  0  0  0  0
   -4.6241   -1.7204   33.2540 C   0  0  0  0  0  0  0  0  0  0  0  0
   -3.8154   -2.6943   32.7473 C   0  0  0  0  0  0  0  0  0  0  0  0
   -2.9719   -2.4805   31.6853 C   0  0  0  0  0  0  0  0  0  0  0  0
   -8.4340    7.4080   27.2537 N   0  0  0  0  0  0  0  0  0  0  0  0
  -10.9938    3.3799   25.6257 C   0  0  2  0  0  0  0  0  0  0  0  0
  -11.0361    3.6495   24.2706 C   0  0  0  0  0  0  0  0  0  0  0  0
   -9.9115    3.9804   23.5086 C   0  0  0  0  0  0  0  0  0  0  0  0
  -10.0717    4.2920   22.1249 C   0  0  0  0  0  0  0  0  0  0  0  0
  -12.2657    3.6314   23.5425 C   0  0  0  0  0  0  0  0  0  0  0  0
  -12.4005    3.9259   22.2186 C   0  0  0  0  0  0  0  0  0  0  0  0
  -11.2287    4.2649   21.5027 C   0  0  0  0  0  0  0  0  0  0  0  0
  -12.0970    3.0118   26.4066 C   0  0  0  0  0  0  0  0  0  0  0  0
  -12.0348    2.3074   27.5676 C   0  0  0  0  0  0  0  0  0  0  0  0
  -11.2984    2.2304   28.4085 C   0  0  0  0  0  0  0  0  0  0  0  0
  -11.4809    1.4388   29.7103 C   0  0  0  0  0  0  0  0  0  0  0  0
  -12.7688    0.8284   29.6886 C   0  0  0  0  0  0  0  0  0  0  0  0
  2  7  1  0
  9 10  1  0
  4 14  1  0
 10 15  1  0
 15 16  1  0
 15 17  1  0
 18 19  1  0
 17 20  1  0
 17 21  1  6
 16 22  1  6
 14 28  1  0
  6 29  1  0
 29 36  1  1
 36 37  1  0
 37 38  2  3
 38 39  1  0
 39 40  2  0
 29 30  1  0
 16 18  1  0
 19 20  1  0
  1  2  2  0
  2  3  1  0
  3  6  2  0
  6  5  1  0
  5  4  2  0
  4  1  1  0
 22 23  2  0
 23 24  1  0
 24 25  2  0
 25 26  1  0
 26 27  2  0
 27 22  1  0
  7  8  2  0
  8  9  1  0
  9 11  2  0
 11 12  1  0
 12 13  2  0
 13  7  1  0
 30 31  2  0
 31 32  1  0
 32 35  2  0
 35 34  1  0
 34 33  2  0
 33 30  1  0
M  END
$$$$
