No_8161-complexes_sdf/6BKW-FPZ/2024-09-17-14-21-01/
     RDKit          3D

 25 27  0  0  0  0  0  0  0  0999 V2000
   -7.2496    3.8871   27.4508 C   0  0  0  0  0  0  0  0  0  0  0  0
   -7.9379    4.9063   27.8518 C   0  0  0  0  0  0  0  0  0  0  0  0
   -7.5112    6.1898   27.6280 C   0  0  0  0  0  0  0  0  0  0  0  0
   -7.8078    2.6331   27.2522 C   0  0  2  0  0  0  0  0  0  0  0  0
   -9.1846    2.4724   27.5426 C   0  0  0  0  0  0  0  0  0  0  0  0
   -9.9168    3.5155   28.0405 C   0  0  0  0  0  0  0  0  0  0  0  0
  -11.2899    3.3804   28.4254 C   0  0  0  0  0  0  0  0  0  0  0  0
   -9.3325    4.7781   28.2230 C   0  0  0  0  0  0  0  0  0  0  0  0
  -12.2372    3.0819   27.5806 C   0  0  0  0  0  0  0  0  0  0  0  0
  -12.1828    3.0121   26.3922 C   0  0  0  0  0  0  0  0  0  0  0  0
  -10.9451    3.4488   25.7378 C   0  0  0  0  0  0  0  0  0  0  0  0
  -10.9854    3.5134   24.1397 C   0  0  0  0  0  0  0  0  0  0  0  0
  -11.6260    3.0026   23.4101 C   0  0  0  0  0  0  0  0  0  0  0  0
  -12.8890    2.4841   24.0557 C   0  0  0  0  0  0  0  0  0  0  0  0
  -13.0995    2.5655   25.3516 C   0  0  0  0  0  0  0  0  0  0  0  0
   -7.0456    1.4388   26.8664 C   0  0  0  0  0  0  0  0  0  0  0  0
   -5.8258    1.4267   27.3125 F   0  0  0  0  0  0  0  0  0  0  0  0
   -7.0232    1.2223   25.5734 F   0  0  0  0  0  0  0  0  0  0  0  0
   -7.5866    0.2840   27.4304 F   0  0  0  0  0  0  0  0  0  0  0  0
  -13.5955    2.6634   28.2171 C   0  0  0  0  0  0  0  0  0  0  0  0
  -13.7633    1.3460   28.6069 C   0  0  0  0  0  0  0  0  0  0  0  0
  -14.9009    0.8896   29.0343 C   0  0  0  0  0  0  0  0  0  0  0  0
  -14.5547    3.6254   28.4853 C   0  0  0  0  0  0  0  0  0  0  0  0
  -15.8075    3.2004   28.9739 C   0  0  0  0  0  0  0  0  0  0  0  0
  -15.9440    1.8712   29.3438 C   0  0  0  0  0  0  0  0  0  0  0  0
  1  2  1  0
  2  3  2  0
  1  4  1  0
  4  5  1  0
  5  6  1  0
  6  7  1  0
  2  8  1  0
  6  8  1  0
  7  9  1  0
  4 16  1  1
 16 17  1  0
 16 18  1  0
 16 19  1  0
  9 20  1  0
  9 10  1  0
 20 21  2  0
 21 22  1  0
 22 25  2  0
 25 24  1  0
 24 23  2  0
 23 20  1  0
 10 11  2  0
 11 12  1  0
 12 13  2  0
 13 14  1  0
 14 15  2  0
 15 10  1  0
M  END
$$$$
