No_8090-complexes_sdf/6BKW-FPZ/2024-09-17-14-21-01/
     RDKit          3D

 25 29  0  0  0  0  0  0  0  0999 V2000
   -7.2496    3.8871   27.4508 C   0  0  0  0  0  0  0  0  0  0  0  0
   -7.9379    4.9063   27.8518 C   0  0  0  0  0  0  0  0  0  0  0  0
   -9.3376    4.8647   27.7795 C   0  0  0  0  0  0  0  0  0  0  0  0
   -7.8544    2.6294   27.0414 C   0  0  0  0  0  0  0  0  0  0  0  0
   -7.1614    1.5016   26.7557 C   0  0  0  0  0  0  0  0  0  0  0  0
   -9.2736    2.6261   27.0257 C   0  0  0  0  0  0  0  0  0  0  0  0
  -10.0045    3.7370   27.4296 C   0  0  0  0  0  0  0  0  0  0  0  0
   -7.6725    0.4370   26.0283 C   0  0  0  0  0  0  0  0  0  0  0  0
   -9.7217    1.3670   26.5447 C   0  0  0  0  0  0  0  0  0  0  0  0
   -9.0582    0.3714   26.0307 C   0  0  0  0  0  0  0  0  0  0  0  0
  -11.4622    3.6920   27.4404 C   0  0  0  0  0  0  0  0  0  0  0  0
  -12.0451    3.7606   28.8435 C   0  0  0  0  0  0  0  0  0  0  0  0
  -12.2488    3.5640   26.3917 C   0  0  0  0  0  0  0  0  0  0  0  0
   -7.3061    6.0072   28.2477 F   0  0  0  0  0  0  0  0  0  0  0  0
  -13.4627    3.8728   28.9843 C   0  0  0  0  0  0  0  0  0  0  0  0
  -13.6428    3.7791   26.4770 C   0  0  0  0  0  0  0  0  0  0  0  0
  -14.2319    3.9110   27.8005 C   0  0  0  0  0  0  0  0  0  0  0  0
   -9.6961   -0.8191   25.5412 C   0  0  0  0  0  0  0  0  0  0  0  0
  -10.8626   -0.7937   25.3551 C   0  0  0  0  0  0  0  0  0  0  0  0
  -11.5924   -1.9008   24.8420 C   0  0  0  0  0  0  0  0  0  0  0  0
  -13.0317   -1.8606   24.6991 C   0  0  0  0  0  0  0  0  0  0  0  0
  -13.6915   -0.6784   25.0448 C   0  0  0  0  0  0  0  0  0  0  0  0
  -13.0378    0.4127   25.5442 C   0  0  0  0  0  0  0  0  0  0  0  0
  -11.6266    0.3620   25.7426 C   0  0  0  0  0  0  0  0  0  0  0  0
  -11.0288    1.3690   26.3182 N   0  0  0  0  0  0  0  0  0  0  0  0
  7 11  1  0
  2 14  1  0
 11 12  2  0
 12 15  1  0
 15 17  2  0
 17 16  1  0
 16 13  2  0
 13 11  1  0
 19 20  1  0
 20 21  2  0
 21 22  1  0
 22 23  2  0
 23 24  1  0
  4  5  2  0
  5  8  1  0
  8 10  2  0
  9  6  2  0
  9 10  1  0
 10 18  1  0
 18 19  2  0
 19 24  1  0
 24 25  2  0
 25  9  1  0
  1  2  2  0
  2  3  1  0
  3  7  2  0
  7  6  1  0
  6  4  1  0
  4  1  1  0
M  END
$$$$
