No_8543-complexes_sdf/6BKW-FPZ/2024-09-17-14-21-01/
     RDKit          3D

 40 44  0  0  0  0  0  0  0  0999 V2000
   -7.7129    4.2099   27.0854 C   0  0  0  0  0  0  0  0  0  0  0  0
   -7.7814    5.1722   27.8972 C   0  0  0  0  0  0  0  0  0  0  0  0
   -8.8998    3.8713   26.3707 C   0  0  0  0  0  0  0  0  0  0  0  0
   -8.9563    2.6796   25.5490 C   0  0  0  0  0  0  0  0  0  0  0  0
   -8.8131    6.1334   27.9344 C   0  0  0  0  0  0  0  0  0  0  0  0
   -9.9804    5.8121   27.1929 C   0  0  0  0  0  0  0  0  0  0  0  0
   -9.9861    4.6836   26.4532 C   0  0  0  0  0  0  0  0  0  0  0  0
   -9.8352    2.5435   24.5126 C   0  0  0  0  0  0  0  0  0  0  0  0
   -9.8680    1.4155   23.7412 C   0  0  0  0  0  0  0  0  0  0  0  0
   -8.8988    0.3731   23.9922 C   0  0  0  0  0  0  0  0  0  0  0  0
   -8.0409    0.4782   25.0443 C   0  0  0  0  0  0  0  0  0  0  0  0
   -8.0131    1.6137   25.8514 C   0  0  0  0  0  0  0  0  0  0  0  0
  -10.7637    1.2925   22.5981 C   0  0  0  0  0  0  0  0  0  0  0  0
  -10.8520    2.1709   21.7832 N   0  0  0  0  0  0  0  0  0  0  0  0
  -11.5657    2.2208   20.6670 C   0  0  0  0  0  0  0  0  0  0  0  0
  -11.3649    0.1868   22.3999 O   0  0  0  0  0  0  0  0  0  0  0  0
   -6.3544    5.6846   28.8231 Cl  0  0  0  0  0  0  0  0  0  0  0  0
   -6.9993   -0.4807   25.4723 C   0  0  0  0  0  0  0  0  0  0  0  0
   -6.3975   -0.4830   26.6225 C   0  0  0  0  0  0  0  0  0  0  0  0
   -5.4681   -1.4408   27.1193 C   0  0  0  0  0  0  0  0  0  0  0  0
   -4.8059   -1.2944   28.3484 C   0  0  0  0  0  0  0  0  0  0  0  0
   -5.1220   -0.1284   29.1827 C   0  0  0  0  0  0  0  0  0  0  0  0
   -5.8651    0.8747   28.5488 C   0  0  0  0  0  0  0  0  0  0  0  0
   -6.4463    0.7431   27.4709 C   0  0  0  0  0  0  0  0  0  0  0  0
   -7.4087    1.7431   26.9630 C   0  0  0  0  0  0  0  0  0  0  0  0
   -4.3349    0.0992   30.4223 C   0  0  0  0  0  0  0  0  0  0  0  0
   -3.1120    0.0035   30.5768 C   0  0  0  0  0  0  0  0  0  0  0  0
   -2.2672   -0.7786   29.6746 C   0  0  0  0  0  0  0  0  0  0  0  0
   -2.4647   -1.0768   28.3853 C   0  0  0  0  0  0  0  0  0  0  0  0
   -3.7029   -1.5146   28.0057 C   0  0  2  0  0  0  0  0  0  0  0  0
   -3.5384   -2.3960   26.8405 N   0  0  0  0  0  0  0  0  0  0  0  0
   -6.3423   -2.6984   27.1757 C   0  0  0  0  0  0  0  0  0  0  0  0
   -3.0711   -1.9175   25.7421 C   0  0  0  0  0  0  0  0  0  0  0  0
   -3.4079   -3.7446   27.1457 C   0  0  0  0  0  0  0  0  0  0  0  0
   -7.0035   -3.0232   28.3463 C   0  0  0  0  0  0  0  0  0  0  0  0
   -7.7827   -4.1630   28.4117 C   0  0  0  0  0  0  0  0  0  0  0  0
   -8.5233   -4.3329   29.5293 C   0  0  0  0  0  0  0  0  0  0  0  0
   -8.4403   -3.4586   30.6588 C   0  0  0  0  0  0  0  0  0  0  0  0
   -9.2265   -3.6597   31.8243 C   0  0  0  0  0  0  0  0  0  0  0  0
   -8.8528   -2.8924   32.9569 C   0  0  0  0  0  0  0  0  0  0  0  0
  3  4  1  0
  9 13  1  0
 13 14  1  0
 14 15  2  0
 13 16  2  0
  2 17  1  0
 22 26  1  0
 26 27  1  0
 27 28  2  0
 28 29  1  0
 21 30  1  0
 29 30  1  0
 30 31  1  6
 20 32  1  0
 31 33  1  0
 31 34  1  0
 32 35  1  0
 35 36  2  3
 36 37  1  0
 37 38  2  3
 38 39  1  0
 39 40  2  0
  4  8  2  0
  8  9  1  0
  9 10  2  0
 10 11  1  0
 12  4  1  0
 11 12  2  0
 12 25  1  0
 25 24  2  0
 19 18  2  0
 18 11  1  0
  1  2  2  0
  2  5  1  0
  5  6  2  0
  6  7  1  0
  7  3  2  0
  3  1  1  0
 19 20  1  0
 20 21  2  0
 21 22  1  0
 22 23  2  0
 23 24  1  0
 24 19  1  0
M  END
$$$$
