No_8926-complexes_sdf/6BKW-FPZ/2024-09-17-14-21-01/
     RDKit          3D

 19 20  0  0  0  0  0  0  0  0999 V2000
   -7.9040    3.9820   27.1177 C   0  0  0  0  0  0  0  0  0  0  0  0
   -8.2057    2.8231   26.8733 C   0  0  0  0  0  0  0  0  0  0  0  0
   -8.7695    5.0740   26.7916 C   0  0  0  0  0  0  0  0  0  0  0  0
   -9.9618    4.7598   26.1630 C   0  0  0  0  0  0  0  0  0  0  0  0
   -9.4200    2.4524   26.2850 C   0  0  0  0  0  0  0  0  0  0  0  0
  -10.2590    3.4815   25.9250 C   0  0  0  0  0  0  0  0  0  0  0  0
   -8.3305    6.7026   27.1366 Cl  0  0  0  0  0  0  0  0  0  0  0  0
   -6.9291    1.6161   27.4089 Cl  0  0  0  0  0  0  0  0  0  0  0  0
  -11.5319    3.1547   25.2122 C   0  0  0  0  0  0  0  0  0  0  0  0
  -11.6316    3.2000   23.9279 C   0  0  0  0  0  0  0  0  0  0  0  0
  -10.7708    2.9358   23.0739 C   0  0  0  0  0  0  0  0  0  0  0  0
  -10.8263    3.1251   21.6299 C   0  0  0  0  0  0  0  0  0  0  0  0
  -12.0068    3.5650   21.1004 C   0  0  0  0  0  0  0  0  0  0  0  0
  -12.8677    3.7894   23.2964 C   0  0  0  0  0  0  0  0  0  0  0  0
  -13.0178    3.9347   21.9453 C   0  0  0  0  0  0  0  0  0  0  0  0
  -12.6009    2.7802   26.1047 C   0  0  0  0  0  0  0  0  0  0  0  0
  -13.3497    3.7454   26.6554 C   0  0  0  0  0  0  0  0  0  0  0  0
  -14.4097    3.4696   27.6000 C   0  0  0  0  0  0  0  0  0  0  0  0
  -14.7094    2.1598   27.7573 C   0  0  0  0  0  0  0  0  0  0  0  0
  3  7  1  0
  2  8  1  0
  6  9  1  0
  9 10  1  0
  9 16  1  0
 16 17  2  3
 17 18  1  0
 18 19  2  0
 10 11  2  0
 11 12  1  0
 12 13  2  0
 13 15  1  0
 15 14  2  0
 14 10  1  0
  1  2  2  0
  2  5  1  0
  5  6  2  0
  6  4  1  0
  4  3  2  0
  3  1  1  0
M  END
$$$$
