No_8013-complexes_sdf/6BKW-FPZ/2024-09-17-14-21-01/
     RDKit          3D

 13 13  0  0  0  0  0  0  0  0999 V2000
   -7.7129    4.2099   27.0854 C   0  0  0  0  0  0  0  0  0  0  0  0
   -8.9133    4.4736   27.0998 C   0  0  0  0  0  0  0  0  0  0  0  0
   -9.7937    3.7367   26.2091 C   0  0  0  0  0  0  0  0  0  0  0  0
   -7.4126    2.9835   27.2940 C   0  0  0  0  0  0  0  0  0  0  0  0
   -8.2271    1.9809   26.6470 C   0  0  0  0  0  0  0  0  0  0  0  0
   -7.8552    0.6266   26.5545 C   0  0  0  0  0  0  0  0  0  0  0  0
   -9.4462    2.4307   26.1546 C   0  0  0  0  0  0  0  0  0  0  0  0
   -7.0248    0.0542   27.2130 O   0  0  0  0  0  0  0  0  0  0  0  0
   -8.3836   -0.1076   25.5458 N   0  0  0  0  0  0  0  0  0  0  0  0
   -8.0468   -1.3198   25.2792 C   0  0  0  0  0  0  0  0  0  0  0  0
   -9.2886    6.0701   27.0737 C   0  0  0  0  0  0  0  0  0  0  0  0
   -8.2881    6.9593   27.3810 C   0  0  0  0  0  0  0  0  0  0  0  0
   -6.9899    6.5087   27.1807 C   0  0  0  0  0  0  0  0  0  0  0  0
  5  6  1  0
  6  8  1  0
  6  9  2  3
  9 10  1  0
  2 11  1  0
 11 12  2  3
 12 13  1  0
  1  2  2  0
  2  3  1  0
  3  7  2  0
  7  5  1  0
  5  4  2  0
  4  1  1  0
M  END
$$$$
