No_8840-complexes_sdf/6BKW-FPZ/2024-09-17-14-21-01/
     RDKit          3D

 26 29  0  0  0  0  0  0  0  0999 V2000
   -7.9040    3.9820   27.1177 C   0  0  0  0  0  0  0  0  0  0  0  0
   -8.2057    2.8231   26.8733 C   0  0  0  0  0  0  0  0  0  0  0  0
   -9.2962    2.4021   26.1155 C   0  0  0  0  0  0  0  0  0  0  0  0
   -8.7358    5.0662   26.5917 C   0  0  0  0  0  0  0  0  0  0  0  0
   -9.7618    4.7023   25.7546 C   0  0  0  0  0  0  0  0  0  0  0  0
  -10.0066    3.4105   25.4922 C   0  0  0  0  0  0  0  0  0  0  0  0
   -8.3936    6.4769   26.8843 C   0  0  0  0  0  0  0  0  0  0  0  0
   -8.6493    6.7879   28.0308 F   0  0  0  0  0  0  0  0  0  0  0  0
   -7.0512    6.6926   26.7340 F   0  0  0  0  0  0  0  0  0  0  0  0
   -8.9422    7.2996   25.9424 F   0  0  0  0  0  0  0  0  0  0  0  0
   -7.3540    1.6705   27.5041 C   0  0  0  0  0  0  0  0  0  0  0  0
   -5.9572    1.8613   27.7259 C   0  0  0  0  0  0  0  0  0  0  0  0
   -5.1977    0.8124   28.2726 C   0  0  0  0  0  0  0  0  0  0  0  0
   -5.7586   -0.4359   28.4652 C   0  0  0  0  0  0  0  0  0  0  0  0
   -7.9381    0.4065   27.7060 C   0  0  0  0  0  0  0  0  0  0  0  0
   -7.1562   -0.6095   28.1792 C   0  0  0  0  0  0  0  0  0  0  0  0
   -4.9812   -1.5110   29.0442 C   0  0  0  0  0  0  0  0  0  0  0  0
   -3.8789   -1.4685   28.9438 C   0  0  0  0  0  0  0  0  0  0  0  0
   -3.0764   -0.1575   28.6999 C   0  0  0  0  0  0  0  0  0  0  0  0
   -3.7789    0.9387   28.2541 C   0  0  0  0  0  0  0  0  0  0  0  0
  -11.1236    3.1375   24.5897 C   0  0  0  0  0  0  0  0  0  0  0  0
  -12.3359    2.8772   25.0748 C   0  0  0  0  0  0  0  0  0  0  0  0
  -10.8758    3.0967   23.1895 C   0  0  0  0  0  0  0  0  0  0  0  0
  -11.8258    2.8727   22.2490 C   0  0  0  0  0  0  0  0  0  0  0  0
  -13.4152    2.6703   24.1344 C   0  0  0  0  0  0  0  0  0  0  0  0
  -13.1328    2.6820   22.7596 C   0  0  0  0  0  0  0  0  0  0  0  0
  4  7  1  0
  7  8  1  0
  7  9  1  0
  7 10  1  0
  2 11  1  0
  6 21  1  0
  1  2  2  0
  2  3  1  0
  3  6  2  0
  6  5  1  0
  5  4  2  0
  4  1  1  0
 21 22  2  0
 22 25  1  0
 25 26  2  0
 26 24  1  0
 24 23  2  0
 23 21  1  0
 14 17  2  0
 17 18  1  0
 18 19  2  0
 19 20  1  0
 20 13  2  0
 11 12  2  0
 12 13  1  0
 13 14  1  0
 14 16  1  0
 16 15  2  0
 15 11  1  0
M  END
$$$$
