No_8964-complexes_sdf/6BKW-FPZ/2024-09-17-14-21-01/
     RDKit          3D

  9  9  0  0  0  0  0  0  0  0999 V2000
   -7.7129    4.2099   27.0854 C   0  0  0  0  0  0  0  0  0  0  0  0
   -8.9133    4.4736   27.0998 C   0  0  0  0  0  0  0  0  0  0  0  0
   -9.4643    5.5426   27.7628 C   0  0  0  0  0  0  0  0  0  0  0  0
   -6.8373    4.9942   27.9785 C   0  0  0  0  0  0  0  0  0  0  0  0
   -7.5385    5.9425   28.6052 C   0  0  0  0  0  0  0  0  0  0  0  0
   -8.8005    6.3235   28.4826 C   0  0  0  0  0  0  0  0  0  0  0  0
   -9.7923    3.5791   26.1737 C   0  0  0  0  0  0  0  0  0  0  0  0
  -10.5360    2.6161   26.6268 C   0  0  0  0  0  0  0  0  0  0  0  0
  -11.2709    1.7446   25.8287 C   0  0  0  0  0  0  0  0  0  0  0  0
  2  7  1  0
  7  8  2  3
  8  9  1  0
  1  2  2  0
  2  3  1  0
  3  6  2  0
  6  5  1  0
  5  4  2  0
  4  1  1  0
M  END
$$$$
