No_8612-complexes_sdf/6BKW-FPZ/2024-09-17-14-21-01/
     RDKit          3D

 20 22  0  0  0  0  0  0  0  0999 V2000
   -7.7129    4.2099   27.0854 C   0  0  0  0  0  0  0  0  0  0  0  0
   -7.7814    5.1722   27.8972 C   0  0  0  0  0  0  0  0  0  0  0  0
   -8.8998    3.8713   26.3707 C   0  0  0  0  0  0  0  0  0  0  0  0
   -9.9938    4.6774   26.5446 C   0  0  0  0  0  0  0  0  0  0  0  0
   -8.7789    6.1536   27.9256 C   0  0  0  0  0  0  0  0  0  0  0  0
   -9.9428    5.8398   27.2296 C   0  0  0  0  0  0  0  0  0  0  0  0
   -8.7183    2.6009   25.5951 C   0  0  0  0  0  0  0  0  0  0  0  0
   -8.3834    1.4477   26.3082 C   0  0  0  0  0  0  0  0  0  0  0  0
   -9.0843    0.5654   26.5040 C   0  0  0  0  0  0  0  0  0  0  0  0
   -8.6545   -0.6395   27.3061 C   0  0  0  0  0  0  0  0  0  0  0  0
   -7.3697   -0.6396   27.8142 C   0  0  0  0  0  0  0  0  0  0  0  0
   -6.5493    0.4355   27.5926 C   0  0  0  0  0  0  0  0  0  0  0  0
   -6.9685    1.5068   26.9022 C   0  0  0  0  0  0  0  0  0  0  0  0
   -5.1940    0.4619   28.2099 C   0  0  0  0  0  0  0  0  0  0  0  0
   -4.8065   -0.3571   29.2198 C   0  0  0  0  0  0  0  0  0  0  0  0
   -3.5103   -0.1824   29.7799 C   0  0  0  0  0  0  0  0  0  0  0  0
   -3.1381   -0.9722   30.8665 C   0  0  0  0  0  0  0  0  0  0  0  0
   -4.0297   -1.7837   31.4553 C   0  0  0  0  0  0  0  0  0  0  0  0
   -5.3171   -1.8860   30.9603 C   0  0  0  0  0  0  0  0  0  0  0  0
   -5.7108   -1.1383   29.9059 C   0  0  0  0  0  0  0  0  0  0  0  0
  3  7  1  0
  7  8  1  0
 12 14  1  0
 14 15  1  0
 15 16  2  0
 16 17  1  0
 17 18  2  0
 18 19  1  0
 19 20  2  0
 20 15  1  0
  8  9  2  0
  9 10  1  0
 10 11  2  0
 11 12  1  0
 12 13  2  0
 13  8  1  0
  1  2  2  0
  2  5  1  0
  5  6  2  0
  6  4  1  0
  4  3  2  0
  3  1  1  0
M  END
$$$$
