No_821-complexes_sdf/6BKW-FPZ/2024-09-17-14-21-01/
     RDKit          3D

 13 14  0  0  0  0  0  0  0  0999 V2000
   -7.9040    3.9820   27.1177 C   0  0  0  0  0  0  0  0  0  0  0  0
   -7.8663    4.8694   27.9238 C   0  0  0  0  0  0  0  0  0  0  0  0
   -9.0806    3.1428   27.1220 C   0  0  0  0  0  0  0  0  0  0  0  0
  -10.1072    3.3606   27.8219 C   0  0  0  0  0  0  0  0  0  0  0  0
   -8.9918    5.4653   28.5483 C   0  0  0  0  0  0  0  0  0  0  0  0
  -10.1493    4.6383   28.6025 C   0  0  0  0  0  0  0  0  0  0  0  0
   -8.9761    1.8223   26.3519 C   0  0  0  0  0  0  0  0  0  0  0  0
   -8.1423    0.8407   26.6779 C   0  0  0  0  0  0  0  0  0  0  0  0
   -8.0123   -0.3172   25.9925 C   0  0  0  0  0  0  0  0  0  0  0  0
   -9.7315    1.7277   25.1938 C   0  0  0  0  0  0  0  0  0  0  0  0
   -9.6292    0.6121   24.3664 C   0  0  0  0  0  0  0  0  0  0  0  0
   -8.7508   -0.3915   24.7883 C   0  0  0  0  0  0  0  0  0  0  0  0
  -10.7739    3.1576   24.5555 Br  0  0  0  0  0  0  0  0  0  0  0  0
  3  7  1  0
 10 13  1  0
  1  2  2  0
  2  5  1  0
  5  6  2  0
  6  4  1  0
  4  3  2  0
  3  1  1  0
  7  8  2  0
  8  9  1  0
  9 12  2  0
 12 11  1  0
 11 10  2  0
 10  7  1  0
M  END
$$$$
