No_8220-complexes_sdf/6BKW-FPZ/2024-09-17-14-21-01/
     RDKit          3D

 28 31  0  0  0  0  0  0  0  0999 V2000
   -7.9040    3.9820   27.1177 C   0  0  0  0  0  0  0  0  0  0  0  0
   -8.2057    2.8231   26.8733 C   0  0  0  0  0  0  0  0  0  0  0  0
   -8.7695    5.0740   26.7916 C   0  0  0  0  0  0  0  0  0  0  0  0
   -8.4337    6.4678   27.0913 C   0  0  0  0  0  0  0  0  0  0  0  0
   -9.3742    2.4311   26.2346 C   0  0  0  0  0  0  0  0  0  0  0  0
  -10.2395    3.4267   25.8887 C   0  0  0  0  0  0  0  0  0  0  0  0
   -9.9567    4.7548   26.1374 C   0  0  0  0  0  0  0  0  0  0  0  0
   -7.8881    6.8714   28.1602 N   0  0  0  0  0  0  0  0  0  0  0  0
   -8.8350    7.3552   26.2295 O   0  0  0  0  0  0  0  0  0  0  0  0
   -7.4555    1.5344   27.2274 C   0  0  0  0  0  0  0  0  0  0  0  0
   -7.9266    0.3200   27.0944 C   0  0  0  0  0  0  0  0  0  0  0  0
   -7.1201   -0.7400   27.4867 C   0  0  0  0  0  0  0  0  0  0  0  0
   -5.8161   -0.4993   27.9589 C   0  0  0  0  0  0  0  0  0  0  0  0
   -5.3122    0.7944   28.0576 C   0  0  0  0  0  0  0  0  0  0  0  0
   -6.0664    1.7878   27.7240 C   0  0  0  0  0  0  0  0  0  0  0  0
   -3.5746    1.1039   28.7332 Br  0  0  0  0  0  0  0  0  0  0  0  0
  -11.4637    3.1796   25.0787 C   0  0  2  0  0  0  0  0  0  0  0  0
  -11.7225    3.9792   24.0846 N   0  0  0  0  0  0  0  0  0  0  0  0
  -10.7940    4.1140   23.1297 C   0  0  0  0  0  0  0  0  0  0  0  0
  -13.0851    3.8525   23.4647 C   0  0  1  0  0  0  0  0  0  0  0  0
  -11.1443    4.8740   21.9238 C   0  0  0  0  0  0  0  0  0  0  0  0
  -14.1332    3.7568   24.3803 C   0  0  1  0  0  0  0  0  0  0  0  0
  -13.2725    4.1042   22.1582 C   0  0  0  0  0  0  0  0  0  0  0  0
  -12.2628    4.5861   21.3740 C   0  0  0  0  0  0  0  0  0  0  0  0
  -13.9656    3.7209   25.7509 C   0  0  0  0  0  0  0  0  0  0  0  0
  -12.6193    3.1152   26.1541 C   0  0  0  0  0  0  0  0  0  0  0  0
  -15.4844    3.9837   23.9697 C   0  0  0  0  0  0  0  0  0  0  0  0
  -16.3729    3.2311   24.4655 C   0  0  0  0  0  0  0  0  0  0  0  0
  3  4  1  0
  4  8  1  0
  4  9  2  0
  2 10  1  0
 14 16  1  0
 17  6  1  1
 17 18  1  0
 18 19  1  0
 18 20  1  0
 20 22  1  0
 20 23  1  6
 21 24  1  0
 22 25  1  0
 17 26  1  0
 25 26  1  0
 22 27  1  1
 27 28  1  0
 19 21  1  0
 24 23  1  0
  1  2  2  0
  2  5  1  0
  5  6  2  0
  6  7  1  0
  7  3  2  0
  3  1  1  0
 10 11  2  0
 11 12  1  0
 12 13  2  0
 13 14  1  0
 14 15  2  0
 15 10  1  0
M  END
$$$$
