No_8368-complexes_sdf/6BKW-FPZ/2024-09-17-14-21-01/
     RDKit          3D

 25 27  0  0  0  0  0  0  0  0999 V2000
   -7.7129    4.2099   27.0854 C   0  0  0  0  0  0  0  0  0  0  0  0
   -8.2112    3.0637   26.9225 C   0  0  0  0  0  0  0  0  0  0  0  0
   -8.4224    5.2106   27.8516 C   0  0  0  0  0  0  0  0  0  0  0  0
   -9.5628    2.7160   27.4089 C   0  0  0  0  0  0  0  0  0  0  0  0
  -10.2428    3.7496   28.1155 C   0  0  0  0  0  0  0  0  0  0  0  0
   -9.6677    4.9738   28.3232 C   0  0  0  0  0  0  0  0  0  0  0  0
   -7.6358    6.7353   28.0263 Cl  0  0  0  0  0  0  0  0  0  0  0  0
  -10.0925    1.3897   27.2259 C   0  0  0  0  0  0  0  0  0  0  0  0
   -9.2566    0.3659   27.0572 C   0  0  0  0  0  0  0  0  0  0  0  0
   -9.7913   -0.9188   26.9859 C   0  0  0  0  0  0  0  0  0  0  0  0
  -11.1748   -1.1054   27.2295 C   0  0  0  0  0  0  0  0  0  0  0  0
  -11.4006    0.9971   27.6246 C   0  0  0  0  0  0  0  0  0  0  0  0
  -11.9227   -0.1339   27.6127 C   0  0  0  0  0  0  0  0  0  0  0  0
  -11.6495   -2.4152   27.1861 F   0  0  0  0  0  0  0  0  0  0  0  0
  -13.2039   -0.3856   27.9048 F   0  0  0  0  0  0  0  0  0  0  0  0
   -8.9744   -1.9877   26.6923 O   0  0  0  0  0  0  0  0  0  0  0  0
   -7.8365   -1.7650   26.3895 C   0  0  0  0  0  0  0  0  0  0  0  0
   -6.8572   -1.5652   27.2599 C   0  0  0  0  0  0  0  0  0  0  0  0
   -5.4580   -1.3528   26.9823 C   0  0  0  0  0  0  0  0  0  0  0  0
   -4.5035   -0.8225   27.8854 C   0  0  0  0  0  0  0  0  0  0  0  0
   -3.2374   -0.3289   27.5415 C   0  0  0  0  0  0  0  0  0  0  0  0
   -2.3734    0.3641   28.4613 C   0  0  0  0  0  0  0  0  0  0  0  0
   -2.8933    0.5157   29.7575 C   0  0  0  0  0  0  0  0  0  0  0  0
   -4.1741    0.0285   30.1538 C   0  0  0  0  0  0  0  0  0  0  0  0
   -4.9649   -0.5064   29.2486 C   0  0  0  0  0  0  0  0  0  0  0  0
  3  7  1  0
  4  8  1  0
 11 14  1  0
 13 15  1  0
 10 16  1  0
 16 17  1  0
 17 18  2  3
 18 19  1  0
 19 20  1  0
  1  2  2  0
  2  4  1  0
  4  5  2  0
  5  6  1  0
  6  3  2  0
  3  1  1  0
 20 21  2  0
 21 22  1  0
 22 23  2  0
 23 24  1  0
 24 25  2  0
 25 20  1  0
  8  9  2  0
  9 10  1  0
 10 11  2  0
 11 13  1  0
 13 12  2  0
 12  8  1  0
M  END
$$$$
