No_8093-complexes_sdf/6BKW-FPZ/2024-09-17-14-21-01/
     RDKit          3D

 10 10  0  0  0  0  0  0  0  0999 V2000
   -7.9040    3.9820   27.1177 C   0  0  0  0  0  0  0  0  0  0  0  0
   -9.0711    4.3164   27.0630 C   0  0  0  0  0  0  0  0  0  0  0  0
  -10.0395    3.8218   27.1938 C   0  0  2  0  0  0  0  0  0  0  0  0
   -6.7621    4.9008   27.4861 C   0  0  0  0  0  0  0  0  0  0  0  0
  -11.4618    4.3351   27.1642 C   0  0  0  0  0  0  0  0  0  0  0  0
   -7.1465    6.2196   27.5873 C   0  0  0  0  0  0  0  0  0  0  0  0
   -8.4547    6.7037   27.3717 C   0  0  0  0  0  0  0  0  0  0  0  0
   -9.4221    5.8155   27.1771 C   0  0  0  0  0  0  0  0  0  0  0  0
  -10.2128    2.3268   27.5772 C   0  0  0  0  0  0  0  0  0  0  0  0
   -9.2283    1.5494   27.3862 C   0  0  0  0  0  0  0  0  0  0  0  0
  2  3  1  0
  3  5  1  1
  3  9  1  0
  9 10  2  0
  1  2  2  0
  2  8  1  0
  8  7  2  0
  7  6  1  0
  6  4  2  0
  4  1  1  0
M  END
$$$$
