No_8986-complexes_sdf/6BKW-FPZ/2024-09-17-14-21-01/
     RDKit          3D

 37 41  0  0  0  0  0  0  0  0999 V2000
   -7.7129    4.2099   27.0854 C   0  0  0  0  0  0  0  0  0  0  0  0
   -8.9133    4.4736   27.0998 C   0  0  0  0  0  0  0  0  0  0  0  0
   -9.4643    5.5426   27.7628 C   0  0  0  0  0  0  0  0  0  0  0  0
   -7.2009    2.9448   26.6134 C   0  0  0  0  0  0  0  0  0  0  0  0
   -8.1365    1.9533   26.2981 C   0  0  0  0  0  0  0  0  0  0  0  0
   -9.4514    2.2934   26.2667 C   0  0  0  0  0  0  0  0  0  0  0  0
   -9.8600    3.4834   26.7068 C   0  0  0  0  0  0  0  0  0  0  0  0
   -7.6136    0.6633   25.8927 C   0  0  0  0  0  0  0  0  0  0  0  0
   -6.8401    0.0031   26.5848 O   0  0  0  0  0  0  0  0  0  0  0  0
   -8.0963    0.0531   24.9053 O   0  0  0  0  0  0  0  0  0  0  0  0
   -6.0589   -1.0174   26.3915 C   0  0  0  0  0  0  0  0  0  0  0  0
   -6.3315   -1.9358   25.7896 C   0  0  0  0  0  0  0  0  0  0  0  0
   -5.4836   -3.0720   25.4602 C   0  0  0  0  0  0  0  0  0  0  0  0
   -4.2024   -3.0545   26.0748 C   0  0  0  0  0  0  0  0  0  0  0  0
   -3.8455   -1.9266   26.8556 C   0  0  0  0  0  0  0  0  0  0  0  0
   -4.7147   -0.8932   27.0802 C   0  0  0  0  0  0  0  0  0  0  0  0
   -4.2768    0.2686   27.8877 C   0  0  0  0  0  0  0  0  0  0  0  0
   -3.2973    0.1208   28.7542 C   0  0  0  0  0  0  0  0  0  0  0  0
   -2.2291   -0.7274   28.4850 C   0  0  0  0  0  0  0  0  0  0  0  0
   -2.5434   -1.9066   27.6401 C   0  0  0  0  0  0  0  0  0  0  0  0
   -6.5281    5.1704   27.9708 Cl  0  0  0  0  0  0  0  0  0  0  0  0
   -1.4978   -2.8664   27.4681 C   0  0  2  0  0  0  0  0  0  0  0  0
   -1.1060   -3.0852   26.4482 C   0  0  0  0  0  0  0  0  0  0  0  0
    0.0088   -4.0620   26.1641 C   0  0  0  0  0  0  0  0  0  0  0  0
    0.4884   -4.3182   24.8645 C   0  0  0  0  0  0  0  0  0  0  0  0
   -0.2050   -3.7400   23.7597 C   0  0  0  0  0  0  0  0  0  0  0  0
   -1.2673   -2.9033   24.0022 C   0  0  0  0  0  0  0  0  0  0  0  0
   -1.6658   -2.5702   25.1322 C   0  0  0  0  0  0  0  0  0  0  0  0
   -1.1903   -3.5602   28.7210 C   0  0  0  0  0  0  0  0  0  0  0  0
   -1.7817   -4.7546   28.9960 C   0  0  0  0  0  0  0  0  0  0  0  0
   -2.7558   -5.2244   28.9295 C   0  0  0  0  0  0  0  0  0  0  0  0
   -3.2237   -6.5337   29.1041 C   0  0  0  0  0  0  0  0  0  0  0  0
   -2.2877   -7.4212   29.6032 C   0  0  0  0  0  0  0  0  0  0  0  0
   -1.0048   -7.0217   29.7892 C   0  0  0  0  0  0  0  0  0  0  0  0
   -0.5951   -5.6903   29.5322 C   0  0  0  0  0  0  0  0  0  0  0  0
   -0.2284   -2.8517   29.6517 C   0  0  0  0  0  0  0  0  0  0  0  0
   -0.7204   -2.5998   30.9413 C   0  0  0  0  0  0  0  0  0  0  0  0
  5  8  1  0
  8  9  1  0
  8 10  2  0
  9 11  1  0
  1 21  1  0
 20 22  1  0
 22 29  1  6
 29 30  1  0
 29 36  1  0
 36 37  1  0
 22 23  1  0
  3  2  1  0
 16 17  2  0
 17 18  1  0
 18 19  2  0
 19 20  1  0
 20 15  2  0
 23 24  2  0
 24 25  1  0
 25 26  2  0
 26 27  1  0
 27 28  2  0
 28 23  1  0
  1  2  2  0
  2  7  1  0
  7  6  2  0
  6  5  1  0
  5  4  2  0
  4  1  1  0
 30 31  2  0
 31 32  1  0
 32 33  2  0
 33 34  1  0
 34 35  2  0
 35 30  1  0
 11 12  2  0
 12 13  1  0
 13 14  2  0
 14 15  1  0
 15 16  1  0
 16 11  1  0
M  END
$$$$
