No_8134-complexes_sdf/6BKW-FPZ/2024-09-17-14-21-01/
     RDKit          3D

 13 14  0  0  0  0  0  0  0  0999 V2000
   -7.2496    3.8871   27.4508 C   0  0  0  0  0  0  0  0  0  0  0  0
   -7.6161    2.7143   27.1523 C   0  0  0  0  0  0  0  0  0  0  0  0
   -6.9719    1.5838   27.5324 C   0  0  0  0  0  0  0  0  0  0  0  0
   -7.4590    0.2827   27.2615 C   0  0  0  0  0  0  0  0  0  0  0  0
   -8.7521    2.5117   26.3068 C   0  0  0  0  0  0  0  0  0  0  0  0
   -9.5643    3.6334   25.9825 C   0  0  0  0  0  0  0  0  0  0  0  0
   -8.0314    5.1004   27.2112 C   0  0  0  0  0  0  0  0  0  0  0  0
   -7.6405    6.4427   27.7494 C   0  0  0  0  0  0  0  0  0  0  0  0
   -9.1813    4.9643   26.4281 C   0  0  0  0  0  0  0  0  0  0  0  0
   -6.7138   -0.8269   27.6411 C   0  0  0  0  0  0  0  0  0  0  0  0
   -5.4552   -0.6176   28.2206 C   0  0  0  0  0  0  0  0  0  0  0  0
   -4.8864    0.6229   28.3952 C   0  0  0  0  0  0  0  0  0  0  0  0
   -5.5944    1.6819   28.0506 C   0  0  0  0  0  0  0  0  0  0  0  0
  2  3  1  0
  7  8  1  0
  3  4  2  0
  4 10  1  0
 10 11  2  0
 11 12  1  0
 12 13  2  0
 13  3  1  0
  1  2  2  0
  2  5  1  0
  5  6  2  0
  6  9  1  0
  9  7  2  0
  7  1  1  0
M  END
$$$$
