No_8501-complexes_sdf/6BKW-FPZ/2024-09-17-14-21-01/
     RDKit          3D

  6  5  0  0  0  0  0  0  0  0999 V2000
   -7.9040    3.9820   27.1177 C   0  0  0  0  0  0  0  0  0  0  0  0
   -9.0711    4.3164   27.0630 C   0  0  0  0  0  0  0  0  0  0  0  0
   -9.5606    5.5313   27.6379 C   0  0  0  0  0  0  0  0  0  0  0  0
   -7.4492    2.7133   26.6456 C   0  0  0  0  0  0  0  0  0  0  0  0
   -8.3771    1.7864   26.2004 C   0  0  0  0  0  0  0  0  0  0  0  0
   -9.6854    2.2642   26.0556 C   0  0  0  0  0  0  0  0  0  0  0  0
  1  2  3  0
  2  3  1  0
  1  4  1  0
  4  5  2  3
  5  6  1  0
M  END
$$$$
