No_8748-complexes_sdf/6BKW-FPZ/2024-09-17-14-21-01/
     RDKit          3D

 26 28  0  0  0  0  0  0  0  0999 V2000
   -7.2496    3.8871   27.4508 C   0  0  0  0  0  0  0  0  0  0  0  0
   -8.5096    4.0291   27.2770 C   0  0  0  0  0  0  0  0  0  0  0  0
   -9.3502    2.8685   26.8763 C   0  0  0  0  0  0  0  0  0  0  0  0
   -6.6288    2.5513   27.4938 C   0  0  0  0  0  0  0  0  0  0  0  0
   -7.4365    1.4714   27.2032 C   0  0  0  0  0  0  0  0  0  0  0  0
   -8.7772    1.6579   26.9338 C   0  0  0  0  0  0  0  0  0  0  0  0
   -9.1119    5.3743   27.2229 C   0  0  0  0  0  0  0  0  0  0  0  0
   -8.5881    6.2261   26.5963 F   0  0  0  0  0  0  0  0  0  0  0  0
   -9.2805    5.8547   28.5930 F   0  0  0  0  0  0  0  0  0  0  0  0
  -10.4779    5.2660   26.8407 F   0  0  0  0  0  0  0  0  0  0  0  0
   -6.7812    0.1940   27.1631 C   0  0  0  0  0  0  0  0  0  0  0  0
   -5.5547   -0.0460   27.7916 C   0  0  0  0  0  0  0  0  0  0  0  0
   -4.9029   -0.9706   28.0199 C   0  0  0  0  0  0  0  0  0  0  0  0
   -5.4401   -2.2452   27.7290 C   0  0  0  0  0  0  0  0  0  0  0  0
   -7.4358   -0.9636   26.8855 C   0  0  0  0  0  0  0  0  0  0  0  0
   -6.7514   -2.2306   27.0835 C   0  0  0  0  0  0  0  0  0  0  0  0
   -3.5329   -1.0364   28.7069 C   0  0  1  0  0  0  0  0  0  0  0  0
   -2.7299   -0.6243   28.0484 C   0  0  0  0  0  0  0  0  0  0  0  0
   -3.4241   -1.4378   30.0834 C   0  0  0  0  0  0  0  0  0  0  0  0
   -3.7740   -0.4879   31.0482 C   0  0  0  0  0  0  0  0  0  0  0  0
   -3.6093   -0.7137   32.4647 C   0  0  0  0  0  0  0  0  0  0  0  0
   -2.7016    0.6334   27.3054 C   0  0  0  0  0  0  0  0  0  0  0  0
   -3.1113   -1.9211   32.8958 C   0  0  0  0  0  0  0  0  0  0  0  0
   -2.7680   -2.8814   31.9165 C   0  0  0  0  0  0  0  0  0  0  0  0
   -2.8781   -2.6286   30.5603 C   0  0  0  0  0  0  0  0  0  0  0  0
   -3.4704    1.4605   27.0440 N   0  0  0  0  0  0  0  0  0  0  0  0
  2  7  1  0
  7  8  1  0
  7  9  1  0
  7 10  1  0
  5 11  1  0
 13 17  1  0
 17 18  1  1
 17 19  1  0
 18 22  1  0
 22 26  2  0
 19 20  2  0
 20 21  1  0
 21 23  2  0
 23 24  1  0
 24 25  2  0
 25 19  1  0
  1  2  2  0
  2  3  1  0
  3  6  2  0
  6  5  1  0
  5  4  2  0
  4  1  1  0
 11 12  2  0
 12 13  1  0
 13 14  2  0
 14 16  1  0
 16 15  2  0
 15 11  1  0
M  END
$$$$
