No_8740-complexes_sdf/6BKW-FPZ/2024-09-17-14-21-01/
     RDKit          3D

 12 12  0  0  0  0  0  0  0  0999 V2000
   -7.2496    3.8871   27.4508 C   0  0  0  0  0  0  0  0  0  0  0  0
   -7.9379    4.9063   27.8518 C   0  0  0  0  0  0  0  0  0  0  0  0
   -9.3376    4.8647   27.7795 C   0  0  0  0  0  0  0  0  0  0  0  0
   -7.8544    2.6294   27.0414 C   0  0  0  0  0  0  0  0  0  0  0  0
   -9.2665    2.6175   27.0340 C   0  0  0  0  0  0  0  0  0  0  0  0
   -9.9836    3.7042   27.4150 C   0  0  0  0  0  0  0  0  0  0  0  0
   -6.9318    1.2933   26.7248 Cl  0  0  0  0  0  0  0  0  0  0  0  0
  -11.4546    3.6175   27.4549 C   0  0  0  0  0  0  0  0  0  0  0  0
  -12.3289    4.1364   26.8690 F   0  0  0  0  0  0  0  0  0  0  0  0
  -11.7896    3.7815   28.8950 F   0  0  0  0  0  0  0  0  0  0  0  0
  -11.8104    2.2366   27.3415 F   0  0  0  0  0  0  0  0  0  0  0  0
   -7.3275    6.0270   28.1915 F   0  0  0  0  0  0  0  0  0  0  0  0
  4  7  1  0
  6  8  1  0
  8  9  1  0
  8 10  1  0
  8 11  1  0
  2 12  1  0
  1  2  2  0
  2  3  1  0
  3  6  2  0
  6  5  1  0
  5  4  2  0
  4  1  1  0
M  END
$$$$
