No_8857-complexes_sdf/6BKW-FPZ/2024-09-17-14-21-01/
     RDKit          3D

 10 10  0  0  0  0  0  0  0  0999 V2000
   -7.2496    3.8871   27.4508 C   0  0  0  0  0  0  0  0  0  0  0  0
   -7.6161    2.7143   27.1523 C   0  0  0  0  0  0  0  0  0  0  0  0
   -7.1618    1.8631   27.5233 C   0  0  0  0  0  0  0  0  0  0  0  0
   -8.0036    5.1085   27.2100 C   0  0  0  0  0  0  0  0  0  0  0  0
   -9.1035    5.1173   26.6797 C   0  0  0  0  0  0  0  0  0  0  0  0
   -9.6475    3.9396   26.1445 C   0  0  0  0  0  0  0  0  0  0  0  0
   -8.9486    2.7269   26.4505 C   0  0  0  0  0  0  0  0  0  0  0  0
   -5.7065    1.8069   27.9691 C   0  0  0  0  0  0  0  0  0  0  0  0
   -5.0885    0.4999   28.2997 C   0  0  0  0  0  0  0  0  0  0  0  0
   -5.8152   -0.6171   28.2026 C   0  0  0  0  0  0  0  0  0  0  0  0
  1  2  1  0
  2  3  2  3
  1  4  1  0
  4  5  1  0
  5  6  1  0
  2  7  1  0
  6  7  1  0
  3  8  1  0
  8  9  2  3
  9 10  1  0
M  END
$$$$
