No_8163-complexes_sdf/6BKW-FPZ/2024-09-17-14-21-01/
     RDKit          3D

 17 17  0  0  0  0  0  0  0  0999 V2000
   -7.9040    3.9820   27.1177 C   0  0  0  0  0  0  0  0  0  0  0  0
   -7.8663    4.8694   27.9238 C   0  0  0  0  0  0  0  0  0  0  0  0
   -9.0491    3.8523   26.2542 C   0  0  0  0  0  0  0  0  0  0  0  0
   -8.7661    5.9491   27.9690 C   0  0  0  0  0  0  0  0  0  0  0  0
   -9.9295    4.8502   26.2323 C   0  0  0  0  0  0  0  0  0  0  0  0
   -9.8077    5.9288   27.0933 C   0  0  0  0  0  0  0  0  0  0  0  0
   -7.0146    2.9513   27.1368 F   0  0  0  0  0  0  0  0  0  0  0  0
   -9.0710    2.8499   25.3499 F   0  0  0  0  0  0  0  0  0  0  0  0
  -10.8951    4.8246   25.3209 F   0  0  0  0  0  0  0  0  0  0  0  0
   -6.7850    5.0399   28.8062 O   0  0  0  0  0  0  0  0  0  0  0  0
   -5.5461    4.7626   28.2855 C   0  0  0  0  0  0  0  0  0  0  0  0
   -4.6767    5.5101   28.8215 O   0  0  0  0  0  0  0  0  0  0  0  0
   -5.2023    4.0598   27.4723 O   0  0  0  0  0  0  0  0  0  0  0  0
   -3.8307    3.6572   27.8350 C   0  0  2  0  0  0  0  0  0  0  0  0
   -3.5357    2.3874   26.8946 C   0  0  0  0  0  0  0  0  0  0  0  0
   -4.0684    3.4757   28.8304 C   0  0  0  0  0  0  0  0  0  0  0  0
   -4.3584    2.1280   28.9254 O   0  0  0  0  0  0  0  0  0  0  0  0
  1  7  1  0
  3  8  1  0
  5  9  1  0
  2 10  1  0
 10 11  1  0
 11 12  2  0
 11 13  1  0
 13 14  1  0
 14 15  1  6
 14 16  1  0
 16 17  1  0
  1  2  2  0
  2  4  1  0
  4  6  2  0
  6  5  1  0
  5  3  2  0
  3  1  1  0
M  END
$$$$
