No_8646-complexes_sdf/6BKW-FPZ/2024-09-17-14-21-01/
     RDKit          3D

 16 17  0  0  0  0  0  0  0  0999 V2000
   -7.2496    3.8871   27.4508 C   0  0  0  0  0  0  0  0  0  0  0  0
   -7.6161    2.7143   27.1523 C   0  0  0  0  0  0  0  0  0  0  0  0
   -8.8302    2.4659   26.5056 C   0  0  0  0  0  0  0  0  0  0  0  0
   -8.1584    5.0090   27.3234 C   0  0  0  0  0  0  0  0  0  0  0  0
   -9.3788    4.7965   26.7695 C   0  0  0  0  0  0  0  0  0  0  0  0
   -9.7028    3.5649   26.3276 C   0  0  0  0  0  0  0  0  0  0  0  0
   -6.7792    1.6348   27.3517 N   0  0  0  0  0  0  0  0  0  0  0  0
   -7.0195    0.3499   27.0368 C   0  0  0  0  0  0  0  0  0  0  0  0
   -6.1043   -0.6019   27.4919 C   0  0  0  0  0  0  0  0  0  0  0  0
   -6.2732   -1.9245   27.3800 C   0  0  0  0  0  0  0  0  0  0  0  0
   -4.9184   -0.0693   28.2600 C   0  0  0  0  0  0  0  0  0  0  0  0
   -3.9992   -0.9808   28.8344 C   0  0  0  0  0  0  0  0  0  0  0  0
   -2.9703   -0.4053   29.5841 C   0  0  0  0  0  0  0  0  0  0  0  0
   -2.0928   -1.2462   30.1197 N   0  0  0  0  0  0  0  0  0  0  0  0
   -5.2394   -2.8095   27.9065 C   0  0  0  0  0  0  0  0  0  0  0  0
   -4.1799   -2.2919   28.6617 C   0  0  0  0  0  0  0  0  0  0  0  0
  2  7  1  0
  7  8  1  0
 13 14  1  0
 13 12  1  0
  8  9  1  0
  1  2  2  0
  2  3  1  0
  3  6  2  0
  6  5  1  0
  5  4  2  0
  4  1  1  0
  9 10  2  0
 10 15  1  0
 15 16  2  0
 16 12  1  0
 12 11  2  0
 11  9  1  0
M  END
$$$$
