No_8955-complexes_sdf/6BKW-FPZ/2024-09-17-14-21-01/
     RDKit          3D

 40 45  0  0  0  0  0  0  0  0999 V2000
   -7.9040    3.9820   27.1177 C   0  0  0  0  0  0  0  0  0  0  0  0
   -7.8663    4.8694   27.9238 C   0  0  0  0  0  0  0  0  0  0  0  0
   -9.0491    3.8523   26.2542 C   0  0  0  0  0  0  0  0  0  0  0  0
   -8.7661    5.9491   27.9690 C   0  0  0  0  0  0  0  0  0  0  0  0
   -9.9279    4.8544   26.1938 C   0  0  0  0  0  0  0  0  0  0  0  0
   -9.8044    5.9413   27.0782 C   0  0  0  0  0  0  0  0  0  0  0  0
   -6.9767    2.7896   27.2265 C   0  0  0  0  0  0  0  0  0  0  0  0
   -5.8301    2.8737   28.0135 C   0  0  0  0  0  0  0  0  0  0  0  0
   -7.4223    1.4996   26.7953 C   0  0  0  0  0  0  0  0  0  0  0  0
   -4.9381    1.7680   28.1177 C   0  0  0  0  0  0  0  0  0  0  0  0
   -5.3625    0.5092   27.7335 C   0  0  0  0  0  0  0  0  0  0  0  0
   -4.6274   -0.6539   28.0090 C   0  0  0  0  0  0  0  0  0  0  0  0
   -6.6419    0.3639   27.1275 C   0  0  0  0  0  0  0  0  0  0  0  0
   -5.0389   -1.7659   27.9478 C   0  0  0  0  0  0  0  0  0  0  0  0
   -6.3672   -1.9252   27.2677 C   0  0  0  0  0  0  0  0  0  0  0  0
   -7.1496   -0.8967   26.9090 C   0  0  0  0  0  0  0  0  0  0  0  0
   -3.2952   -0.4052   28.7842 C   0  0  1  0  0  0  0  0  0  0  0  0
   -3.3057   -0.5332   30.2545 C   0  0  0  0  0  0  0  0  0  0  0  0
   -2.1993   -1.3109   28.2304 C   0  0  2  0  0  0  0  0  0  0  0  0
   -3.6494   -1.5834   30.9450 C   0  0  2  0  0  0  0  0  0  0  0  0
   -3.9998   -1.6604   31.9133 C   0  0  0  0  0  0  0  0  0  0  0  0
   -4.0013   -0.4605   32.8787 C   0  0  0  0  0  0  0  0  0  0  0  0
   -4.4619   -0.6366   34.2304 C   0  0  0  0  0  0  0  0  0  0  0  0
   -5.2188   -1.7814   34.5629 C   0  0  0  0  0  0  0  0  0  0  0  0
   -5.3852   -2.8056   33.6937 C   0  0  0  0  0  0  0  0  0  0  0  0
   -4.8122   -2.7329   32.4784 C   0  0  0  0  0  0  0  0  0  0  0  0
   -5.9141   -1.8497   36.1954 Cl  0  0  0  0  0  0  0  0  0  0  0  0
   -2.1646   -2.3719   30.8546 C   0  0  0  0  0  0  0  0  0  0  0  0
   -1.6456   -2.3751   29.3663 C   0  0  1  0  0  0  0  0  0  0  0  0
   -1.6190   -3.7409   28.7746 C   0  0  0  0  0  0  0  0  0  0  0  0
   -0.1593   -1.7640   29.5596 C   0  0  0  0  0  0  0  0  0  0  0  0
   -1.6533   -4.6406   29.6063 C   0  0  0  0  0  0  0  0  0  0  0  0
   -1.5606   -3.9060   27.4304 C   0  0  0  0  0  0  0  0  0  0  0  0
   -1.9491   -6.0170   29.1629 C   0  0  0  0  0  0  0  0  0  0  0  0
   -1.7654   -5.2072   26.8965 C   0  0  0  0  0  0  0  0  0  0  0  0
   -1.8790   -6.2219   27.7947 C   0  0  0  0  0  0  0  0  0  0  0  0
   -2.0973   -7.5759   27.2539 C   0  0  0  0  0  0  0  0  0  0  0  0
   -2.0699   -8.5848   27.8434 O   0  0  0  0  0  0  0  0  0  0  0  0
   -2.6119   -7.6266   25.9849 O   0  0  0  0  0  0  0  0  0  0  0  0
   -1.0961   -0.5096   27.6719 C   0  0  0  0  0  0  0  0  0  0  0  0
  1  7  1  0
 17 12  1  6
 17 18  1  0
 17 19  1  0
 18 20  1  0
 24 27  1  0
 20 28  1  0
 19 29  1  0
 28 29  1  0
 29 30  1  0
 29 31  1  1
 36 37  1  0
 37 38  2  0
 37 39  1  0
 19 40  1  1
 20 21  1  1
  7  8  2  0
  8 10  1  0
 10 11  2  0
 13  9  2  0
  9  7  1  0
 30 32  2  0
 32 34  1  0
 34 36  2  0
 36 35  1  0
 35 33  2  0
 33 30  1  0
  1  2  2  0
  2  4  1  0
  4  6  2  0
  6  5  1  0
  5  3  2  0
  3  1  1  0
 11 12  1  0
 12 14  2  0
 14 15  1  0
 15 16  2  0
 16 13  1  0
 13 11  1  0
 21 22  2  0
 22 23  1  0
 23 24  2  0
 24 25  1  0
 25 26  2  0
 26 21  1  0
M  END
$$$$
