No_86-complexes_sdf/6BKW-FPZ/2024-09-17-14-21-01/
     RDKit          3D

 18 19  0  0  0  0  0  0  0  0999 V2000
   -7.7129    4.2099   27.0854 C   0  0  0  0  0  0  0  0  0  0  0  0
   -8.2112    3.0637   26.9225 C   0  0  0  0  0  0  0  0  0  0  0  0
   -9.4446    2.8304   26.1868 C   0  0  0  0  0  0  0  0  0  0  0  0
   -8.6179    5.2785   27.1142 C   0  0  0  0  0  0  0  0  0  0  0  0
   -8.1572    6.6752   27.3575 C   0  0  0  0  0  0  0  0  0  0  0  0
  -10.2496    3.9105   26.0418 C   0  0  0  0  0  0  0  0  0  0  0  0
   -9.7712    5.1823   26.3860 C   0  0  0  0  0  0  0  0  0  0  0  0
   -7.2936    1.8117   27.0837 C   0  0  0  0  0  0  0  0  0  0  0  0
   -6.1976    1.9882   27.7437 O   0  0  0  0  0  0  0  0  0  0  0  0
   -7.4619    0.6614   26.4513 N   0  0  0  0  0  0  0  0  0  0  0  0
   -6.6382   -0.5232   26.7258 C   0  0  0  0  0  0  0  0  0  0  0  0
   -8.0284    7.5146   26.6418 O   0  0  0  0  0  0  0  0  0  0  0  0
   -7.1697    6.6030   28.4327 O   0  0  0  0  0  0  0  0  0  0  0  0
   -7.1497   -1.3432   27.2654 C   0  0  0  0  0  0  0  0  0  0  0  0
   -6.3866   -2.4156   27.7972 C   0  0  0  0  0  0  0  0  0  0  0  0
   -5.3676   -2.3401   27.9234 C   0  0  0  0  0  0  0  0  0  0  0  0
   -4.4886   -1.2788   27.3645 C   0  0  0  0  0  0  0  0  0  0  0  0
   -5.2343   -0.2220   26.8010 C   0  0  0  0  0  0  0  0  0  0  0  0
  4  5  1  0
  2  8  1  0
  8  9  2  0
  8 10  1  0
 10 11  1  0
  5 12  2  0
  5 13  1  0
  1  2  2  0
  2  3  1  0
  3  6  2  0
  6  7  1  0
  7  4  2  0
  4  1  1  0
 11 14  2  0
 14 15  1  0
 15 16  2  0
 16 17  1  0
 17 18  2  0
 18 11  1  0
M  END
$$$$
