No_8607-complexes_sdf/6BKW-FPZ/2024-09-17-14-21-01/
     RDKit          3D

 25 28  0  0  0  0  0  0  0  0999 V2000
   -7.7129    4.2099   27.0854 C   0  0  0  0  0  0  0  0  0  0  0  0
   -8.2112    3.0637   26.9225 C   0  0  0  0  0  0  0  0  0  0  0  0
   -9.5629    2.7997   27.0678 C   0  0  0  0  0  0  0  0  0  0  0  0
   -8.5911    5.3704   27.2036 C   0  0  0  0  0  0  0  0  0  0  0  0
   -9.9544    5.1489   27.1401 C   0  0  0  0  0  0  0  0  0  0  0  0
  -10.4577    3.9280   27.0818 C   0  0  0  0  0  0  0  0  0  0  0  0
   -7.8303    6.6551   27.2430 C   0  0  0  0  0  0  0  0  0  0  0  0
  -10.0812    1.4052   26.9623 C   0  0  0  0  0  0  0  0  0  0  0  0
  -11.1728    1.0571   27.5723 C   0  0  0  0  0  0  0  0  0  0  0  0
  -11.5999   -0.3369   27.6260 C   0  0  0  0  0  0  0  0  0  0  0  0
  -10.7267   -1.2612   27.0924 C   0  0  0  0  0  0  0  0  0  0  0  0
   -9.3376    0.1959   26.6347 C   0  0  0  0  0  0  0  0  0  0  0  0
   -9.6161   -0.9901   26.6440 C   0  0  0  0  0  0  0  0  0  0  0  0
   -7.0740    6.7904   28.1506 F   0  0  0  0  0  0  0  0  0  0  0  0
   -8.8764    7.6546   27.4724 F   0  0  0  0  0  0  0  0  0  0  0  0
   -7.5245    7.0617   26.1048 F   0  0  0  0  0  0  0  0  0  0  0  0
  -11.3899   -2.9421   27.2139 Cl  0  0  0  0  0  0  0  0  0  0  0  0
   -8.7326   -2.0547   26.0958 C   0  0  0  0  0  0  0  0  0  0  0  0
   -7.6997   -1.6090   25.4806 C   0  0  0  0  0  0  0  0  0  0  0  0
   -7.2440   -0.2082   25.4433 C   0  0  0  0  0  0  0  0  0  0  0  0
   -7.9899    0.6540   25.9430 C   0  0  0  0  0  0  0  0  0  0  0  0
   -7.3794    1.9646   26.5559 N   0  0  0  0  0  0  0  0  0  0  0  0
   -6.6912   -2.5646   24.8058 C   0  0  0  0  0  0  0  0  0  0  0  0
   -7.1581   -3.5464   24.4762 O   0  0  0  0  0  0  0  0  0  0  0  0
   -5.4273   -2.3823   24.9639 O   0  0  0  0  0  0  0  0  0  0  0  0
  4  7  1  0
  3  8  1  0
  7 14  1  0
  7 15  1  0
  7 16  1  0
 11 17  1  0
  2 22  1  0
 21 22  1  0
 19 23  1  0
 23 24  1  0
 23 25  2  0
  1  2  2  0
  2  3  1  0
  3  6  2  0
  6  5  1  0
  5  4  2  0
  4  1  1  0
 13 18  2  0
 18 19  1  0
 19 20  2  0
 20 21  1  0
 21 12  2  0
  8  9  2  0
  9 10  1  0
 10 11  2  0
 11 13  1  0
 13 12  1  0
 12  8  1  0
M  END
$$$$
