No_8099-complexes_sdf/6BKW-FPZ/2024-09-17-14-21-01/
     RDKit          3D

 23 25  0  0  0  0  0  0  0  0999 V2000
   -7.2496    3.8871   27.4508 C   0  0  0  0  0  0  0  0  0  0  0  0
   -8.5096    4.0291   27.2770 C   0  0  0  0  0  0  0  0  0  0  0  0
   -9.3502    2.8685   26.8763 C   0  0  0  0  0  0  0  0  0  0  0  0
   -6.6288    2.5513   27.4938 C   0  0  0  0  0  0  0  0  0  0  0  0
   -7.4365    1.4714   27.2032 C   0  0  0  0  0  0  0  0  0  0  0  0
   -8.7772    1.6579   26.9338 C   0  0  0  0  0  0  0  0  0  0  0  0
   -9.1078    5.3660   27.2249 C   0  0  0  0  0  0  0  0  0  0  0  0
  -10.2765    5.6141   27.6173 O   0  0  0  0  0  0  0  0  0  0  0  0
   -8.2418    6.4569   27.1097 N   0  0  0  0  0  0  0  0  0  0  0  0
   -8.6163    7.8174   27.0675 C   0  0  0  0  0  0  0  0  0  0  0  0
   -7.0114    0.0786   27.1675 C   0  0  0  0  0  0  0  0  0  0  0  0
   -7.6990   -0.9449   27.0763 C   0  0  0  0  0  0  0  0  0  0  0  0
   -7.1961   -2.2300   27.1553 C   0  0  0  0  0  0  0  0  0  0  0  0
   -5.5309   -0.0902   27.3015 C   0  0  0  0  0  0  0  0  0  0  0  0
   -5.0066   -1.3715   27.3916 C   0  0  0  0  0  0  0  0  0  0  0  0
   -5.8512   -2.4396   27.2745 C   0  0  0  0  0  0  0  0  0  0  0  0
   -8.1419   -3.3967   27.0168 C   0  0  0  0  0  0  0  0  0  0  0  0
   -9.3167   -3.1471   26.6997 C   0  0  0  0  0  0  0  0  0  0  0  0
  -10.2939   -4.1689   26.6254 C   0  0  0  0  0  0  0  0  0  0  0  0
   -9.8281   -5.4626   26.8486 C   0  0  0  0  0  0  0  0  0  0  0  0
   -8.5539   -5.6961   27.1594 C   0  0  0  0  0  0  0  0  0  0  0  0
   -7.6392   -4.6578   27.3293 C   0  0  0  0  0  0  0  0  0  0  0  0
  -10.7457   -6.4304   26.7251 F   0  0  0  0  0  0  0  0  0  0  0  0
  2  7  1  0
  7  8  2  0
  7  9  1  0
  9 10  1  0
  5 11  1  0
 13 17  1  0
 20 23  1  0
 17 18  2  0
 18 19  1  0
 19 20  2  0
 20 21  1  0
 21 22  2  0
 22 17  1  0
  1  2  2  0
  2  3  1  0
  3  6  2  0
  6  5  1  0
  5  4  2  0
  4  1  1  0
 11 12  2  0
 12 13  1  0
 13 16  2  0
 16 15  1  0
 15 14  2  0
 14 11  1  0
M  END
$$$$
