No_8641-complexes_sdf/6BKW-FPZ/2024-09-17-14-21-01/
     RDKit          3D

 18 19  0  0  0  0  0  0  0  0999 V2000
   -7.2496    3.8871   27.4508 C   0  0  0  0  0  0  0  0  0  0  0  0
   -8.5096    4.0291   27.2770 C   0  0  0  0  0  0  0  0  0  0  0  0
   -9.3502    2.8685   26.8763 C   0  0  0  0  0  0  0  0  0  0  0  0
   -6.6288    2.5513   27.4938 C   0  0  0  0  0  0  0  0  0  0  0  0
   -7.4365    1.4714   27.2032 C   0  0  0  0  0  0  0  0  0  0  0  0
   -8.7772    1.6579   26.9338 C   0  0  0  0  0  0  0  0  0  0  0  0
   -8.9255    5.4785   27.2355 C   0  0  0  0  0  0  0  0  0  0  0  0
  -10.1987    5.5772   27.4679 F   0  0  0  0  0  0  0  0  0  0  0  0
   -8.7002    6.0475   26.0163 F   0  0  0  0  0  0  0  0  0  0  0  0
   -8.2257    6.2729   28.0916 F   0  0  0  0  0  0  0  0  0  0  0  0
   -6.8054    0.1833   27.1817 C   0  0  0  0  0  0  0  0  0  0  0  0
   -5.5731   -0.0417   27.7952 C   0  0  0  0  0  0  0  0  0  0  0  0
   -4.9444   -1.3125   27.8204 C   0  0  0  0  0  0  0  0  0  0  0  0
   -5.5961   -2.2960   27.0780 C   0  0  0  0  0  0  0  0  0  0  0  0
   -7.2097   -1.0030   26.6121 C   0  0  0  0  0  0  0  0  0  0  0  0
   -6.7046   -2.1519   26.5287 C   0  0  0  0  0  0  0  0  0  0  0  0
   -3.4333   -1.4693   28.6488 Cl  0  0  0  0  0  0  0  0  0  0  0  0
   -7.2904   -3.1424   25.9003 F   0  0  0  0  0  0  0  0  0  0  0  0
  2  7  1  0
  7  8  1  0
  7  9  1  0
  7 10  1  0
  5 11  1  0
 13 17  1  0
 16 18  1  0
  1  2  2  0
  2  3  1  0
  3  6  2  0
  6  5  1  0
  5  4  2  0
  4  1  1  0
 11 12  2  0
 12 13  1  0
 13 14  2  0
 14 16  1  0
 16 15  2  0
 15 11  1  0
M  END
$$$$
