No_869-complexes_sdf/6BKW-FPZ/2024-09-17-14-21-01/
     RDKit          3D

 23 26  0  0  0  0  0  0  0  0999 V2000
   -7.9040    3.9820   27.1177 C   0  0  0  0  0  0  0  0  0  0  0  0
   -7.8663    4.8694   27.9238 C   0  0  0  0  0  0  0  0  0  0  0  0
   -7.4547    2.7080   27.4594 C   0  0  0  0  0  0  0  0  0  0  0  0
   -7.9337    1.5946   26.8372 C   0  0  0  0  0  0  0  0  0  0  0  0
   -8.9603    1.7678   26.1391 C   0  0  0  0  0  0  0  0  0  0  0  0
   -9.5151    2.9338   25.7451 C   0  0  0  0  0  0  0  0  0  0  0  0
   -9.0514    3.9881   26.3110 C   0  0  0  0  0  0  0  0  0  0  0  0
   -8.1879    6.2399   27.5870 N   0  0  0  0  0  0  0  0  0  0  0  0
   -9.1947    6.5871   26.7797 C   0  0  0  0  0  0  0  0  0  0  0  0
   -9.6414    5.3736   26.0326 C   0  0  0  0  0  0  0  0  0  0  0  0
   -7.2854    0.2718   27.2092 C   0  0  0  0  0  0  0  0  0  0  0  0
   -5.9613    0.1991   27.6447 C   0  0  0  0  0  0  0  0  0  0  0  0
   -5.3764   -1.0159   27.9767 C   0  0  0  0  0  0  0  0  0  0  0  0
   -6.1672   -2.1441   27.9016 C   0  0  0  0  0  0  0  0  0  0  0  0
   -7.8620   -0.9868   27.1933 C   0  0  0  0  0  0  0  0  0  0  0  0
   -9.3312   -0.8820   26.7606 C   0  0  0  0  0  0  0  0  0  0  0  0
   -7.3856   -2.1188   27.5745 C   0  0  0  0  0  0  0  0  0  0  0  0
   -9.7491    0.3585   25.9807 C   0  0  0  0  0  0  0  0  0  0  0  0
   -3.9381   -0.9514   28.4929 C   0  0  0  0  0  0  0  0  0  0  0  0
   -3.8484   -0.6566   29.7369 F   0  0  0  0  0  0  0  0  0  0  0  0
   -3.3142    0.0447   27.8087 F   0  0  0  0  0  0  0  0  0  0  0  0
   -3.3058   -2.0572   28.2291 F   0  0  0  0  0  0  0  0  0  0  0  0
  -10.2474   -0.8765   28.0226 C   0  0  0  0  0  0  0  0  0  0  0  0
 13 19  1  0
 19 20  1  0
 19 21  1  0
 19 22  1  0
 16 23  1  0
  1  2  2  0
  2  8  1  0
  8  9  2  0
  9 10  1  0
 10  7  2  0
  5 18  1  0
 18 16  2  0
 16 15  1  0
 11  4  1  0
 11 12  2  0
 12 13  1  0
 13 14  2  0
 14 17  1  0
 17 15  2  0
 15 11  1  0
  1  3  1  0
  3  4  2  0
  4  5  1  0
  5  6  2  0
  6  7  1  0
  7  1  1  0
M  END
$$$$
