No_8996-complexes_sdf/6BKW-FPZ/2024-09-17-14-21-01/
     RDKit          3D

 25 28  0  0  0  0  0  0  0  0999 V2000
   -7.7129    4.2099   27.0854 C   0  0  0  0  0  0  0  0  0  0  0  0
   -7.7814    5.1722   27.8972 C   0  0  0  0  0  0  0  0  0  0  0  0
   -8.8255    3.2789   27.1191 C   0  0  0  0  0  0  0  0  0  0  0  0
   -9.9209    3.4734   27.9101 C   0  0  0  0  0  0  0  0  0  0  0  0
  -10.9752    2.5069   28.0201 C   0  0  0  0  0  0  0  0  0  0  0  0
   -8.9991    5.6269   28.5996 C   0  0  0  0  0  0  0  0  0  0  0  0
   -9.9928    4.6433   28.6536 C   0  0  0  0  0  0  0  0  0  0  0  0
  -12.1045    2.7907   28.6178 C   0  0  0  0  0  0  0  0  0  0  0  0
  -13.1396    1.7984   28.7881 C   0  0  0  0  0  0  0  0  0  0  0  0
  -12.8188    0.5151   28.3436 C   0  0  0  0  0  0  0  0  0  0  0  0
  -10.7718    1.1337   27.6854 C   0  0  0  0  0  0  0  0  0  0  0  0
  -11.6346    0.1945   27.8448 C   0  0  0  0  0  0  0  0  0  0  0  0
   -8.5816    2.0055   26.3607 C   0  0  1  0  0  0  0  0  0  0  0  0
   -7.6150    1.6944   25.6253 C   0  0  0  0  0  0  0  0  0  0  0  0
   -9.6714    0.9573   26.6866 C   0  0  1  0  0  0  0  0  0  0  0  0
   -8.9469   -0.3241   26.7766 C   0  0  0  0  0  0  0  0  0  0  0  0
   -8.4280   -0.7033   25.6091 C   0  0  2  0  0  0  0  0  0  0  0  0
   -8.0117   -2.0546   25.3900 C   0  0  0  0  0  0  0  0  0  0  0  0
   -7.5986    0.3557   24.9524 C   0  0  0  0  0  0  0  0  0  0  0  0
   -7.2137   -2.5933   25.6703 C   0  0  0  0  0  0  0  0  0  0  0  0
   -9.0991   -2.6038   24.4497 C   0  0  0  0  0  0  0  0  0  0  0  0
  -10.1614   -1.9642   24.0912 C   0  0  0  0  0  0  0  0  0  0  0  0
  -11.1838   -2.5728   23.2997 C   0  0  0  0  0  0  0  0  0  0  0  0
   -6.8087   -3.9585   25.3588 C   0  0  0  0  0  0  0  0  0  0  0  0
   -7.7521   -4.5947   24.5403 C   0  0  0  0  0  0  0  0  0  0  0  0
  4  5  1  0
  3 13  1  0
 13 14  1  1
 11 15  1  0
 13 15  1  0
 15 16  1  1
 16 17  1  0
 17 18  1  1
 14 19  1  0
 17 19  1  0
 18 20  1  0
 18 21  1  0
 21 22  2  3
 22 23  1  0
 20 24  2  3
 24 25  1  0
  1  2  2  0
  2  6  1  0
  6  7  2  0
  7  4  1  0
  4  3  2  0
  3  1  1  0
  5  8  2  0
  8  9  1  0
  9 10  2  0
 10 12  1  0
 12 11  2  0
 11  5  1  0
M  END
$$$$
