No_8209-complexes_sdf/6BKW-FPZ/2024-09-17-14-21-01/
     RDKit          3D

 20 22  0  0  0  0  0  0  0  0999 V2000
   -7.7129    4.2099   27.0854 C   0  0  0  0  0  0  0  0  0  0  0  0
   -7.7814    5.1722   27.8972 C   0  0  0  0  0  0  0  0  0  0  0  0
   -8.8998    3.8713   26.3707 C   0  0  0  0  0  0  0  0  0  0  0  0
   -9.7416    3.2213   26.9591 C   0  0  0  0  0  0  0  0  0  0  0  0
  -10.1082    3.3017   28.0352 C   0  0  0  0  0  0  0  0  0  0  0  0
   -8.8391    5.2426   28.9792 C   0  0  0  0  0  0  0  0  0  0  0  0
   -9.9642    4.4471   28.9321 C   0  0  0  0  0  0  0  0  0  0  0  0
  -10.4739    2.1077   26.1273 C   0  0  0  0  0  0  0  0  0  0  0  0
   -9.8453    1.1452   25.5286 C   0  0  0  0  0  0  0  0  0  0  0  0
  -10.3449    0.3386   24.6098 C   0  0  0  0  0  0  0  0  0  0  0  0
   -9.5493   -0.6019   23.8392 C   0  0  0  0  0  0  0  0  0  0  0  0
   -8.1691   -0.6682   24.0610 C   0  0  0  0  0  0  0  0  0  0  0  0
   -7.5771    0.1700   24.9510 C   0  0  0  0  0  0  0  0  0  0  0  0
   -8.2845    1.0771   25.6308 C   0  0  0  0  0  0  0  0  0  0  0  0
  -11.8756    2.1654   26.0393 C   0  0  0  0  0  0  0  0  0  0  0  0
  -12.5826    3.2906   26.2581 C   0  0  0  0  0  0  0  0  0  0  0  0
  -13.9574    3.3912   26.1570 C   0  0  0  0  0  0  0  0  0  0  0  0
  -14.5866    2.2733   25.7746 C   0  0  0  0  0  0  0  0  0  0  0  0
  -13.9128    1.1097   25.5357 C   0  0  0  0  0  0  0  0  0  0  0  0
  -12.5775    1.0480   25.6671 C   0  0  0  0  0  0  0  0  0  0  0  0
  1  2  1  0
  1  3  1  0
  3  4  2  0
  4  5  1  0
  2  6  2  0
  5  7  1  0
  6  7  1  0
  4  8  1  0
  8  9  1  0
  8 15  1  0
 15 16  2  0
 16 17  1  0
 17 18  2  0
 18 19  1  0
 19 20  2  0
 20 15  1  0
  9 10  2  0
 10 11  1  0
 11 12  2  0
 12 13  1  0
 13 14  2  0
 14  9  1  0
M  END
$$$$
