No_8579-complexes_sdf/6BKW-FPZ/2024-09-17-14-21-01/
     RDKit          3D

 13 14  0  0  0  0  0  0  0  0999 V2000
   -7.7129    4.2099   27.0854 C   0  0  0  0  0  0  0  0  0  0  0  0
   -8.2112    3.0637   26.9225 C   0  0  0  0  0  0  0  0  0  0  0  0
   -7.5138    1.9223   27.4249 C   0  0  0  0  0  0  0  0  0  0  0  0
   -8.5309    5.4147   26.8151 C   0  0  0  0  0  0  0  0  0  0  0  0
   -8.1184    6.7672   27.1362 C   0  0  0  0  0  0  0  0  0  0  0  0
   -7.9454    0.5906   27.2320 C   0  0  0  0  0  0  0  0  0  0  0  0
   -9.2945    0.4838   26.7483 C   0  0  0  0  0  0  0  0  0  0  0  0
  -10.0282    1.5678   26.3476 C   0  0  0  0  0  0  0  0  0  0  0  0
   -9.4721    2.8443   26.4726 C   0  0  0  0  0  0  0  0  0  0  0  0
   -9.7683    5.2468   26.1517 C   0  0  0  0  0  0  0  0  0  0  0  0
  -10.2585    3.9546   26.0310 C   0  0  0  0  0  0  0  0  0  0  0  0
   -8.7383    7.8543   26.7608 N   0  0  0  0  0  0  0  0  0  0  0  0
   -6.9897    6.8497   27.8427 O   0  0  0  0  0  0  0  0  0  0  0  0
  4  5  1  0
  5 12  1  0
  5 13  2  0
  1  2  2  0
  9 11  2  0
 11 10  1  0
 10  4  2  0
  4  1  1  0
  2  3  1  0
  3  6  2  0
  6  7  1  0
  7  8  2  0
  8  9  1  0
  9  2  1  0
M  END
$$$$
