No_8860-complexes_sdf/6BKW-FPZ/2024-09-17-14-21-01/
     RDKit          3D

 34 37  0  0  0  0  0  0  0  0999 V2000
   -7.9040    3.9820   27.1177 C   0  0  0  0  0  0  0  0  0  0  0  0
   -7.8663    4.8694   27.9238 C   0  0  0  0  0  0  0  0  0  0  0  0
   -9.0501    3.8017   26.2617 C   0  0  0  0  0  0  0  0  0  0  0  0
  -10.0189    4.7608   26.3707 C   0  0  0  0  0  0  0  0  0  0  0  0
   -8.6973    5.9722   27.8968 C   0  0  0  0  0  0  0  0  0  0  0  0
   -9.8216    5.8946   27.1241 C   0  0  0  0  0  0  0  0  0  0  0  0
   -9.3622    2.6765   25.4475 C   0  0  2  0  0  0  0  0  0  0  0  0
  -10.2192    1.9211   25.8429 C   0  0  0  0  0  0  0  0  0  0  0  0
  -10.9934    1.7824   26.5479 C   0  0  0  0  0  0  0  0  0  0  0  0
  -11.8987    0.5915   26.8905 C   0  0  0  0  0  0  0  0  0  0  0  0
  -11.6918   -0.4313   26.0793 C   0  0  0  0  0  0  0  0  0  0  0  0
  -10.1546    0.5115   25.0078 C   0  0  0  0  0  0  0  0  0  0  0  0
  -10.9072   -0.5016   25.1713 C   0  0  0  0  0  0  0  0  0  0  0  0
   -9.1362    0.7702   23.8303 C   0  0  1  0  0  0  0  0  0  0  0  0
   -8.5269    2.3060   24.2468 C   0  0  0  0  0  0  0  0  0  0  0  0
  -10.7531   -1.8321   24.0996 Cl  0  0  0  0  0  0  0  0  0  0  0  0
   -8.6447    0.0897   22.8426 C   0  0  0  0  0  0  0  0  0  0  0  0
   -7.4842   -0.7637   23.0761 C   0  0  0  0  0  0  0  0  0  0  0  0
   -7.4504   -1.8519   23.6084 C   0  0  0  0  0  0  0  0  0  0  0  0
   -6.8417   -2.2118   24.4154 C   0  0  0  0  0  0  0  0  0  0  0  0
   -6.9423   -3.5357   25.1624 C   0  0  0  0  0  0  0  0  0  0  0  0
   -7.7697   -4.4028   24.5706 C   0  0  0  0  0  0  0  0  0  0  0  0
   -8.4872   -4.0632   23.4938 C   0  0  0  0  0  0  0  0  0  0  0  0
   -8.3656   -2.7545   22.9685 C   0  0  0  0  0  0  0  0  0  0  0  0
   -9.2435    0.1294   21.6109 C   0  0  0  0  0  0  0  0  0  0  0  0
   -5.9708   -1.2871   25.1672 C   0  0  0  0  0  0  0  0  0  0  0  0
   -4.6858   -1.1232   24.8139 N   0  0  0  0  0  0  0  0  0  0  0  0
   -6.3438   -0.6336   26.2188 O   0  0  0  0  0  0  0  0  0  0  0  0
   -3.6730   -0.3085   25.5442 C   0  0  0  0  0  0  0  0  0  0  0  0
   -2.7555   -1.2391   26.2484 C   0  0  0  0  0  0  0  0  0  0  0  0
   -3.1131   -1.7230   27.4999 C   0  0  0  0  0  0  0  0  0  0  0  0
   -3.6093   -0.8263   28.3650 C   0  0  0  0  0  0  0  0  0  0  0  0
   -2.9192    0.0124   28.9938 C   0  0  0  0  0  0  0  0  0  0  0  0
   -3.5418    0.9267   30.0464 C   0  0  0  0  0  0  0  0  0  0  0  0
  7  3  1  1
  7  8  1  0
 12 14  1  0
  7 15  1  0
 14 15  1  0
 13 16  1  0
 14 17  1  1
 17 18  1  0
 18 19  1  0
 17 25  1  0
 20 26  1  0
 26 27  1  0
 26 28  2  0
 27 29  1  0
 29 30  1  0
 30 31  1  0
 31 32  1  0
 32 33  2  3
 33 34  1  0
  1  2  2  0
  2  5  1  0
  5  6  2  0
  6  4  1  0
  4  3  2  0
  3  1  1  0
 19 20  2  0
 20 21  1  0
 21 22  2  0
 22 23  1  0
 23 24  2  0
 24 19  1  0
  8  9  2  0
  9 10  1  0
 10 11  2  0
 11 13  1  0
 13 12  2  0
 12  8  1  0
M  END
$$$$
