No_8656-complexes_sdf/6BKW-FPZ/2024-09-17-14-21-01/
     RDKit          3D

 12 13  0  0  0  0  0  0  0  0999 V2000
   -7.7129    4.2099   27.0854 C   0  0  0  0  0  0  0  0  0  0  0  0
   -8.2112    3.0637   26.9225 C   0  0  0  0  0  0  0  0  0  0  0  0
   -8.5108    5.3904   26.9436 C   0  0  0  0  0  0  0  0  0  0  0  0
   -9.7256    5.1955   26.3518 C   0  0  0  0  0  0  0  0  0  0  0  0
   -7.4704    1.8386   27.3272 C   0  0  0  0  0  0  0  0  0  0  0  0
   -9.4948    2.8714   26.4765 C   0  0  0  0  0  0  0  0  0  0  0  0
  -10.2383    3.9753   26.1836 C   0  0  0  0  0  0  0  0  0  0  0  0
   -6.0792    1.9843   27.7087 C   0  0  0  0  0  0  0  0  0  0  0  0
   -5.3266    0.8321   28.1107 C   0  0  0  0  0  0  0  0  0  0  0  0
   -5.9156   -0.4105   28.0479 C   0  0  0  0  0  0  0  0  0  0  0  0
   -7.8986    0.5255   27.3114 C   0  0  0  0  0  0  0  0  0  0  0  0
   -7.2337   -0.5232   27.7279 C   0  0  0  0  0  0  0  0  0  0  0  0
  2  5  1  0
  1  2  2  0
  2  6  1  0
  6  7  2  0
  7  4  1  0
  4  3  2  0
  3  1  1  0
  5  8  2  0
  8  9  1  0
  9 10  2  0
 10 12  1  0
 12 11  2  0
 11  5  1  0
M  END
$$$$
