No_8341-complexes_sdf/6BKW-FPZ/2024-09-17-14-21-01/
     RDKit          3D

 20 23  0  0  0  0  0  0  0  0999 V2000
   -7.9040    3.9820   27.1177 C   0  0  2  0  0  0  0  0  0  0  0  0
   -7.8663    4.8694   27.9238 C   0  0  0  0  0  0  0  0  0  0  0  0
   -9.0491    3.8523   26.2542 C   0  0  0  0  0  0  0  0  0  0  0  0
   -9.4067    2.6808   25.6532 C   0  0  0  0  0  0  0  0  0  0  0  0
   -8.5275    6.1191   27.7061 C   0  0  0  0  0  0  0  0  0  0  0  0
   -8.8735    1.4981   26.1333 C   0  0  0  0  0  0  0  0  0  0  0  0
   -9.1976    0.2885   25.4991 C   0  0  0  0  0  0  0  0  0  0  0  0
   -9.5458    6.2098   26.7908 C   0  0  0  0  0  0  0  0  0  0  0  0
   -9.8003    5.0291   26.0617 C   0  0  0  0  0  0  0  0  0  0  0  0
   -9.9301    0.3479   24.3407 C   0  0  0  0  0  0  0  0  0  0  0  0
  -10.0610    2.5644   24.4319 C   0  0  0  0  0  0  0  0  0  0  0  0
  -10.3152    1.5027   23.7849 C   0  0  2  0  0  0  0  0  0  0  0  0
   -8.7320   -1.0064   26.0957 C   0  0  0  0  0  0  0  0  0  0  0  0
   -7.7403   -0.9738   26.7682 C   0  0  0  0  0  0  0  0  0  0  0  0
   -7.3187    0.2818   27.5220 C   0  0  0  0  0  0  0  0  0  0  0  0
   -7.8621    1.4019   27.1815 C   0  0  1  0  0  0  0  0  0  0  0  0
   -7.4390    2.7133   27.7778 C   0  0  0  0  0  0  0  0  0  0  0  0
  -11.1424    1.5183   22.5669 C   0  0  0  0  0  0  0  0  0  0  0  0
  -10.6583    1.0555   21.5279 O   0  0  0  0  0  0  0  0  0  0  0  0
  -12.2767    2.0740   22.4501 O   0  0  0  0  0  0  0  0  0  0  0  0
  1  2  1  0
  1  3  1  0
  3  4  1  0
  2  5  2  0
  4  6  2  0
  6  7  1  0
  5  8  1  0
  3  9  1  0
  8  9  2  0
  7 10  2  0
  4 11  1  0
 10 12  1  0
 11 12  1  0
  7 13  1  0
 13 14  2  0
 14 15  1  0
  6 16  1  0
 16 15  1  6
  1 17  1  1
 16 17  1  0
 12 18  1  1
 18 19  2  0
 18 20  1  0
M  END
$$$$
