No_8785-complexes_sdf/6BKW-FPZ/2024-09-17-14-21-01/
     RDKit          3D

 20 21  0  0  0  0  0  0  0  0999 V2000
   -7.9040    3.9820   27.1177 C   0  0  0  0  0  0  0  0  0  0  0  0
   -7.8663    4.8694   27.9238 C   0  0  0  0  0  0  0  0  0  0  0  0
   -9.0491    3.8523   26.2542 C   0  0  0  0  0  0  0  0  0  0  0  0
   -8.7661    5.9491   27.9690 C   0  0  0  0  0  0  0  0  0  0  0  0
   -9.9279    4.8544   26.1938 C   0  0  0  0  0  0  0  0  0  0  0  0
   -9.8044    5.9413   27.0782 C   0  0  0  0  0  0  0  0  0  0  0  0
   -7.0303    2.9453   27.1625 F   0  0  0  0  0  0  0  0  0  0  0  0
   -9.0934    2.7155   25.2752 C   0  0  0  0  0  0  0  0  0  0  0  0
  -10.1705    2.7808   24.3243 C   0  0  0  0  0  0  0  0  0  0  0  0
  -11.0830    1.8840   24.3745 C   0  0  0  0  0  0  0  0  0  0  0  0
  -11.0396    0.7849   24.8430 C   0  0  0  0  0  0  0  0  0  0  0  0
   -9.7657    0.4424   25.5612 C   0  0  0  0  0  0  0  0  0  0  0  0
   -8.8293    1.4146   25.7861 C   0  0  0  0  0  0  0  0  0  0  0  0
  -12.3050    2.1344   23.3878 C   0  0  1  0  0  0  0  0  0  0  0  0
  -13.4227    2.4890   23.9740 C   0  0  0  0  0  0  0  0  0  0  0  0
  -12.1411    2.0909   22.0008 C   0  0  0  0  0  0  0  0  0  0  0  0
  -13.6648    2.6468   25.2542 C   0  0  0  0  0  0  0  0  0  0  0  0
  -14.9471    3.0796   25.8072 C   0  0  0  0  0  0  0  0  0  0  0  0
  -15.1267    3.3033   27.2001 C   0  0  0  0  0  0  0  0  0  0  0  0
  -16.2574    3.7287   27.7658 C   0  0  0  0  0  0  0  0  0  0  0  0
  1  7  1  0
  3  8  1  0
 10 14  1  0
 14 15  1  0
 14 16  1  6
 15 17  2  3
 17 18  1  0
 18 19  2  3
 19 20  1  0
  1  2  2  0
  2  4  1  0
  4  6  2  0
  6  5  1  0
  5  3  2  0
  3  1  1  0
  8  9  2  0
  9 10  1  0
 10 11  2  0
 11 12  1  0
 12 13  2  0
 13  8  1  0
M  END
$$$$
