No_8506-complexes_sdf/6BKW-FPZ/2024-09-17-14-21-01/
     RDKit          3D

 19 21  0  0  0  0  0  0  0  0999 V2000
   -7.9040    3.9820   27.1177 C   0  0  0  0  0  0  0  0  0  0  0  0
   -7.8663    4.8694   27.9238 C   0  0  0  0  0  0  0  0  0  0  0  0
   -9.0491    3.8523   26.2542 C   0  0  0  0  0  0  0  0  0  0  0  0
   -8.7661    5.9491   27.9690 C   0  0  0  0  0  0  0  0  0  0  0  0
   -9.9295    4.8502   26.2323 C   0  0  0  0  0  0  0  0  0  0  0  0
   -9.8077    5.9288   27.0933 C   0  0  0  0  0  0  0  0  0  0  0  0
   -6.9606    2.7994   27.1981 C   0  0  0  0  0  0  0  0  0  0  0  0
   -5.8717    2.9147   27.8925 N   0  0  0  0  0  0  0  0  0  0  0  0
   -7.3747    1.4766   26.8180 C   0  0  0  0  0  0  0  0  0  0  0  0
   -6.4833    0.4692   27.0680 C   0  0  0  0  0  0  0  0  0  0  0  0
   -4.9393    1.9484   28.1192 C   0  0  0  0  0  0  0  0  0  0  0  0
   -5.2675    0.7255   27.7663 C   0  0  0  0  0  0  0  0  0  0  0  0
   -4.3334   -0.3748   28.0306 C   0  0  0  0  0  0  0  0  0  0  0  0
   -4.5806   -1.5044   28.0156 C   0  0  0  0  0  0  0  0  0  0  0  0
   -3.6825   -2.4949   28.4753 C   0  0  0  0  0  0  0  0  0  0  0  0
   -2.3931   -2.1328   28.9034 C   0  0  0  0  0  0  0  0  0  0  0  0
   -3.1086    0.0960   28.6154 C   0  0  0  0  0  0  0  0  0  0  0  0
   -2.1279   -0.7800   29.0191 C   0  0  0  0  0  0  0  0  0  0  0  0
  -10.9015    4.8147   25.3233 F   0  0  0  0  0  0  0  0  0  0  0  0
  1  7  1  0
 12 13  1  0
  5 19  1  0
  7  8  2  0
  8 11  1  0
 11 12  2  0
 12 10  1  0
 10  9  2  0
  9  7  1  0
  1  2  2  0
  2  4  1  0
  4  6  2  0
  6  5  1  0
  5  3  2  0
  3  1  1  0
 13 14  2  0
 14 15  1  0
 15 16  2  0
 16 18  1  0
 18 17  2  0
 17 13  1  0
M  END
$$$$
