No_8750-complexes_sdf/6BKW-FPZ/2024-09-17-14-21-01/
     RDKit          3D

 15 16  0  0  0  0  0  0  0  0999 V2000
   -7.9040    3.9820   27.1177 C   0  0  0  0  0  0  0  0  0  0  0  0
   -7.8663    4.8694   27.9238 C   0  0  0  0  0  0  0  0  0  0  0  0
   -9.0501    3.8017   26.2617 C   0  0  0  0  0  0  0  0  0  0  0  0
   -9.1826    2.7026   25.3575 C   0  0  0  0  0  0  0  0  0  0  0  0
   -8.6940    6.0131   27.8614 C   0  0  0  0  0  0  0  0  0  0  0  0
   -9.9755    4.8547   26.2361 C   0  0  0  0  0  0  0  0  0  0  0  0
   -9.7463    5.9398   27.0364 C   0  0  0  0  0  0  0  0  0  0  0  0
   -8.6902    1.5380   25.7265 N   0  0  0  0  0  0  0  0  0  0  0  0
   -8.5732    0.4756   24.9088 C   0  0  0  0  0  0  0  0  0  0  0  0
   -9.7261    2.8363   24.2513 O   0  0  0  0  0  0  0  0  0  0  0  0
   -7.5447   -0.4135   25.2023 C   0  0  0  0  0  0  0  0  0  0  0  0
   -6.9045   -1.0412   24.2083 C   0  0  0  0  0  0  0  0  0  0  0  0
   -7.3973   -0.9553   22.8279 C   0  0  0  0  0  0  0  0  0  0  0  0
   -8.4123    0.0017   22.5790 C   0  0  0  0  0  0  0  0  0  0  0  0
   -8.8745    0.7522   23.5939 C   0  0  0  0  0  0  0  0  0  0  0  0
  3  4  1  0
  4  8  1  0
  8  9  1  0
  4 10  2  0
  1  2  2  0
  2  5  1  0
  5  7  2  0
  7  6  1  0
  6  3  2  0
  3  1  1  0
  9 11  2  0
 11 12  1  0
 12 13  2  0
 13 14  1  0
 14 15  2  0
 15  9  1  0
M  END
$$$$
