No_891-complexes_sdf/6BKW-FPZ/2024-09-17-14-21-01/
     RDKit          3D

 24 26  0  0  0  0  0  0  0  0999 V2000
   -7.9040    3.9820   27.1177 C   0  0  0  0  0  0  0  0  0  0  0  0
   -9.0711    4.3164   27.0630 C   0  0  0  0  0  0  0  0  0  0  0  0
   -9.5294    5.4517   27.7215 C   0  0  0  0  0  0  0  0  0  0  0  0
   -7.4336    2.7132   26.5681 C   0  0  0  0  0  0  0  0  0  0  0  0
   -8.3353    1.8569   26.0442 C   0  0  0  0  0  0  0  0  0  0  0  0
   -9.6477    2.2853   25.9146 C   0  0  0  0  0  0  0  0  0  0  0  0
  -10.0346    3.4497   26.4483 C   0  0  2  0  0  0  0  0  0  0  0  0
   -7.8750    0.5509   25.5918 C   0  0  0  0  0  0  0  0  0  0  0  0
   -8.4236   -0.3220   25.9782 O   0  0  0  0  0  0  0  0  0  0  0  0
   -6.9245    4.7081   27.8660 N   0  0  0  0  0  0  0  0  0  0  0  0
   -7.2687    5.8787   28.4514 C   0  0  0  0  0  0  0  0  0  0  0  0
   -8.5781    6.2491   28.3337 N   0  0  0  0  0  0  0  0  0  0  0  0
   -6.8868    0.4773   24.7992 O   0  0  0  0  0  0  0  0  0  0  0  0
  -11.4166    3.8704   26.1641 C   0  0  1  0  0  0  0  0  0  0  0  0
  -11.9726    4.0113   25.0374 C   0  0  0  0  0  0  0  0  0  0  0  0
  -11.2435    4.0115   23.8239 C   0  0  0  0  0  0  0  0  0  0  0  0
  -11.8111    4.2810   22.5839 C   0  0  0  0  0  0  0  0  0  0  0  0
  -13.1604    4.4196   22.5082 C   0  0  0  0  0  0  0  0  0  0  0  0
  -13.9446    4.4156   23.6748 C   0  0  0  0  0  0  0  0  0  0  0  0
  -13.3582    4.2909   24.9400 C   0  0  0  0  0  0  0  0  0  0  0  0
  -12.2502    4.0391   27.4396 C   0  0  0  0  0  0  0  0  0  0  0  0
  -12.0222    3.6630   28.5948 C   0  0  0  0  0  0  0  0  0  0  0  0
  -12.9336    3.7356   29.7343 C   0  0  0  0  0  0  0  0  0  0  0  0
  -14.1727    4.3862   29.4918 C   0  0  0  0  0  0  0  0  0  0  0  0
  1  4  1  0
  4  5  1  0
  5  6  1  0
  2  7  1  0
  7  6  1  6
  5  8  1  0
  8  9  2  0
  8 13  1  0
  7 14  1  0
 14 15  1  6
 14 21  1  0
 21 22  2  3
 22 23  1  0
 23 24  2  0
 15 16  2  0
 16 17  1  0
 17 18  2  0
 18 19  1  0
 19 20  2  0
 20 15  1  0
  1  2  1  0
  2  3  2  0
  3 12  1  0
 12 11  2  0
 11 10  1  0
 10  1  2  0
M  END
$$$$
