No_8816-complexes_sdf/6BKW-FPZ/2024-09-17-14-21-01/
     RDKit          3D

 27 30  0  0  0  0  0  0  0  0999 V2000
   -7.9040    3.9820   27.1177 C   0  0  0  0  0  0  0  0  0  0  0  0
   -7.8663    4.8694   27.9238 C   0  0  0  0  0  0  0  0  0  0  0  0
   -7.4547    2.7080   27.4594 C   0  0  0  0  0  0  0  0  0  0  0  0
   -8.0927    6.2909   27.5184 C   0  0  0  0  0  0  0  0  0  0  0  0
   -8.9150    6.5640   26.4331 C   0  0  0  0  0  0  0  0  0  0  0  0
   -7.6563    1.4669   26.7411 C   0  0  0  0  0  0  0  0  0  0  0  0
   -8.5911    4.1595   25.8847 C   0  0  0  0  0  0  0  0  0  0  0  0
   -9.1495    5.4407   25.5619 C   0  0  0  0  0  0  0  0  0  0  0  0
   -7.0785    0.3212   27.0984 C   0  0  0  0  0  0  0  0  0  0  0  0
   -5.9430    0.3390   27.9252 C   0  0  0  0  0  0  0  0  0  0  0  0
   -5.4456    1.6127   28.3895 C   0  0  0  0  0  0  0  0  0  0  0  0
   -6.0562    2.7285   28.0723 C   0  0  0  0  0  0  0  0  0  0  0  0
   -5.2238   -0.9042   28.2384 C   0  0  0  0  0  0  0  0  0  0  0  0
   -4.0179   -1.0347   28.3994 C   0  0  0  0  0  0  0  0  0  0  0  0
   -3.1455    0.1806   28.1849 C   0  0  0  0  0  0  0  0  0  0  0  0
   -3.7050    1.4604   28.2204 C   0  0  0  0  0  0  0  0  0  0  0  0
   -7.7130   -0.8888   26.7362 C   0  0  2  0  0  0  0  0  0  0  0  0
   -8.1669   -0.9983   25.5225 C   0  0  0  0  0  0  0  0  0  0  0  0
   -8.7082   -0.5234   24.7630 C   0  0  0  0  0  0  0  0  0  0  0  0
   -9.1041   -0.8462   23.3951 C   0  0  0  0  0  0  0  0  0  0  0  0
   -8.5949   -2.0080   22.9105 C   0  0  0  0  0  0  0  0  0  0  0  0
   -7.7864   -2.7645   23.7327 C   0  0  0  0  0  0  0  0  0  0  0  0
   -7.4870   -2.3808   24.9892 C   0  0  0  0  0  0  0  0  0  0  0  0
   -8.2567   -1.7545   27.8236 C   0  0  0  0  0  0  0  0  0  0  0  0
   -9.0057   -1.3363   28.7761 C   0  0  0  0  0  0  0  0  0  0  0  0
   -9.5747   -2.1862   29.7871 C   0  0  0  0  0  0  0  0  0  0  0  0
   -9.1724   -3.5471   29.7615 C   0  0  0  0  0  0  0  0  0  0  0  0
  1  3  1  0
 17  9  1  1
 17 18  1  0
 17 24  1  0
 24 25  2  3
 25 26  1  0
 26 27  2  0
 18 19  2  0
 19 20  1  0
 20 21  2  0
 21 22  1  0
 22 23  2  0
 23 18  1  0
  1  2  2  0
  2  4  1  0
  4  5  2  0
  5  8  1  0
  8  7  2  0
  7  1  1  0
  3  6  2  0
  6  9  1  0
  9 10  2  0
 11 12  2  0
 12  3  1  0
 10 11  1  0
 11 16  1  0
 16 15  2  0
 15 14  1  0
 14 13  2  0
 13 10  1  0
M  END
$$$$
