No_8095-complexes_sdf/6BKW-FPZ/2024-09-17-14-21-01/
     RDKit          3D

 22 24  0  0  0  0  0  0  0  0999 V2000
   -7.7129    4.2099   27.0854 C   0  0  0  0  0  0  0  0  0  0  0  0
   -8.2112    3.0637   26.9225 C   0  0  0  0  0  0  0  0  0  0  0  0
   -8.5108    5.3904   26.9436 C   0  0  0  0  0  0  0  0  0  0  0  0
   -9.7256    5.1955   26.3518 C   0  0  0  0  0  0  0  0  0  0  0  0
   -9.4995    2.8258   26.4878 C   0  0  0  0  0  0  0  0  0  0  0  0
  -10.2542    3.9691   26.2055 C   0  0  0  0  0  0  0  0  0  0  0  0
   -7.8124    6.9180   27.2380 Cl  0  0  0  0  0  0  0  0  0  0  0  0
   -7.3581    1.8338   27.2460 C   0  0  0  0  0  0  0  0  0  0  0  0
   -6.1396    2.0101   27.7383 N   0  0  0  0  0  0  0  0  0  0  0  0
   -7.8138    0.5264   27.1767 C   0  0  0  0  0  0  0  0  0  0  0  0
   -5.3507    0.9225   28.0766 C   0  0  0  0  0  0  0  0  0  0  0  0
   -7.0950   -0.5472   27.5986 C   0  0  0  0  0  0  0  0  0  0  0  0
   -3.9424    1.1796   28.6014 C   0  0  0  0  0  0  0  0  0  0  0  0
   -5.8397   -0.3178   28.0891 C   0  0  0  0  0  0  0  0  0  0  0  0
   -3.2383    1.7506   28.0446 O   0  0  0  0  0  0  0  0  0  0  0  0
   -3.5198    0.3072   29.7009 N   0  0  0  0  0  0  0  0  0  0  0  0
  -11.5943    3.8397   25.6066 C   0  0  0  0  0  0  0  0  0  0  0  0
  -12.6402    3.8620   26.4272 C   0  0  0  0  0  0  0  0  0  0  0  0
  -13.9555    3.9791   25.9761 C   0  0  0  0  0  0  0  0  0  0  0  0
  -14.1283    3.9257   24.5725 C   0  0  0  0  0  0  0  0  0  0  0  0
  -11.7952    3.9038   24.2271 C   0  0  0  0  0  0  0  0  0  0  0  0
  -13.0135    3.9693   23.7038 C   0  0  0  0  0  0  0  0  0  0  0  0
  3  7  1  0
  2  8  1  0
 11 13  1  0
 13 15  2  0
 13 16  1  0
  6 17  1  0
  8  9  2  0
  9 11  1  0
 11 14  2  0
 14 12  1  0
 12 10  2  0
 10  8  1  0
  1  2  2  0
  2  5  1  0
  5  6  2  0
  6  4  1  0
  4  3  2  0
  3  1  1  0
 17 18  2  0
 18 19  1  0
 19 20  2  0
 20 22  1  0
 22 21  2  0
 21 17  1  0
M  END
$$$$
