No_8059-complexes_sdf/6BKW-FPZ/2024-09-17-14-21-01/
     RDKit          3D

 15 15  0  0  0  0  0  0  0  0999 V2000
   -7.9040    3.9820   27.1177 C   0  0  0  0  0  0  0  0  0  0  0  0
   -9.0711    4.3164   27.0630 C   0  0  0  0  0  0  0  0  0  0  0  0
   -9.9692    3.7224   26.1073 C   0  0  0  0  0  0  0  0  0  0  0  0
   -6.9787    4.6761   28.1003 C   0  0  0  0  0  0  0  0  0  0  0  0
   -9.4538    2.6801   25.3673 C   0  0  0  0  0  0  0  0  0  0  0  0
   -8.1927    2.1957   25.6621 C   0  0  0  0  0  0  0  0  0  0  0  0
   -7.4333    2.8255   26.6299 C   0  0  0  0  0  0  0  0  0  0  0  0
  -10.3066    1.9975   24.3777 C   0  0  0  0  0  0  0  0  0  0  0  0
   -9.8176    1.1840   23.6477 N   0  0  0  0  0  0  0  0  0  0  0  0
   -9.0788    0.3289   23.7815 C   0  0  0  0  0  0  0  0  0  0  0  0
   -9.1265   -0.5015   24.3497 C   0  0  0  0  0  0  0  0  0  0  0  0
   -8.0918   -1.6053   24.5062 C   0  0  0  0  0  0  0  0  0  0  0  0
   -8.0859   -2.6368   25.4431 C   0  0  0  0  0  0  0  0  0  0  0  0
   -9.2234   -2.6385   26.3075 C   0  0  0  0  0  0  0  0  0  0  0  0
  -10.1617   -1.6183   26.3915 C   0  0  0  0  0  0  0  0  0  0  0  0
  1  4  1  0
  5  8  1  0
  8  9  1  0
  9 10  1  0
 10 11  2  3
 11 12  1  0
 12 13  2  3
 13 14  1  0
 14 15  2  0
  1  2  2  0
  2  3  1  0
  3  5  2  0
  5  6  1  0
  6  7  2  0
  7  1  1  0
M  END
$$$$
