No_8230-complexes_sdf/6BKW-FPZ/2024-09-17-14-21-01/
     RDKit          3D

 31 35  0  0  0  0  0  0  0  0999 V2000
   -7.9040    3.9820   27.1177 C   0  0  0  0  0  0  0  0  0  0  0  0
   -7.8663    4.8694   27.9238 C   0  0  0  0  0  0  0  0  0  0  0  0
   -9.0953    3.1697   27.0532 C   0  0  0  0  0  0  0  0  0  0  0  0
  -10.1313    3.4052   27.8871 C   0  0  0  0  0  0  0  0  0  0  0  0
   -8.9489    5.3814   28.6671 C   0  0  0  0  0  0  0  0  0  0  0  0
  -10.1039    4.5714   28.7102 C   0  0  0  0  0  0  0  0  0  0  0  0
   -9.0505    1.9437   26.1963 C   0  0  0  0  0  0  0  0  0  0  0  0
   -8.3625    0.8150   26.4195 C   0  0  0  0  0  0  0  0  0  0  0  0
   -7.6377    0.6655   27.6320 C   0  0  0  0  0  0  0  0  0  0  0  0
   -6.9140   -0.5239   27.9162 C   0  0  0  0  0  0  0  0  0  0  0  0
   -7.0161   -1.5340   27.0081 C   0  0  0  0  0  0  0  0  0  0  0  0
   -8.2749   -0.1703   25.4227 C   0  0  0  0  0  0  0  0  0  0  0  0
   -7.6042   -1.3787   25.7485 C   0  0  0  0  0  0  0  0  0  0  0  0
   -9.7868    2.1757   24.9808 C   0  0  0  0  0  0  0  0  0  0  0  0
  -10.1599    3.4356   24.6050 C   0  0  0  0  0  0  0  0  0  0  0  0
  -10.7752    3.6666   23.3592 C   0  0  0  0  0  0  0  0  0  0  0  0
  -10.8468    2.6851   22.4353 C   0  0  0  0  0  0  0  0  0  0  0  0
  -10.3687    1.3916   22.7774 C   0  0  0  0  0  0  0  0  0  0  0  0
   -9.7965    1.1724   23.9934 C   0  0  0  0  0  0  0  0  0  0  0  0
   -9.1086    0.0247   24.3251 C   0  0  0  0  0  0  0  0  0  0  0  0
   -9.2172   -0.9708   23.4198 O   0  0  0  0  0  0  0  0  0  0  0  0
  -11.3413    2.5944   27.9456 C   0  0  0  0  0  0  0  0  0  0  0  0
  -12.5681    3.0157   27.4193 C   0  0  0  0  0  0  0  0  0  0  0  0
  -13.6215    2.8921   28.0939 C   0  0  0  0  0  0  0  0  0  0  0  0
  -13.7567    1.8149   28.9363 C   0  0  0  0  0  0  0  0  0  0  0  0
  -12.5732    1.1573   29.4223 C   0  0  0  0  0  0  0  0  0  0  0  0
  -11.4714    2.0178   29.3668 C   0  0  0  0  0  0  0  0  0  0  0  0
  -12.7530    2.5016   25.9820 C   0  0  0  0  0  0  0  0  0  0  0  0
  -13.7276    3.3150   25.2572 C   0  0  0  0  0  0  0  0  0  0  0  0
  -14.2756    2.7351   24.0872 C   0  0  0  0  0  0  0  0  0  0  0  0
  -15.0834    3.5549   23.3233 C   0  0  0  0  0  0  0  0  0  0  0  0
  3  7  1  0
  7  8  1  0
  7 14  1  0
 12 20  1  0
 19 20  1  0
 20 21  2  0
  4 22  1  0
 23 28  1  0
 28 29  1  0
 29 30  2  3
 30 31  1  0
 22 23  2  0
 23 24  1  0
 24 25  2  0
 25 26  1  0
 26 27  2  0
 27 22  1  0
 14 15  2  0
 15 16  1  0
 16 17  2  0
 17 18  1  0
 18 19  2  0
 19 14  1  0
  1  2  2  0
  2  5  1  0
  5  6  2  0
  6  4  1  0
  4  3  2  0
  3  1  1  0
  8  9  2  0
  9 10  1  0
 10 11  2  0
 11 13  1  0
 13 12  2  0
 12  8  1  0
M  END
$$$$
