No_8041-complexes_sdf/6BKW-FPZ/2024-09-17-14-21-01/
     RDKit          3D

 40 45  0  0  0  0  0  0  0  0999 V2000
   -7.7129    4.2099   27.0854 C   0  0  0  0  0  0  0  0  0  0  0  0
   -8.2112    3.0637   26.9225 C   0  0  0  0  0  0  0  0  0  0  0  0
   -7.5138    1.9223   27.4249 C   0  0  0  0  0  0  0  0  0  0  0  0
   -8.5309    5.4147   26.8151 C   0  0  0  0  0  0  0  0  0  0  0  0
   -9.6817    5.2393   26.1100 C   0  0  0  0  0  0  0  0  0  0  0  0
  -10.1032    3.9957   25.8534 C   0  0  0  0  0  0  0  0  0  0  0  0
   -9.4034    2.8430   26.2573 C   0  0  0  0  0  0  0  0  0  0  0  0
   -7.9563    0.5637   27.2536 C   0  0  0  0  0  0  0  0  0  0  0  0
   -7.2253   -0.4662   27.6814 C   0  0  0  0  0  0  0  0  0  0  0  0
   -5.9425   -0.2690   28.2202 C   0  0  0  0  0  0  0  0  0  0  0  0
   -5.3912    1.0279   28.2455 C   0  0  0  0  0  0  0  0  0  0  0  0
   -6.0929    2.0585   27.8334 C   0  0  0  0  0  0  0  0  0  0  0  0
   -7.9808    6.7632   27.0938 C   0  0  0  0  0  0  0  0  0  0  0  0
   -7.1374    6.7927   28.0287 F   0  0  0  0  0  0  0  0  0  0  0  0
   -7.5136    7.5276   26.0820 F   0  0  0  0  0  0  0  0  0  0  0  0
   -9.0801    7.4930   27.5816 F   0  0  0  0  0  0  0  0  0  0  0  0
   -5.1418   -1.4310   28.7180 C   0  0  0  0  0  0  0  0  0  0  0  0
   -4.0875   -1.2706   29.0136 C   0  0  0  0  0  0  0  0  0  0  0  0
   -3.1902   -2.3322   29.5850 C   0  0  0  0  0  0  0  0  0  0  0  0
   -3.7002   -3.5327   29.6252 C   0  0  0  0  0  0  0  0  0  0  0  0
   -5.5141   -2.7878   28.7911 C   0  0  0  0  0  0  0  0  0  0  0  0
   -4.9015   -3.7680   29.2519 C   0  0  0  0  0  0  0  0  0  0  0  0
  -11.3633    3.8623   25.0737 C   0  0  0  0  0  0  0  0  0  0  0  0
  -11.2510    3.2991   23.8440 C   0  0  0  0  0  0  0  0  0  0  0  0
  -12.1828    3.3991   22.9614 C   0  0  0  0  0  0  0  0  0  0  0  0
  -13.4481    4.0192   23.3308 C   0  0  0  0  0  0  0  0  0  0  0  0
  -13.5774    4.5899   24.6155 C   0  0  0  0  0  0  0  0  0  0  0  0
  -12.5145    4.6015   25.5049 C   0  0  0  0  0  0  0  0  0  0  0  0
  -14.8478    5.2633   24.9956 C   0  0  0  0  0  0  0  0  0  0  0  0
  -15.1183    5.4782   26.3569 C   0  0  0  0  0  0  0  0  0  0  0  0
  -16.2768    6.1897   26.7689 C   0  0  0  0  0  0  0  0  0  0  0  0
  -16.5051    6.4246   28.1618 C   0  0  0  0  0  0  0  0  0  0  0  0
  -15.5546    5.8807   29.1165 C   0  0  0  0  0  0  0  0  0  0  0  0
  -14.4473    5.2004   28.6761 C   0  0  0  0  0  0  0  0  0  0  0  0
  -14.1688    5.0517   27.3228 C   0  0  0  0  0  0  0  0  0  0  0  0
  -12.8736    4.5151   26.8334 C   0  0  0  0  0  0  0  0  0  0  0  0
  -15.9338    5.1830   24.1326 C   0  0  0  0  0  0  0  0  0  0  0  0
  -16.9409    5.8563   24.2286 C   0  0  0  0  0  0  0  0  0  0  0  0
  -17.2627    6.3159   25.7328 C   0  0  0  0  0  0  0  0  0  0  0  0
  -18.3763    6.9427   25.9988 F   0  0  0  0  0  0  0  0  0  0  0  0
  2  3  1  0
  4 13  1  0
 13 14  1  0
 13 15  1  0
 13 16  1  0
 10 17  1  0
  6 23  1  0
 29 37  1  0
 37 38  2  0
 31 39  1  0
 39 40  1  0
 17 18  2  0
 18 19  1  0
 19 20  2  0
 20 22  1  0
 22 21  2  0
 21 17  1  0
 23 24  2  0
 24 25  1  0
 25 26  2  0
 26 27  1  0
 28 23  1  0
  1  2  2  0
  2  7  1  0
  7  6  2  0
  6  5  1  0
  5  4  2  0
  4  1  1  0
 30 31  1  0
 31 32  2  0
 32 33  1  0
 33 34  2  0
 34 35  1  0
 27 28  2  0
 28 36  1  0
 36 35  2  0
 35 30  1  0
 30 29  2  0
 29 27  1  0
  3  8  2  0
  8  9  1  0
  9 10  2  0
 10 11  1  0
 11 12  2  0
 12  3  1  0
M  END
$$$$
