No_8522-complexes_sdf/6BKW-FPZ/2024-09-17-14-21-01/
     RDKit          3D

 15 16  0  0  0  0  0  0  0  0999 V2000
   -7.9040    3.9820   27.1177 C   0  0  0  0  0  0  0  0  0  0  0  0
   -7.8663    4.8694   27.9238 C   0  0  0  0  0  0  0  0  0  0  0  0
   -9.0953    3.1697   27.0532 C   0  0  0  0  0  0  0  0  0  0  0  0
  -10.1313    3.4052   27.8871 C   0  0  0  0  0  0  0  0  0  0  0  0
   -8.9489    5.3814   28.6671 C   0  0  0  0  0  0  0  0  0  0  0  0
  -10.1039    4.5714   28.7102 C   0  0  0  0  0  0  0  0  0  0  0  0
   -9.0441    1.9400   26.2104 C   0  0  0  0  0  0  0  0  0  0  0  0
   -8.4388    0.7762   26.4940 C   0  0  0  0  0  0  0  0  0  0  0  0
   -8.3712   -0.2570   25.6347 C   0  0  0  0  0  0  0  0  0  0  0  0
   -9.6553    2.0591   24.9651 C   0  0  0  0  0  0  0  0  0  0  0  0
   -9.6107    1.0783   24.0031 C   0  0  0  0  0  0  0  0  0  0  0  0
   -8.9287   -0.1050   24.3736 C   0  0  0  0  0  0  0  0  0  0  0  0
  -11.3077    2.5692   27.9196 C   0  0  0  0  0  0  0  0  0  0  0  0
  -11.3646    1.4304   28.0956 C   0  0  0  0  0  0  0  0  0  0  0  0
  -12.5208    0.5658   28.2108 C   0  0  0  0  0  0  0  0  0  0  0  0
  3  7  1  0
  4 13  1  0
 13 14  2  3
 14 15  1  0
  1  2  2  0
  2  5  1  0
  5  6  2  0
  6  4  1  0
  4  3  2  0
  3  1  1  0
  7  8  2  0
  8  9  1  0
  9 12  2  0
 12 11  1  0
 11 10  2  0
 10  7  1  0
M  END
$$$$
