No_8921-complexes_sdf/6BKW-FPZ/2024-09-17-14-21-01/
     RDKit          3D

 30 34  0  0  0  0  0  0  0  0999 V2000
   -7.2496    3.8871   27.4508 C   0  0  0  0  0  0  0  0  0  0  0  0
   -7.6161    2.7143   27.1523 C   0  0  0  0  0  0  0  0  0  0  0  0
   -7.1619    1.8631   27.5232 C   0  0  0  0  0  0  0  0  0  0  0  0
   -5.9773    4.1571   28.0182 C   0  0  0  0  0  0  0  0  0  0  0  0
   -5.7613    1.7985   28.0431 C   0  0  0  0  0  0  0  0  0  0  0  0
   -5.0420    0.7273   28.3219 N   0  0  0  0  0  0  0  0  0  0  0  0
   -5.2343    3.1418   28.2838 C   0  0  0  0  0  0  0  0  0  0  0  0
   -5.4835   -0.5259   28.4463 C   0  0  0  0  0  0  0  0  0  0  0  0
   -4.6446   -1.4570   29.0603 C   0  0  0  0  0  0  0  0  0  0  0  0
   -3.6782    0.8131   28.7637 C   0  0  0  0  0  0  0  0  0  0  0  0
   -3.3971   -0.5937   29.1905 C   0  0  0  0  0  0  0  0  0  0  0  0
   -8.1014    5.1689   27.1034 C   0  0  0  0  0  0  0  0  0  0  0  0
   -7.9412    6.4117   27.8021 C   0  0  0  0  0  0  0  0  0  0  0  0
   -9.0248    5.0959   26.0437 C   0  0  0  0  0  0  0  0  0  0  0  0
   -8.4113    7.3997   27.1526 N   0  0  0  0  0  0  0  0  0  0  0  0
   -9.5968    3.9257   25.6541 C   0  0  0  0  0  0  0  0  0  0  0  0
   -8.9043    2.6397   26.2377 C   0  0  0  0  0  0  0  0  0  0  0  0
   -9.3399    1.3871   25.6985 C   0  0  1  0  0  0  0  0  0  0  0  0
  -10.0148    0.6146   26.3721 N   0  0  0  0  0  0  0  0  0  0  0  0
   -9.7892   -0.6251   26.6379 C   0  0  0  0  0  0  0  0  0  0  0  0
  -10.5954   -1.3623   27.6472 C   0  0  0  0  0  0  0  0  0  0  0  0
  -11.2173    1.1779   27.0646 C   0  0  0  0  0  0  0  0  0  0  0  0
  -11.9552    0.4545   28.0555 C   0  0  0  0  0  0  0  0  0  0  0  0
  -11.5895   -0.8474   28.3172 C   0  0  0  0  0  0  0  0  0  0  0  0
   -9.9467    1.4904   24.3475 C   0  0  0  0  0  0  0  0  0  0  0  0
   -9.3050    0.8569   23.2977 C   0  0  0  0  0  0  0  0  0  0  0  0
   -9.7574    0.9250   21.9956 C   0  0  0  0  0  0  0  0  0  0  0  0
  -10.8519    1.7278   21.6936 C   0  0  0  0  0  0  0  0  0  0  0  0
  -11.5059    2.3867   22.7429 C   0  0  0  0  0  0  0  0  0  0  0  0
  -11.0355    2.3151   24.0363 C   0  0  0  0  0  0  0  0  0  0  0  0
  5  6  1  0
  6  8  1  0
  8  9  2  0
  6 10  1  0
  9 11  1  0
 10 11  2  0
 12 13  1  0
 13 15  1  0
 17 18  1  0
 18 19  1  1
 19 20  1  0
 19 22  1  0
 21 24  1  0
 23 24  1  0
 18 25  1  0
 20 21  1  0
 23 22  1  0
  2 17  1  0
 17 16  2  0
 16 14  1  0
 14 12  2  0
 12  1  1  0
 25 26  2  0
 26 27  1  0
 27 28  2  0
 28 29  1  0
 29 30  2  0
 30 25  1  0
  1  2  1  0
  2  3  2  0
  3  5  1  0
  5  7  2  0
  7  4  1  0
  4  1  2  0
M  END
$$$$
