No_8345-complexes_sdf/6BKW-FPZ/2024-09-17-14-21-01/
     RDKit          3D

 22 25  0  0  0  0  0  0  0  0999 V2000
   -7.7129    4.2099   27.0854 C   0  0  0  0  0  0  0  0  0  0  0  0
   -8.9133    4.4736   27.0998 C   0  0  0  0  0  0  0  0  0  0  0  0
   -9.8363    3.8127   27.2418 C   0  0  0  0  0  0  0  0  0  0  0  0
   -7.2995    2.8520   27.3808 C   0  0  0  0  0  0  0  0  0  0  0  0
   -8.3404    1.9507   27.4989 C   0  0  0  0  0  0  0  0  0  0  0  0
   -9.6166    2.3791   27.4719 C   0  0  0  0  0  0  0  0  0  0  0  0
   -9.1653    6.0330   26.9186 C   0  0  0  0  0  0  0  0  0  0  0  0
   -8.1624    6.6010   27.4092 F   0  0  0  0  0  0  0  0  0  0  0  0
   -9.2337    6.3412   25.5963 F   0  0  0  0  0  0  0  0  0  0  0  0
  -10.2573    6.4078   27.5344 F   0  0  0  0  0  0  0  0  0  0  0  0
   -7.9816    0.5259   27.6566 C   0  0  0  0  0  0  0  0  0  0  0  0
   -9.0043   -0.4379   27.6760 C   0  0  0  0  0  0  0  0  0  0  0  0
   -8.6773   -1.7773   27.9140 C   0  0  0  0  0  0  0  0  0  0  0  0
   -7.3347   -2.1123   28.0736 C   0  0  0  0  0  0  0  0  0  0  0  0
   -6.6153   -0.0489   27.7217 C   0  0  0  0  0  0  0  0  0  0  0  0
   -6.3097   -1.2191   27.9264 C   0  0  0  0  0  0  0  0  0  0  0  0
   -9.7980   -2.7241   28.1019 C   0  0  0  0  0  0  0  0  0  0  0  0
  -10.9459   -2.3184   27.6886 C   0  0  0  0  0  0  0  0  0  0  0  0
  -11.2719   -0.9817   27.4393 C   0  0  0  0  0  0  0  0  0  0  0  0
  -10.2749   -0.0509   27.3734 C   0  0  0  0  0  0  0  0  0  0  0  0
  -10.6734    1.4247   27.4329 C   0  0  0  0  0  0  0  0  0  0  0  0
  -11.8907    1.7453   27.3608 O   0  0  0  0  0  0  0  0  0  0  0  0
  2  7  1  0
  7  8  1  0
  7  9  1  0
  7 10  1  0
  5 11  1  0
  6 21  1  0
 20 21  1  0
 21 22  2  0
 11 15  2  0
 15 16  1  0
 16 14  2  0
 14 13  1  0
 12 11  1  0
  1  2  2  0
  2  3  1  0
  3  6  2  0
  6  5  1  0
  5  4  2  0
  4  1  1  0
 12 13  2  0
 13 17  1  0
 17 18  2  0
 18 19  1  0
 19 20  2  0
 20 12  1  0
M  END
$$$$
