No_8168-complexes_sdf/6BKW-FPZ/2024-09-17-14-21-01/
     RDKit          3D

 13 14  0  0  0  0  0  0  0  0999 V2000
   -7.9040    3.9820   27.1177 C   0  0  0  0  0  0  0  0  0  0  0  0
   -8.2057    2.8231   26.8733 C   0  0  0  0  0  0  0  0  0  0  0  0
   -8.7695    5.0740   26.7916 C   0  0  0  0  0  0  0  0  0  0  0  0
   -9.9618    4.7598   26.1630 C   0  0  0  0  0  0  0  0  0  0  0  0
   -7.3763    1.7038   27.3414 C   0  0  0  0  0  0  0  0  0  0  0  0
   -9.4134    2.4504   26.3004 C   0  0  0  0  0  0  0  0  0  0  0  0
  -10.2558    3.4522   25.9218 C   0  0  0  0  0  0  0  0  0  0  0  0
   -7.6631    0.3345   27.2251 C   0  0  0  0  0  0  0  0  0  0  0  0
   -8.9575    0.1218   26.6311 C   0  0  0  0  0  0  0  0  0  0  0  0
   -9.8059    1.1314   26.1520 C   0  0  0  0  0  0  0  0  0  0  0  0
   -8.3890    6.5153   27.0448 C   0  0  0  0  0  0  0  0  0  0  0  0
   -7.6982    6.9554   28.0206 N   0  0  0  0  0  0  0  0  0  0  0  0
   -8.8297    7.4151   26.2328 O   0  0  0  0  0  0  0  0  0  0  0  0
  3 11  1  0
 11 12  1  0
 11 13  2  0
  1  2  2  0
  6  7  2  0
  7  4  1  0
  4  3  2  0
  3  1  1  0
  2  5  1  0
  5  8  2  0
  8  9  1  0
  9 10  2  0
 10  6  1  0
  6  2  1  0
M  END
$$$$
