No_872-complexes_sdf/6BKW-FPZ/2024-09-17-14-21-01/
     RDKit          3D

 14 15  0  0  0  0  0  0  0  0999 V2000
   -7.7129    4.2099   27.0854 C   0  0  0  0  0  0  0  0  0  0  0  0
   -8.9133    4.4736   27.0998 C   0  0  0  0  0  0  0  0  0  0  0  0
   -9.8363    3.8127   27.2418 C   0  0  0  0  0  0  0  0  0  0  0  0
   -7.2995    2.8520   27.3808 C   0  0  0  0  0  0  0  0  0  0  0  0
   -8.3404    1.9507   27.4989 C   0  0  0  0  0  0  0  0  0  0  0  0
   -9.6166    2.3791   27.4719 C   0  0  0  0  0  0  0  0  0  0  0  0
   -9.2080    6.2702   26.9004 Cl  0  0  0  0  0  0  0  0  0  0  0  0
   -8.0263    0.5055   27.6797 C   0  0  0  0  0  0  0  0  0  0  0  0
   -6.7252    0.0658   27.6940 C   0  0  0  0  0  0  0  0  0  0  0  0
   -6.4164   -1.2704   27.9172 C   0  0  0  0  0  0  0  0  0  0  0  0
   -7.4843   -2.1260   28.1284 C   0  0  0  0  0  0  0  0  0  0  0  0
   -9.0483   -0.4698   27.9006 C   0  0  0  0  0  0  0  0  0  0  0  0
   -8.7882   -1.7113   28.1662 C   0  0  0  0  0  0  0  0  0  0  0  0
  -11.2063    4.0601   27.5862 F   0  0  0  0  0  0  0  0  0  0  0  0
  2  7  1  0
  5  8  1  0
  3 14  1  0
  1  2  2  0
  2  3  1  0
  3  6  2  0
  6  5  1  0
  5  4  2  0
  4  1  1  0
  8  9  2  0
  9 10  1  0
 10 11  2  0
 11 13  1  0
 13 12  2  0
 12  8  1  0
M  END
$$$$
