No_8518-complexes_sdf/6BKW-FPZ/2024-09-17-14-21-01/
     RDKit          3D

 24 26  0  0  0  0  0  0  0  0999 V2000
   -7.7129    4.2099   27.0854 C   0  0  0  0  0  0  0  0  0  0  0  0
   -8.2112    3.0637   26.9225 C   0  0  0  0  0  0  0  0  0  0  0  0
   -9.4446    2.8304   26.1868 C   0  0  0  0  0  0  0  0  0  0  0  0
   -8.4697    5.3956   26.7238 C   0  0  0  0  0  0  0  0  0  0  0  0
   -8.0091    6.7588   26.9904 C   0  0  0  0  0  0  0  0  0  0  0  0
  -10.1208    3.9213   25.7408 C   0  0  0  0  0  0  0  0  0  0  0  0
   -9.5939    5.2026   25.9665 C   0  0  0  0  0  0  0  0  0  0  0  0
   -8.6060    7.8403   26.5809 N   0  0  0  0  0  0  0  0  0  0  0  0
   -7.2224    6.8378   28.1200 O   0  0  0  0  0  0  0  0  0  0  0  0
   -7.4617    1.8147   27.3706 C   0  0  0  0  0  0  0  0  0  0  0  0
   -6.8434    0.9891   26.6265 C   0  0  0  0  0  0  0  0  0  0  0  0
   -6.3963   -0.1416   27.1444 C   0  0  0  0  0  0  0  0  0  0  0  0
   -5.7318   -0.2370   28.2674 C   0  0  0  0  0  0  0  0  0  0  0  0
   -5.6910    0.9957   29.0399 C   0  0  0  0  0  0  0  0  0  0  0  0
   -6.4639    2.0491   28.5703 C   0  0  0  0  0  0  0  0  0  0  0  0
   -4.8746   -1.3351   28.7242 C   0  0  1  0  0  0  0  0  0  0  0  0
   -3.6729   -1.3582   28.9682 C   0  0  0  0  0  0  0  0  0  0  0  0
   -2.9075   -2.4788   29.4619 C   0  0  0  0  0  0  0  0  0  0  0  0
   -1.5678   -2.3816   29.7392 C   0  0  0  0  0  0  0  0  0  0  0  0
   -0.8492   -1.2371   29.4202 C   0  0  0  0  0  0  0  0  0  0  0  0
   -1.5257   -0.1282   28.8704 C   0  0  0  0  0  0  0  0  0  0  0  0
   -2.8475   -0.1334   28.6703 C   0  0  0  0  0  0  0  0  0  0  0  0
   -5.7183   -2.5263   28.9946 C   0  0  0  0  0  0  0  0  0  0  0  0
   -6.2240   -2.8058   30.2151 C   0  0  0  0  0  0  0  0  0  0  0  0
  4  5  1  0
  5  8  2  0
  5  9  1  0
  2 10  1  0
 13 16  1  0
 16 23  1  1
 23 24  3  0
 16 17  1  0
  1  2  2  0
  2  3  1  0
  3  6  2  0
  6  7  1  0
  7  4  2  0
  4  1  1  0
 17 18  2  0
 18 19  1  0
 19 20  2  0
 20 21  1  0
 21 22  2  0
 22 17  1  0
 10 11  2  0
 11 12  1  0
 12 13  2  0
 13 14  1  0
 14 15  2  0
 15 10  1  0
M  END
$$$$
