No_8878-complexes_sdf/6BKW-FPZ/2024-09-17-14-21-01/
     RDKit          3D

 19 20  0  0  0  0  0  0  0  0999 V2000
   -7.9040    3.9820   27.1177 C   0  0  0  0  0  0  0  0  0  0  0  0
   -7.8663    4.8694   27.9238 C   0  0  0  0  0  0  0  0  0  0  0  0
   -9.0953    3.1697   27.0532 C   0  0  0  0  0  0  0  0  0  0  0  0
  -10.1313    3.4052   27.8871 C   0  0  0  0  0  0  0  0  0  0  0  0
   -8.9489    5.3814   28.6671 C   0  0  0  0  0  0  0  0  0  0  0  0
  -10.1039    4.5714   28.7102 C   0  0  0  0  0  0  0  0  0  0  0  0
   -9.0505    1.9437   26.1963 C   0  0  2  0  0  0  0  0  0  0  0  0
   -8.3625    0.8150   26.4195 C   0  0  0  0  0  0  0  0  0  0  0  0
   -7.6377    0.6655   27.6320 C   0  0  0  0  0  0  0  0  0  0  0  0
   -6.9140   -0.5239   27.9162 C   0  0  0  0  0  0  0  0  0  0  0  0
   -6.1487   -0.6567   29.0658 C   0  0  0  0  0  0  0  0  0  0  0  0
   -8.2716   -0.1397   25.4165 C   0  0  0  0  0  0  0  0  0  0  0  0
   -7.5196   -1.3214   25.6432 C   0  0  0  0  0  0  0  0  0  0  0  0
   -6.8238   -1.4857   26.8742 C   0  0  0  0  0  0  0  0  0  0  0  0
   -9.8217    2.1982   24.9889 C   0  0  0  0  0  0  0  0  0  0  0  0
  -10.0253    3.4403   24.5329 C   0  0  0  0  0  0  0  0  0  0  0  0
  -10.7356    3.7018   23.3060 C   0  0  0  0  0  0  0  0  0  0  0  0
  -10.9468    2.6834   22.4380 C   0  0  0  0  0  0  0  0  0  0  0  0
  -10.5932    1.3600   22.8606 C   0  0  0  0  0  0  0  0  0  0  0  0
  7  3  1  6
  7  8  1  0
 10 11  1  0
  7 15  1  0
 15 16  2  3
 16 17  1  0
 17 18  2  3
 18 19  1  0
  8  9  2  0
  9 10  1  0
 10 14  2  0
 14 13  1  0
 13 12  2  0
 12  8  1  0
  1  2  2  0
  2  5  1  0
  5  6  2  0
  6  4  1  0
  4  3  2  0
  3  1  1  0
M  END
$$$$
