No_8052-complexes_sdf/6BKW-FPZ/2024-09-17-14-21-01/
     RDKit          3D

 27 29  0  0  0  0  0  0  0  0999 V2000
   -7.2496    3.8871   27.4508 C   0  0  0  0  0  0  0  0  0  0  0  0
   -8.5096    4.0291   27.2770 C   0  0  0  0  0  0  0  0  0  0  0  0
   -9.2677    5.1714   27.5773 C   0  0  0  0  0  0  0  0  0  0  0  0
   -6.5711    2.6400   27.2842 C   0  0  0  0  0  0  0  0  0  0  0  0
   -7.2939    1.5094   27.0532 C   0  0  1  0  0  0  0  0  0  0  0  0
   -8.6122    1.6580   26.7575 C   0  0  2  0  0  0  0  0  0  0  0  0
   -9.2984    2.8495   26.9904 C   0  0  0  0  0  0  0  0  0  0  0  0
   -9.2193    6.1529   26.7038 C   0  0  0  0  0  0  0  0  0  0  0  0
   -6.5784    0.2706   26.8850 C   0  0  0  0  0  0  0  0  0  0  0  0
   -6.7086   -0.4951   26.1160 O   0  0  0  0  0  0  0  0  0  0  0  0
   -5.6265    0.0371   28.0029 N   0  0  0  0  0  0  0  0  0  0  0  0
   -4.8953   -1.1697   28.1099 C   0  0  0  0  0  0  0  0  0  0  0  0
   -4.2540   -1.0814   29.1521 C   0  0  0  0  0  0  0  0  0  0  0  0
   -3.9582   -0.4950   29.9181 C   0  0  0  0  0  0  0  0  0  0  0  0
   -4.3988    0.9800   29.7526 C   0  0  0  0  0  0  0  0  0  0  0  0
   -5.1837    1.0831   28.7599 C   0  0  0  0  0  0  0  0  0  0  0  0
   -9.1455    5.9514   25.3794 C   0  0  0  0  0  0  0  0  0  0  0  0
   -8.7094    7.4988   27.1610 C   0  0  0  0  0  0  0  0  0  0  0  0
   -2.9991   -0.5706   31.1661 C   0  0  0  0  0  0  0  0  0  0  0  0
   -3.0336    0.2022   32.0683 O   0  0  0  0  0  0  0  0  0  0  0  0
   -2.1511   -1.5620   31.1948 O   0  0  0  0  0  0  0  0  0  0  0  0
   -9.4301    0.4879   26.4085 C   0  0  0  0  0  0  0  0  0  0  0  0
  -10.5761    0.4282   26.3880 C   0  0  0  0  0  0  0  0  0  0  0  0
  -11.3507   -0.7617   26.0647 C   0  0  0  0  0  0  0  0  0  0  0  0
  -10.6094   -1.8462   25.7126 C   0  0  0  0  0  0  0  0  0  0  0  0
   -9.2443   -1.8325   25.7136 C   0  0  0  0  0  0  0  0  0  0  0  0
   -8.5989   -0.6929   26.0831 C   0  0  0  0  0  0  0  0  0  0  0  0
  1  2  1  0
  2  3  2  3
  1  4  1  0
  4  5  1  0
  5  6  1  0
  2  7  1  0
  6  7  1  0
  3  8  1  0
  5  9  1  6
  9 10  2  0
  9 11  1  0
 11 12  1  0
 13 14  1  0
 11 16  1  0
 15 16  1  0
  8 17  1  0
  8 18  1  0
 14 19  1  0
 19 20  2  0
 19 21  1  0
  6 22  1  1
 12 13  1  0
 14 15  1  0
 22 23  2  0
 23 24  1  0
 24 25  2  0
 25 26  1  0
 26 27  2  0
 27 22  1  0
M  END
$$$$
