No_8017-complexes_sdf/6BKW-FPZ/2024-09-17-14-21-01/
     RDKit          3D

  7  7  0  0  0  0  0  0  0  0999 V2000
   -7.2496    3.8871   27.4508 C   0  0  0  0  0  0  0  0  0  0  0  0
   -7.9379    4.9063   27.8518 C   0  0  0  0  0  0  0  0  0  0  0  0
   -9.3460    4.8223   27.8695 C   0  0  0  0  0  0  0  0  0  0  0  0
   -7.8014    2.6429   27.3269 C   0  0  0  0  0  0  0  0  0  0  0  0
   -9.2214    2.5325   27.3397 C   0  0  0  0  0  0  0  0  0  0  0  0
   -9.9608    3.6396   27.6640 C   0  0  0  0  0  0  0  0  0  0  0  0
   -6.8593    1.3077   26.8772 Cl  0  0  0  0  0  0  0  0  0  0  0  0
  4  7  1  0
  1  2  2  0
  2  3  1  0
  3  6  2  0
  6  5  1  0
  5  4  2  0
  4  1  1  0
M  END
$$$$
