No_8636-complexes_sdf/6BKW-FPZ/2024-09-17-14-21-01/
     RDKit          3D

 24 25  0  0  0  0  0  0  0  0999 V2000
   -7.2496    3.8871   27.4508 C   0  0  0  0  0  0  0  0  0  0  0  0
   -7.6161    2.7143   27.1523 C   0  0  0  0  0  0  0  0  0  0  0  0
   -8.6212    2.2239   26.4073 C   0  0  0  0  0  0  0  0  0  0  0  0
   -8.2540    4.9237   27.1711 C   0  0  0  0  0  0  0  0  0  0  0  0
   -9.3729    4.5806   26.4433 C   0  0  0  0  0  0  0  0  0  0  0  0
   -9.5830    3.2969   26.1026 C   0  0  0  0  0  0  0  0  0  0  0  0
   -8.1513    6.3337   27.5484 C   0  0  0  0  0  0  0  0  0  0  0  0
   -8.3059    7.2672   26.5193 C   0  0  0  0  0  0  0  0  0  0  0  0
   -8.8692    0.8813   26.0546 C   0  0  0  0  0  0  0  0  0  0  0  0
   -8.9837   -0.1101   26.9279 C   0  0  0  0  0  0  0  0  0  0  0  0
   -8.9355    0.2608   28.3777 C   0  0  0  0  0  0  0  0  0  0  0  0
   -9.9625   -1.1415   26.6606 C   0  0  0  0  0  0  0  0  0  0  0  0
  -10.3723   -1.5618   25.8437 C   0  0  0  0  0  0  0  0  0  0  0  0
  -11.2309   -2.7498   25.6719 C   0  0  0  0  0  0  0  0  0  0  0  0
  -11.5247   -3.3716   26.8260 C   0  0  0  0  0  0  0  0  0  0  0  0
  -11.0702   -2.9552   28.0326 C   0  0  0  0  0  0  0  0  0  0  0  0
  -10.2558   -1.8629   28.1290 C   0  0  0  0  0  0  0  0  0  0  0  0
   -8.5938    0.5431   24.6577 C   0  0  0  0  0  0  0  0  0  0  0  0
   -9.4653    0.8931   23.6132 C   0  0  1  0  0  0  0  0  0  0  0  0
  -10.2885    1.9447   23.6795 C   0  0  0  0  0  0  0  0  0  0  0  0
  -11.1208    2.2971   22.5772 C   0  0  0  0  0  0  0  0  0  0  0  0
  -11.9935    3.3905   22.6125 C   0  0  0  0  0  0  0  0  0  0  0  0
   -9.4031    0.2572   22.3757 C   0  0  0  0  0  0  0  0  0  0  0  0
  -10.1863    0.4986   21.2997 C   0  0  0  0  0  0  0  0  0  0  0  0
  4  7  1  0
  7  8  1  0
  3  9  1  0
  9 10  2  3
 10 11  1  0
 10 12  1  0
  9 18  1  0
 19 18  1  6
 19 20  1  0
 20 21  2  3
 21 22  1  0
 19 23  1  0
 23 24  2  0
 12 13  2  0
 13 14  1  0
 14 15  2  0
 15 16  1  0
 16 17  2  0
 17 12  1  0
  1  2  2  0
  2  3  1  0
  3  6  2  0
  6  5  1  0
  5  4  2  0
  4  1  1  0
M  END
$$$$
