No_8509-complexes_sdf/6BKW-FPZ/2024-09-17-14-21-01/
     RDKit          3D

 15 15  0  0  0  0  0  0  0  0999 V2000
   -7.9040    3.9820   27.1177 C   0  0  0  0  0  0  0  0  0  0  0  0
   -8.2057    2.8231   26.8733 C   0  0  0  0  0  0  0  0  0  0  0  0
   -8.7695    5.0740   26.7916 C   0  0  0  0  0  0  0  0  0  0  0  0
   -9.9618    4.7598   26.1630 C   0  0  0  0  0  0  0  0  0  0  0  0
   -7.3763    1.7038   27.3414 C   0  0  0  0  0  0  0  0  0  0  0  0
   -9.4562    2.5223   26.2873 C   0  0  0  0  0  0  0  0  0  0  0  0
  -10.2710    3.4837   25.9308 C   0  0  0  0  0  0  0  0  0  0  0  0
   -6.4209    2.0689   28.1348 F   0  0  0  0  0  0  0  0  0  0  0  0
   -7.5694    0.3812   27.0551 C   0  0  1  0  0  0  0  0  0  0  0  0
   -8.6988   -0.6089   26.4099 Br  0  0  0  0  0  0  0  0  0  0  0  0
   -8.3889    6.5110   27.0853 C   0  0  0  0  0  0  0  0  0  0  0  0
   -8.6298    7.4975   26.3706 N   0  0  0  0  0  0  0  0  0  0  0  0
   -7.3696    6.6205   28.0261 N   0  0  0  0  0  0  0  0  0  0  0  0
   -6.2047   -0.3176   27.3294 C   0  0  0  0  0  0  0  0  0  0  0  0
   -5.2600    0.2218   27.5914 C   0  0  0  0  0  0  0  0  0  0  0  0
  2  5  1  0
  5  8  1  0
  5  9  1  0
  9 10  1  6
  3 11  1  0
 11 12  2  0
 11 13  1  0
  9 14  1  0
 14 15  1  0
  1  2  2  0
  2  6  1  0
  6  7  2  0
  7  4  1  0
  4  3  2  0
  3  1  1  0
M  END
$$$$
