No_8126-complexes_sdf/6BKW-FPZ/2024-09-17-14-21-01/
     RDKit          3D

 15 16  0  0  0  0  0  0  0  0999 V2000
   -7.2496    3.8871   27.4508 C   0  0  0  0  0  0  0  0  0  0  0  0
   -7.6161    2.7143   27.1523 C   0  0  0  0  0  0  0  0  0  0  0  0
   -8.8302    2.4659   26.5056 C   0  0  0  0  0  0  0  0  0  0  0  0
   -6.1096    4.2818   28.2555 C   0  0  0  0  0  0  0  0  0  0  0  0
   -9.6582    3.4917   26.1916 C   0  0  0  0  0  0  0  0  0  0  0  0
   -9.2732    4.7986   26.5150 C   0  0  0  0  0  0  0  0  0  0  0  0
   -8.1018    5.0187   27.2056 C   0  0  0  0  0  0  0  0  0  0  0  0
  -10.9065    3.3510   25.4123 C   0  0  0  0  0  0  0  0  0  0  0  0
  -12.0492    3.3039   26.0347 C   0  0  0  0  0  0  0  0  0  0  0  0
  -13.3201    3.2417   25.3305 C   0  0  0  0  0  0  0  0  0  0  0  0
  -13.2737    3.2248   23.9528 C   0  0  0  0  0  0  0  0  0  0  0  0
  -10.9298    3.3772   24.0402 C   0  0  0  0  0  0  0  0  0  0  0  0
  -12.0197    3.3392   23.3020 C   0  0  0  0  0  0  0  0  0  0  0  0
   -6.8157    1.2309   27.4678 Cl  0  0  0  0  0  0  0  0  0  0  0  0
   -7.7481    6.2270   27.5608 F   0  0  0  0  0  0  0  0  0  0  0  0
  1  4  1  0
  5  8  1  0
  2 14  1  0
  7 15  1  0
  8  9  2  0
  9 10  1  0
 10 11  2  0
 11 13  1  0
 13 12  2  0
 12  8  1  0
  1  2  2  0
  2  3  1  0
  3  5  2  0
  5  6  1  0
  6  7  2  0
  7  1  1  0
M  END
$$$$
