No_8278-complexes_sdf/6BKW-FPZ/2024-09-17-14-21-01/
     RDKit          3D

 24 27  0  0  0  0  0  0  0  0999 V2000
   -7.9040    3.9820   27.1177 C   0  0  0  0  0  0  0  0  0  0  0  0
   -9.0711    4.3164   27.0630 C   0  0  0  0  0  0  0  0  0  0  0  0
   -9.9692    3.7224   26.1073 C   0  0  0  0  0  0  0  0  0  0  0  0
   -6.9787    4.6761   28.1003 C   0  0  0  0  0  0  0  0  0  0  0  0
  -11.1978    4.2793   25.7845 C   0  0  0  0  0  0  0  0  0  0  0  0
  -11.9722    3.7671   24.7671 C   0  0  0  0  0  0  0  0  0  0  0  0
  -11.4321    2.7931   23.9433 C   0  0  0  0  0  0  0  0  0  0  0  0
  -10.2070    2.2970   24.1835 C   0  0  0  0  0  0  0  0  0  0  0  0
   -9.3944    2.8078   25.1975 C   0  0  0  0  0  0  0  0  0  0  0  0
   -7.5087    5.6759   28.8863 C   0  0  0  0  0  0  0  0  0  0  0  0
   -9.4809    5.3980   27.8907 C   0  0  0  0  0  0  0  0  0  0  0  0
   -8.7111    6.0602   28.7070 N   0  0  0  0  0  0  0  0  0  0  0  0
   -9.6280    1.2133   23.3292 C   0  0  0  0  0  0  0  0  0  0  0  0
   -9.8103    1.2202   21.9979 C   0  0  0  0  0  0  0  0  0  0  0  0
   -9.5587    0.2554   21.2980 C   0  0  0  0  0  0  0  0  0  0  0  0
   -8.8108   -0.9075   21.7693 C   0  0  0  0  0  0  0  0  0  0  0  0
   -8.4876   -0.9016   23.1309 C   0  0  0  0  0  0  0  0  0  0  0  0
   -8.9249    0.1087   23.9753 C   0  0  0  0  0  0  0  0  0  0  0  0
   -8.4447   -1.8938   20.9143 N   0  0  0  0  0  0  0  0  0  0  0  0
   -9.0675   -2.2648   19.8091 C   0  0  0  0  0  0  0  0  0  0  0  0
   -8.3712   -2.9503   18.8083 C   0  0  0  0  0  0  0  0  0  0  0  0
   -7.0134   -2.1527   20.8278 C   0  0  0  0  0  0  0  0  0  0  0  0
   -6.3758   -2.9332   19.9555 C   0  0  0  0  0  0  0  0  0  0  0  0
   -7.1039   -3.2911   18.8669 C   0  0  0  0  0  0  0  0  0  0  0  0
  2  3  1  0
  8 13  1  0
 16 19  1  0
 19 20  1  0
 19 22  1  0
 21 24  1  0
 23 24  1  0
 20 21  1  0
 23 22  1  0
 13 14  2  0
 14 15  1  0
 15 16  2  0
 16 17  1  0
 17 18  2  0
 18 13  1  0
  3  5  2  0
  5  6  1  0
  6  7  2  0
  7  8  1  0
  8  9  2  0
  9  3  1  0
  1  2  2  0
  2 11  1  0
 11 12  2  0
 12 10  1  0
 10  4  2  0
  4  1  1  0
M  END
$$$$
