No_8941-complexes_sdf/6BKW-FPZ/2024-09-17-14-21-01/
     RDKit          3D

 39 44  0  0  0  0  0  0  0  0999 V2000
   -7.9040    3.9820   27.1177 C   0  0  0  0  0  0  0  0  0  0  0  0
   -8.2057    2.8231   26.8733 C   0  0  0  0  0  0  0  0  0  0  0  0
   -7.4766    1.7477   27.4593 C   0  0  0  0  0  0  0  0  0  0  0  0
   -8.7468    5.1251   26.6967 C   0  0  0  0  0  0  0  0  0  0  0  0
   -9.7234    4.8589   25.8202 C   0  0  0  0  0  0  0  0  0  0  0  0
   -9.9711    3.5858   25.4266 C   0  0  0  0  0  0  0  0  0  0  0  0
   -9.2266    2.4957   25.9600 C   0  0  0  0  0  0  0  0  0  0  0  0
   -7.8826    0.4491   27.3570 N   0  0  0  0  0  0  0  0  0  0  0  0
   -7.1139   -0.5109   27.8658 C   0  0  0  0  0  0  0  0  0  0  0  0
   -5.8758   -0.1983   28.3663 C   0  0  0  0  0  0  0  0  0  0  0  0
   -6.1304    1.8703   27.9283 C   0  0  0  0  0  0  0  0  0  0  0  0
   -5.3114    1.0214   28.3226 C   0  0  0  0  0  0  0  0  0  0  0  0
   -8.4118    6.5098   27.1086 C   0  0  0  0  0  0  0  0  0  0  0  0
   -7.9500    7.5860   27.0477 N   0  0  0  0  0  0  0  0  0  0  0  0
   -5.0603   -1.4038   28.9422 C   0  0  0  0  0  0  0  0  0  0  0  0
   -4.0165   -1.1316   29.3198 C   0  0  0  0  0  0  0  0  0  0  0  0
   -3.3166    0.2035   29.2823 C   0  0  0  0  0  0  0  0  0  0  0  0
   -3.9864    1.1889   28.8390 C   0  0  0  0  0  0  0  0  0  0  0  0
   -7.7038   -1.6679   27.8581 F   0  0  0  0  0  0  0  0  0  0  0  0
  -11.0034    3.3211   24.4167 C   0  0  0  0  0  0  0  0  0  0  0  0
  -12.2878    3.0371   24.7904 C   0  0  0  0  0  0  0  0  0  0  0  0
  -10.6379    3.3057   23.0362 C   0  0  0  0  0  0  0  0  0  0  0  0
  -11.4726    3.1288   21.9931 C   0  0  0  0  0  0  0  0  0  0  0  0
  -13.2469    2.8757   23.7362 C   0  0  0  0  0  0  0  0  0  0  0  0
  -12.8361    2.9336   22.3865 C   0  0  0  0  0  0  0  0  0  0  0  0
   -3.0832   -2.2130   29.9835 C   0  0  0  0  0  0  0  0  0  0  0  0
   -3.4339   -2.6553   31.1351 C   0  0  0  0  0  0  0  0  0  0  0  0
   -2.6889   -3.6097   31.7261 C   0  0  0  0  0  0  0  0  0  0  0  0
   -1.5112   -4.0738   31.0904 C   0  0  0  0  0  0  0  0  0  0  0  0
   -1.8836   -2.5563   29.3663 C   0  0  0  0  0  0  0  0  0  0  0  0
   -1.4941   -1.9563   28.0537 C   0  0  0  0  0  0  0  0  0  0  0  0
   -1.0180   -3.5010   29.9193 C   0  0  0  0  0  0  0  0  0  0  0  0
   -0.8126   -2.5724   27.1880 C   0  0  0  0  0  0  0  0  0  0  0  0
   -0.5590   -2.0054   25.9322 C   0  0  0  0  0  0  0  0  0  0  0  0
   -1.6900   -1.6950   25.2328 C   0  0  0  0  0  0  0  0  0  0  0  0
   -2.7298   -0.9470   26.0314 C   0  0  0  0  0  0  0  0  0  0  0  0
   -2.7680   -1.2733   27.4066 C   0  0  0  0  0  0  0  0  0  0  0  0
   -2.4563   -0.2963   27.0873 F   0  0  0  0  0  0  0  0  0  0  0  0
   -3.0370    0.1420   25.2495 F   0  0  0  0  0  0  0  0  0  0  0  0
  2  3  1  0
  4 13  1  0
 13 14  3  0
  9 19  1  0
  6 20  1  0
 16 26  1  0
 30 31  1  0
 37 38  1  0
 36 39  1  0
  1  2  2  0
  2  7  1  0
  7  6  2  0
  6  5  1  0
  5  4  2  0
  4  1  1  0
 12 18  1  0
 18 17  2  0
 17 16  1  0
 16 15  2  0
 15 10  1  0
 31 33  2  0
 33 34  1  0
 34 35  2  0
 35 36  1  0
 36 37  2  0
 37 31  1  0
  3  8  2  0
  8  9  1  0
  9 10  2  0
 10 12  1  0
 12 11  2  0
 11  3  1  0
 20 21  2  0
 21 24  1  0
 24 25  2  0
 25 23  1  0
 23 22  2  0
 22 20  1  0
 26 27  2  0
 27 28  1  0
 28 29  2  0
 29 32  1  0
 32 30  2  0
 30 26  1  0
M  END
$$$$
