No_8899-complexes_sdf/6BKW-FPZ/2024-09-17-14-21-01/
     RDKit          3D

 13 13  0  0  0  0  0  0  0  0999 V2000
   -7.9040    3.9820   27.1177 C   0  0  0  0  0  0  0  0  0  0  0  0
   -9.0711    4.3164   27.0630 C   0  0  0  0  0  0  0  0  0  0  0  0
   -9.5294    5.4517   27.7215 C   0  0  0  0  0  0  0  0  0  0  0  0
   -7.4336    2.7132   26.5681 C   0  0  0  0  0  0  0  0  0  0  0  0
   -8.3353    1.8569   26.0442 C   0  0  0  0  0  0  0  0  0  0  0  0
   -9.6477    2.2853   25.9146 C   0  0  0  0  0  0  0  0  0  0  0  0
  -10.0346    3.4497   26.4483 C   0  0  0  0  0  0  0  0  0  0  0  0
   -7.8608    0.5626   25.5840 C   0  0  0  0  0  0  0  0  0  0  0  0
   -6.9268   -0.1385   26.3326 C   0  0  0  0  0  0  0  0  0  0  0  0
   -6.7073    0.2427   27.6159 C   0  0  0  0  0  0  0  0  0  0  0  0
   -5.8164   -0.5903   28.4442 C   0  0  0  0  0  0  0  0  0  0  0  0
   -5.3344   -1.7028   27.9324 C   0  0  0  0  0  0  0  0  0  0  0  0
   -5.6185   -2.0856   26.6363 C   0  0  0  0  0  0  0  0  0  0  0  0
  5  8  1  0
  8  9  3  0
  9 10  1  0
 10 11  2  3
 11 12  1  0
 12 13  2  0
  3  2  1  0
  1  2  2  0
  2  7  1  0
  7  6  2  0
  6  5  1  0
  5  4  2  0
  4  1  1  0
M  END
$$$$
