No_8173-complexes_sdf/6BKW-FPZ/2024-09-17-14-21-01/
     RDKit          3D

 27 30  0  0  0  0  0  0  0  0999 V2000
   -7.9040    3.9820   27.1177 C   0  0  0  0  0  0  0  0  0  0  0  0
   -8.2057    2.8231   26.8733 C   0  0  0  0  0  0  0  0  0  0  0  0
   -9.2962    2.4021   26.1155 C   0  0  0  0  0  0  0  0  0  0  0  0
   -8.7358    5.0662   26.5917 C   0  0  0  0  0  0  0  0  0  0  0  0
   -9.7618    4.7023   25.7546 C   0  0  0  0  0  0  0  0  0  0  0  0
  -10.0066    3.4105   25.4922 C   0  0  0  0  0  0  0  0  0  0  0  0
   -8.3943    6.4761   26.8801 C   0  0  0  0  0  0  0  0  0  0  0  0
   -7.6749    7.3286   26.8288 C   0  0  0  0  0  0  0  0  0  0  0  0
   -7.5435    1.5086   27.3777 C   0  0  0  0  0  0  0  0  0  0  0  0
   -8.0578    0.2910   27.3444 C   0  0  0  0  0  0  0  0  0  0  0  0
   -8.9522    0.1177   26.8470 C   0  0  0  0  0  0  0  0  0  0  0  0
   -9.7943    1.0737   26.0001 C   0  0  0  0  0  0  0  0  0  0  0  0
   -7.2068   -0.7399   28.0873 C   0  0  0  0  0  0  0  0  0  0  0  0
   -7.8116   -1.9159   28.4919 N   0  0  0  0  0  0  0  0  0  0  0  0
   -5.9118   -0.6057   28.4056 N   0  0  0  0  0  0  0  0  0  0  0  0
   -5.0799    0.4053   28.0767 C   0  0  0  0  0  0  0  0  0  0  0  0
   -3.6752   -0.0226   28.1053 C   0  0  0  0  0  0  0  0  0  0  0  0
   -3.4185   -1.2611   27.7841 C   0  0  0  0  0  0  0  0  0  0  0  0
   -4.2635   -2.2499   28.1137 C   0  0  0  0  0  0  0  0  0  0  0  0
   -5.5901   -1.8835   27.7736 N   0  0  0  0  0  0  0  0  0  0  0  0
   -7.6338   -2.8686   28.9822 C   0  0  0  0  0  0  0  0  0  0  0  0
   -7.3201   -2.9325   30.1721 C   0  0  0  0  0  0  0  0  0  0  0  0
   -7.0117   -4.1063   30.9661 C   0  0  0  0  0  0  0  0  0  0  0  0
   -7.1353   -5.2614   30.2533 C   0  0  0  0  0  0  0  0  0  0  0  0
   -7.6523   -4.1262   28.3225 C   0  0  0  0  0  0  0  0  0  0  0  0
   -7.4743   -5.3125   28.9502 C   0  0  0  0  0  0  0  0  0  0  0  0
   -2.8041    1.0465   28.3580 O   0  0  0  0  0  0  0  0  0  0  0  0
  4  7  1  0
  7  8  3  0
 10 13  1  0
 13 14  2  3
 13 15  1  0
 15 16  1  0
 16 17  1  0
 17 18  1  0
 18 19  1  0
 15 20  1  0
 19 20  1  0
 14 21  1  0
 17 27  2  0
 21 22  2  0
 22 23  1  0
 23 24  2  0
 24 26  1  0
 26 25  2  0
 25 21  1  0
  1  2  2  0
  3  6  2  0
  6  5  1  0
  5  4  2  0
  4  1  1  0
  2  3  1  0
  3 12  1  0
 12 11  2  0
 11 10  1  0
 10  9  2  0
  9  2  1  0
M  END
$$$$
