No_844-complexes_sdf/6BKW-FPZ/2024-09-17-14-21-01/
     RDKit          3D

 17 19  0  0  0  0  0  0  0  0999 V2000
   -7.9040    3.9820   27.1177 C   0  0  0  0  0  0  0  0  0  0  0  0
   -7.8663    4.8694   27.9238 C   0  0  0  0  0  0  0  0  0  0  0  0
   -9.0501    3.8017   26.2617 C   0  0  0  0  0  0  0  0  0  0  0  0
  -10.0189    4.7608   26.3707 C   0  0  0  0  0  0  0  0  0  0  0  0
   -8.6973    5.9722   27.8968 C   0  0  0  0  0  0  0  0  0  0  0  0
   -9.8216    5.8946   27.1241 C   0  0  0  0  0  0  0  0  0  0  0  0
   -9.1437    2.6293   25.4175 C   0  0  0  0  0  0  0  0  0  0  0  0
   -9.9828    2.7153   24.2925 C   0  0  0  0  0  0  0  0  0  0  0  0
  -10.6812    3.9127   24.0789 C   0  0  0  0  0  0  0  0  0  0  0  0
  -10.8795    4.8426   25.1660 C   0  0  0  0  0  0  0  0  0  0  0  0
  -11.6379    3.8838   23.0744 N   0  0  0  0  0  0  0  0  0  0  0  0
  -11.2361    3.8445   21.9137 C   0  0  0  0  0  0  0  0  0  0  0  0
   -9.8561    3.5895   21.6451 C   0  0  0  0  0  0  0  0  0  0  0  0
  -12.1702    4.0716   20.7830 C   0  0  0  0  0  0  0  0  0  0  0  0
   -9.5085    3.4392   20.1897 C   0  0  0  0  0  0  0  0  0  0  0  0
  -10.3712    3.7700   19.2057 C   0  0  0  0  0  0  0  0  0  0  0  0
  -11.7138    4.0315   19.4852 C   0  0  0  0  0  0  0  0  0  0  0  0
  9 11  1  0
 11 12  1  0
  4 10  2  0
 10  9  1  0
  9  8  2  0
  8  7  1  0
  7  3  2  0
 12 13  2  0
 13 15  1  0
 15 16  2  0
 16 17  1  0
 17 14  2  0
 14 12  1  0
  1  2  2  0
  2  5  1  0
  5  6  2  0
  6  4  1  0
  4  3  1  0
  3  1  1  0
M  END
$$$$
