No_8725-complexes_sdf/6BKW-FPZ/2024-09-17-14-21-01/
     RDKit          3D

 22 25  0  0  0  0  0  0  0  0999 V2000
   -7.9040    3.9820   27.1177 C   0  0  0  0  0  0  0  0  0  0  0  0
   -7.8663    4.8694   27.9238 C   0  0  0  0  0  0  0  0  0  0  0  0
   -9.0501    3.8017   26.2617 C   0  0  0  0  0  0  0  0  0  0  0  0
  -10.0189    4.7608   26.3707 C   0  0  0  0  0  0  0  0  0  0  0  0
   -8.6770    5.9780   27.9222 C   0  0  0  0  0  0  0  0  0  0  0  0
   -9.8040    5.8752   27.0958 C   0  0  0  0  0  0  0  0  0  0  0  0
   -9.1434    2.6226   25.4210 C   0  0  0  0  0  0  0  0  0  0  0  0
   -8.6414    1.4248   25.8504 C   0  0  0  0  0  0  0  0  0  0  0  0
   -8.7221    0.2951   25.0477 C   0  0  0  0  0  0  0  0  0  0  0  0
   -9.2843    0.4597   23.7792 C   0  0  0  0  0  0  0  0  0  0  0  0
   -9.6754    2.6699   24.2022 C   0  0  0  0  0  0  0  0  0  0  0  0
   -9.7373    1.6522   23.3504 C   0  0  0  0  0  0  0  0  0  0  0  0
  -10.3243    1.7721   21.9907 C   0  0  0  0  0  0  0  0  0  0  0  0
  -10.6356    0.7754   21.2420 C   0  0  0  0  0  0  0  0  0  0  0  0
  -10.4384    3.1308   21.4551 C   0  0  0  0  0  0  0  0  0  0  0  0
  -11.2548    3.5368   20.9609 C   0  0  0  0  0  0  0  0  0  0  0  0
  -11.5032    1.1293   20.0728 C   0  0  0  0  0  0  0  0  0  0  0  0
  -11.7708    2.4938   19.8873 C   0  0  0  0  0  0  0  0  0  0  0  0
   -8.1236   -0.8167   25.6465 C   0  0  0  0  0  0  0  0  0  0  0  0
   -7.6533   -0.8625   26.7703 C   0  0  0  0  0  0  0  0  0  0  0  0
   -7.5784    0.3804   27.6093 C   0  0  0  0  0  0  0  0  0  0  0  0
   -8.0611    1.4155   27.1919 C   0  0  0  0  0  0  0  0  0  0  0  0
  3  7  1  0
 12 13  1  0
  7  8  2  0
  9 10  2  0
 10 12  1  0
 12 11  2  0
 11  7  1  0
  8  9  1  0
  9 19  1  0
 19 20  2  0
 20 21  1  0
 21 22  2  0
 22  8  1  0
  1  2  2  0
  2  5  1  0
  5  6  2  0
  6  4  1  0
  4  3  2  0
  3  1  1  0
 13 14  2  0
 14 17  1  0
 17 18  2  0
 18 16  1  0
 16 15  2  0
 15 13  1  0
M  END
$$$$
