No_8140-complexes_sdf/6BKW-FPZ/2024-09-17-14-21-01/
     RDKit          3D

 34 39  0  0  0  0  0  0  0  0999 V2000
   -7.9040    3.9820   27.1177 C   0  0  0  0  0  0  0  0  0  0  0  0
   -7.8663    4.8694   27.9238 C   0  0  0  0  0  0  0  0  0  0  0  0
   -9.0491    3.8523   26.2542 C   0  0  0  0  0  0  0  0  0  0  0  0
   -8.7661    5.9491   27.9690 C   0  0  0  0  0  0  0  0  0  0  0  0
   -9.1715    2.7136   25.4037 C   0  0  0  0  0  0  0  0  0  0  0  0
   -9.8832    5.8611   27.1405 C   0  0  0  0  0  0  0  0  0  0  0  0
  -10.0015    4.7998   26.3324 C   0  0  0  0  0  0  0  0  0  0  0  0
  -10.0469    2.7614   24.3077 C   0  0  0  0  0  0  0  0  0  0  0  0
  -10.1656    1.6626   23.4633 C   0  0  0  0  0  0  0  0  0  0  0  0
   -9.3077    0.5163   23.6938 C   0  0  0  0  0  0  0  0  0  0  0  0
   -8.4620    0.4906   24.7525 C   0  0  0  0  0  0  0  0  0  0  0  0
   -8.3294    1.5685   25.6095 C   0  0  0  0  0  0  0  0  0  0  0  0
   -9.4336   -0.6299   22.7552 C   0  0  0  0  0  0  0  0  0  0  0  0
   -8.3356   -1.1787   22.3008 C   0  0  0  0  0  0  0  0  0  0  0  0
   -7.9711   -2.0515   21.7815 C   0  0  0  0  0  0  0  0  0  0  0  0
   -6.6040   -2.4792   21.3027 C   0  0  0  0  0  0  0  0  0  0  0  0
   -5.6053   -1.7735   21.8942 C   0  0  0  0  0  0  0  0  0  0  0  0
   -5.8955   -0.6729   22.7157 C   0  0  0  0  0  0  0  0  0  0  0  0
   -7.1132   -0.3400   23.0034 C   0  0  0  0  0  0  0  0  0  0  0  0
   -7.3633    0.3749   24.1566 N   0  0  0  0  0  0  0  0  0  0  0  0
  -10.6483   -0.8039   21.9696 C   0  0  0  0  0  0  0  0  0  0  0  0
  -11.6570   -1.4368   22.6215 C   0  0  0  0  0  0  0  0  0  0  0  0
  -11.5181   -1.9319   23.9649 C   0  0  0  0  0  0  0  0  0  0  0  0
  -10.5036   -1.8569   24.6022 C   0  0  0  0  0  0  0  0  0  0  0  0
  -10.4829   -2.4992   26.0563 C   0  0  0  0  0  0  0  0  0  0  0  0
  -11.5946   -3.0884   26.4625 C   0  0  0  0  0  0  0  0  0  0  0  0
  -12.7171   -3.1536   25.6598 C   0  0  0  0  0  0  0  0  0  0  0  0
  -12.7332   -2.6046   24.4636 C   0  0  0  0  0  0  0  0  0  0  0  0
  -10.7154   -0.3831   20.6666 C   0  0  0  0  0  0  0  0  0  0  0  0
  -10.3202    0.4875   20.0691 N   0  0  0  0  0  0  0  0  0  0  0  0
  -11.2728   -1.4535   19.7251 C   0  0  0  0  0  0  0  0  0  0  0  0
  -12.0197   -1.2975   19.0776 C   0  0  0  0  0  0  0  0  0  0  0  0
  -11.9871    0.0322   18.3547 C   0  0  0  0  0  0  0  0  0  0  0  0
  -11.1757    0.9835   19.0058 C   0  0  0  0  0  0  0  0  0  0  0  0
  3  5  1  0
 13 21  1  0
 21 22  2  3
 22 23  1  0
 21 29  1  0
 23 24  2  0
 24 25  1  0
 25 26  2  0
 26 27  1  0
 27 28  2  0
 28 23  1  0
 29 30  2  0
 30 34  1  0
 34 33  2  0
 33 32  1  0
 32 31  2  0
 31 29  1  0
  5  8  2  0
  8  9  1  0
  9 10  2  0
 11 12  2  0
 12  5  1  0
 14 15  1  0
 15 16  2  0
 16 17  1  0
 17 18  2  0
 18 19  1  0
  1  2  2  0
  2  4  1  0
  4  6  2  0
  6  7  1  0
  7  3  2  0
  3  1  1  0
 10 11  1  0
 11 20  1  0
 20 19  2  0
 19 14  1  0
 14 13  2  0
 13 10  1  0
M  END
$$$$
