No_8637-complexes_sdf/6BKW-FPZ/2024-09-17-14-21-01/
     RDKit          3D

 16 17  0  0  0  0  0  0  0  0999 V2000
   -7.9040    3.9820   27.1177 C   0  0  0  0  0  0  0  0  0  0  0  0
   -8.2057    2.8231   26.8733 C   0  0  0  0  0  0  0  0  0  0  0  0
   -8.7695    5.0740   26.7916 C   0  0  0  0  0  0  0  0  0  0  0  0
   -8.4337    6.4678   27.0913 C   0  0  0  0  0  0  0  0  0  0  0  0
   -9.1945    2.4408   26.4350 C   0  0  0  0  0  0  0  0  0  0  0  0
  -10.2047    3.3522   26.0527 C   0  0  0  0  0  0  0  0  0  0  0  0
   -9.9687    4.6754   26.2340 C   0  0  0  0  0  0  0  0  0  0  0  0
   -8.5867    6.8255   28.2081 F   0  0  0  0  0  0  0  0  0  0  0  0
   -7.1124    6.7456   26.7398 F   0  0  0  0  0  0  0  0  0  0  0  0
   -9.1080    7.2919   26.2031 F   0  0  0  0  0  0  0  0  0  0  0  0
   -7.0953    1.7684   27.3907 C   0  0  0  0  0  0  0  0  0  0  0  0
   -5.8121    2.1449   27.8239 C   0  0  0  0  0  0  0  0  0  0  0  0
   -4.8484    1.1708   28.2089 C   0  0  0  0  0  0  0  0  0  0  0  0
   -5.1782   -0.1679   28.1282 C   0  0  0  0  0  0  0  0  0  0  0  0
   -7.3246    0.3825   27.3190 C   0  0  0  0  0  0  0  0  0  0  0  0
   -6.4379   -0.5257   27.7352 C   0  0  0  0  0  0  0  0  0  0  0  0
  3  4  1  0
  4  8  1  0
  4  9  1  0
  4 10  1  0
  2 11  1  0
 11 12  2  0
 12 13  1  0
 13 14  2  0
 14 16  1  0
 16 15  2  0
 15 11  1  0
  1  2  2  0
  2  5  1  0
  5  6  2  0
  6  7  1  0
  7  3  2  0
  3  1  1  0
M  END
$$$$
