No_8103-complexes_sdf/6BKW-FPZ/2024-09-17-14-21-01/
     RDKit          3D

 16 18  0  0  0  0  0  0  0  0999 V2000
   -7.7129    4.2099   27.0854 C   0  0  0  0  0  0  0  0  0  0  0  0
   -7.7814    5.1722   27.8972 C   0  0  0  0  0  0  0  0  0  0  0  0
   -8.8776    3.8408   26.3416 C   0  0  0  0  0  0  0  0  0  0  0  0
   -8.9136    2.6330   25.5655 C   0  0  0  0  0  0  0  0  0  0  0  0
   -8.8361    6.1389   27.9032 C   0  0  0  0  0  0  0  0  0  0  0  0
   -9.9718    4.7048   26.3433 C   0  0  0  0  0  0  0  0  0  0  0  0
  -10.9904    4.3703   25.5385 C   0  0  0  0  0  0  0  0  0  0  0  0
   -9.9231    5.8619   27.0950 C   0  0  0  0  0  0  0  0  0  0  0  0
   -9.9145    2.3405   24.6988 C   0  0  0  0  0  0  0  0  0  0  0  0
  -10.9707    3.2958   24.6682 C   0  0  0  0  0  0  0  0  0  0  0  0
  -12.0704    3.0037   23.7241 C   0  0  0  0  0  0  0  0  0  0  0  0
  -13.1765    2.3655   24.1284 C   0  0  0  0  0  0  0  0  0  0  0  0
  -11.9384    3.4875   22.3777 C   0  0  0  0  0  0  0  0  0  0  0  0
  -14.1785    2.1887   23.3397 C   0  0  0  0  0  0  0  0  0  0  0  0
  -12.9859    3.3613   21.4781 C   0  0  0  0  0  0  0  0  0  0  0  0
  -14.1103    2.7097   21.9629 C   0  0  0  0  0  0  0  0  0  0  0  0
 10 11  1  0
 11 12  2  0
 12 14  1  0
 14 16  2  0
 16 15  1  0
 15 13  2  0
 13 11  1  0
  1  2  2  0
  2  5  1  0
  5  8  2  0
  8  6  1  0
  3  1  1  0
  3  4  2  0
  4  9  1  0
  9 10  2  0
 10  7  1  0
  7  6  2  0
  6  3  1  0
M  END
$$$$
