No_8218-complexes_sdf/6BKW-FPZ/2024-09-17-14-21-01/
     RDKit          3D

 13 13  0  0  0  0  0  0  0  0999 V2000
   -7.7129    4.2099   27.0854 C   0  0  0  0  0  0  0  0  0  0  0  0
   -8.9133    4.4736   27.0998 C   0  0  0  0  0  0  0  0  0  0  0  0
   -9.7135    3.9633   26.0300 C   0  0  0  0  0  0  0  0  0  0  0  0
   -7.2585    2.8371   26.9278 C   0  0  0  0  0  0  0  0  0  0  0  0
  -10.8653    4.5090   25.6599 C   0  0  0  0  0  0  0  0  0  0  0  0
   -8.1661    2.0312   26.1978 C   0  0  0  0  0  0  0  0  0  0  0  0
   -9.3755    2.6383   25.6167 C   0  0  0  0  0  0  0  0  0  0  0  0
   -6.0607    2.2968   27.4988 C   0  0  0  0  0  0  0  0  0  0  0  0
   -5.7814    0.9340   27.4897 C   0  0  0  0  0  0  0  0  0  0  0  0
   -4.5799    0.5593   28.1976 C   0  0  0  0  0  0  0  0  0  0  0  0
   -4.2462   -0.7900   28.2737 C   0  0  0  0  0  0  0  0  0  0  0  0
   -5.1434   -1.7095   27.7020 C   0  0  0  0  0  0  0  0  0  0  0  0
   -6.4744   -0.0292   27.0516 F   0  0  0  0  0  0  0  0  0  0  0  0
  4  8  1  0
  8  9  2  3
  9 10  1  0
 10 11  2  3
 11 12  1  0
  9 13  1  0
  5  3  1  0
  1  2  2  0
  2  3  1  0
  3  7  2  0
  7  6  1  0
  6  4  2  0
  4  1  1  0
M  END
$$$$
