No_8233-complexes_sdf/6BKW-FPZ/2024-09-17-14-21-01/
     RDKit          3D

 24 27  0  0  0  0  0  0  0  0999 V2000
   -7.7129    4.2099   27.0854 C   0  0  0  0  0  0  0  0  0  0  0  0
   -8.2112    3.0637   26.9225 C   0  0  0  0  0  0  0  0  0  0  0  0
   -7.5138    1.9223   27.4249 C   0  0  0  0  0  0  0  0  0  0  0  0
   -8.5309    5.4147   26.8151 C   0  0  0  0  0  0  0  0  0  0  0  0
   -8.1184    6.7672   27.1362 C   0  0  0  0  0  0  0  0  0  0  0  0
   -6.1372    2.1405   27.7998 C   0  0  0  0  0  0  0  0  0  0  0  0
   -5.7091    3.4418   28.0019 C   0  0  0  0  0  0  0  0  0  0  0  0
   -6.4145    4.4584   27.7237 C   0  0  0  0  0  0  0  0  0  0  0  0
   -8.9234    7.8514   26.5603 C   0  0  0  0  0  0  0  0  0  0  0  0
   -5.1901    1.0470   28.2628 C   0  0  0  0  0  0  0  0  0  0  0  0
   -4.0531    1.2406   28.5363 C   0  0  0  0  0  0  0  0  0  0  0  0
   -5.8765   -0.2771   28.3346 C   0  0  0  0  0  0  0  0  0  0  0  0
   -3.1505    0.1846   28.9779 C   0  0  0  0  0  0  0  0  0  0  0  0
   -4.9959   -1.3201   28.7924 C   0  0  0  0  0  0  0  0  0  0  0  0
   -3.6881   -1.0774   29.1073 C   0  0  0  0  0  0  0  0  0  0  0  0
   -9.6970    5.2478   26.0706 C   0  0  0  0  0  0  0  0  0  0  0  0
  -10.3038    4.0661   26.0781 C   0  0  0  0  0  0  0  0  0  0  0  0
   -9.5571    2.8837   26.4240 C   0  0  0  0  0  0  0  0  0  0  0  0
  -10.0701    1.5234   26.2049 C   0  0  0  0  0  0  0  0  0  0  0  0
  -10.2685    1.1526   24.9930 C   0  0  0  0  0  0  0  0  0  0  0  0
  -10.6667   -0.2012   24.6992 C   0  0  0  0  0  0  0  0  0  0  0  0
  -10.8634   -1.0396   25.7404 C   0  0  0  0  0  0  0  0  0  0  0  0
  -10.6767   -0.6341   27.0800 C   0  0  0  0  0  0  0  0  0  0  0  0
  -10.2208    0.6912   27.3635 C   0  0  0  0  0  0  0  0  0  0  0  0
  5  9  1  0
  6 10  1  0
 18 19  1  0
  5  4  1  0
 10 11  2  0
 11 13  1  0
 13 15  2  0
 15 14  1  0
 14 12  2  0
 12 10  1  0
  2 18  1  0
 18 17  2  0
 17 16  1  0
 16  4  2  0
  4  1  1  0
 19 20  2  0
 20 21  1  0
 21 22  2  0
 22 23  1  0
 23 24  2  0
 24 19  1  0
  1  2  1  0
  2  3  2  0
  3  6  1  0
  6  7  2  0
  7  8  1  0
  8  1  2  0
M  END
$$$$
