No_8294-complexes_sdf/6BKW-FPZ/2024-09-17-14-21-01/
     RDKit          3D

 28 31  0  0  0  0  0  0  0  0999 V2000
   -7.7129    4.2099   27.0854 C   0  0  0  0  0  0  0  0  0  0  0  0
   -8.2112    3.0637   26.9225 C   0  0  0  0  0  0  0  0  0  0  0  0
   -8.5108    5.3904   26.9436 C   0  0  0  0  0  0  0  0  0  0  0  0
   -9.7256    5.1955   26.3518 C   0  0  0  0  0  0  0  0  0  0  0  0
   -9.4995    2.8258   26.4878 C   0  0  0  0  0  0  0  0  0  0  0  0
  -10.2542    3.9691   26.2055 C   0  0  0  0  0  0  0  0  0  0  0  0
   -7.9135    6.7086   27.1885 C   0  0  0  0  0  0  0  0  0  0  0  0
   -7.5950    1.7068   27.2240 C   0  0  0  0  0  0  0  0  0  0  0  0
   -6.2036    1.7732   27.6502 C   0  0  0  0  0  0  0  0  0  0  0  0
   -5.5303    0.5987   27.9521 C   0  0  0  0  0  0  0  0  0  0  0  0
   -6.1778   -0.5845   27.9590 C   0  0  0  0  0  0  0  0  0  0  0  0
   -8.2012    0.4832   27.1609 C   0  0  0  0  0  0  0  0  0  0  0  0
   -7.5337   -0.6433   27.5699 C   0  0  0  0  0  0  0  0  0  0  0  0
   -6.8871    6.7690   27.8808 O   0  0  0  0  0  0  0  0  0  0  0  0
   -8.5590    7.8539   26.8628 N   0  0  0  0  0  0  0  0  0  0  0  0
   -4.0997    0.7239   28.3981 C   0  0  0  0  0  0  0  0  0  0  0  0
   -3.6074    0.0384   29.3150 N   0  0  0  0  0  0  0  0  0  0  0  0
   -3.8465    0.1868   30.6407 C   0  0  0  0  0  0  0  0  0  0  0  0
   -3.1079   -0.6139   31.6140 C   0  0  0  0  0  0  0  0  0  0  0  0
   -2.4259   -0.7667   29.0478 C   0  0  2  0  0  0  0  0  0  0  0  0
   -2.0990   -0.8929   27.6455 C   0  0  0  0  0  0  0  0  0  0  0  0
   -2.1230   -1.4886   31.1931 C   0  0  0  0  0  0  0  0  0  0  0  0
   -1.7286   -1.5110   29.9085 C   0  0  0  0  0  0  0  0  0  0  0  0
   -3.4279    1.4656   27.5537 O   0  0  0  0  0  0  0  0  0  0  0  0
   -8.2148   -1.9287   27.5574 C   0  0  0  0  0  0  0  0  0  0  0  0
   -9.4879   -1.9066   27.5156 C   0  0  0  0  0  0  0  0  0  0  0  0
  -10.2240   -0.6610   27.1716 C   0  0  0  0  0  0  0  0  0  0  0  0
   -9.5763    0.4677   27.0702 C   0  0  0  0  0  0  0  0  0  0  0  0
  3  7  1  0
  2  8  1  0
  7 14  2  0
  7 15  1  0
 10 16  1  0
 16 17  1  0
 17 18  1  0
 17 20  1  0
 20 21  1  6
 19 22  1  0
 20 23  1  0
 16 24  2  0
 18 19  1  0
 22 23  1  0
 13 25  2  0
 25 26  1  0
 26 27  2  0
 27 28  1  0
 28 12  2  0
  1  2  2  0
  2  5  1  0
  5  6  2  0
  6  4  1  0
  4  3  2  0
  3  1  1  0
  8  9  2  0
  9 10  1  0
 10 11  2  0
 11 13  1  0
 13 12  1  0
 12  8  1  0
M  END
$$$$
