No_8171-complexes_sdf/6BKW-FPZ/2024-09-17-14-21-01/
     RDKit          3D

 23 26  0  0  0  0  0  0  0  0999 V2000
   -7.7129    4.2099   27.0854 C   0  0  0  0  0  0  0  0  0  0  0  0
   -8.2112    3.0637   26.9225 C   0  0  0  0  0  0  0  0  0  0  0  0
   -8.5108    5.3904   26.9436 C   0  0  0  0  0  0  0  0  0  0  0  0
   -9.7256    5.1955   26.3518 C   0  0  0  0  0  0  0  0  0  0  0  0
   -7.4704    1.8386   27.3272 C   0  0  0  0  0  0  0  0  0  0  0  0
   -9.4956    2.7608   26.4620 C   0  0  0  0  0  0  0  0  0  0  0  0
  -10.2454    3.9392   26.1664 C   0  0  0  0  0  0  0  0  0  0  0  0
   -7.8850    0.6367   27.2067 N   0  0  0  0  0  0  0  0  0  0  0  0
   -6.0767    2.0491   27.6230 N   0  0  0  0  0  0  0  0  0  0  0  0
   -6.9256   -0.2600   27.6242 C   0  0  0  0  0  0  0  0  0  0  0  0
   -5.7917    0.6192   27.8681 C   0  0  0  0  0  0  0  0  0  0  0  0
   -4.4210    0.2760   28.3230 C   0  0  0  0  0  0  0  0  0  0  0  0
   -4.3307    0.0055   29.6540 C   0  0  0  0  0  0  0  0  0  0  0  0
   -3.3446    0.2703   27.4543 C   0  0  0  0  0  0  0  0  0  0  0  0
   -5.1990   -0.1684   30.6638 C   0  0  0  0  0  0  0  0  0  0  0  0
   -4.8002   -0.5350   31.9663 C   0  0  0  0  0  0  0  0  0  0  0  0
   -5.7060   -0.8908   32.9936 C   0  0  0  0  0  0  0  0  0  0  0  0
   -3.3667   -0.4738   32.3411 C   0  0  0  0  0  0  0  0  0  0  0  0
   -2.9117   -0.7264   33.5916 N   0  0  0  0  0  0  0  0  0  0  0  0
   -2.8724   -0.1273   30.0272 C   0  0  0  0  0  0  0  0  0  0  0  0
   -2.4297   -0.2941   31.3905 N   0  0  0  0  0  0  0  0  0  0  0  0
   -5.2669   -1.1858   34.3362 C   0  0  0  0  0  0  0  0  0  0  0  0
   -3.8233   -1.0162   34.5876 C   0  0  0  0  0  0  0  0  0  0  0  0
  2  5  1  0
  5  8  2  0
  5  9  1  0
  8 10  1  0
  9 11  1  0
 10 11  1  0
 11 12  1  0
 12 13  1  0
 12 14  1  0
  1  2  2  0
  2  6  1  0
  6  7  2  0
  7  4  1  0
  4  3  2  0
  3  1  1  0
 16 17  2  0
 17 22  1  0
 22 23  2  0
 23 19  1  0
 19 18  2  0
 13 15  2  0
 15 16  1  0
 16 18  1  0
 18 21  1  0
 21 20  2  0
 20 13  1  0
M  END
$$$$
