No_8191-complexes_sdf/6BKW-FPZ/2024-09-17-14-21-01/
     RDKit          3D

 25 28  0  0  0  0  0  0  0  0999 V2000
   -7.7129    4.2099   27.0854 C   0  0  0  0  0  0  0  0  0  0  0  0
   -8.9133    4.4736   27.0998 C   0  0  0  0  0  0  0  0  0  0  0  0
   -9.7135    3.9633   26.0300 C   0  0  0  0  0  0  0  0  0  0  0  0
   -7.2585    2.8371   26.9278 C   0  0  0  0  0  0  0  0  0  0  0  0
   -9.4798    2.6045   25.7571 C   0  0  0  0  0  0  0  0  0  0  0  0
   -8.2172    2.0710   26.1389 C   0  0  0  0  0  0  0  0  0  0  0  0
   -9.2292    5.9823   27.3379 C   0  0  0  0  0  0  0  0  0  0  0  0
  -10.3750    1.8544   24.9713 C   0  0  0  0  0  0  0  0  0  0  0  0
  -11.1385    2.2027   24.2888 C   0  0  0  0  0  0  0  0  0  0  0  0
  -12.1153    1.4502   23.4272 C   0  0  0  0  0  0  0  0  0  0  0  0
  -11.9005    0.0801   23.5072 C   0  0  0  0  0  0  0  0  0  0  0  0
  -10.2666    0.3193   24.8634 C   0  0  0  0  0  0  0  0  0  0  0  0
  -10.9933   -0.4427   24.2232 C   0  0  0  0  0  0  0  0  0  0  0  0
   -6.8507    4.8583   28.1051 N   0  0  0  0  0  0  0  0  0  0  0  0
   -8.1779    6.9625   27.1806 C   0  0  1  0  0  0  0  0  0  0  0  0
   -8.4991    8.3116   27.2389 C   0  0  0  0  0  0  0  0  0  0  0  0
   -7.0796    6.3188   28.0630 C   0  0  0  0  0  0  0  0  0  0  0  0
   -6.0952    2.2075   27.4953 C   0  0  0  0  0  0  0  0  0  0  0  0
   -5.8951    0.8222   27.4517 C   0  0  0  0  0  0  0  0  0  0  0  0
   -4.7945    0.3050   28.0824 C   0  0  0  0  0  0  0  0  0  0  0  0
   -3.9260    1.2037   28.7755 C   0  0  0  0  0  0  0  0  0  0  0  0
   -2.8539    0.5496   29.4383 C   0  0  0  0  0  0  0  0  0  0  0  0
   -2.7207   -0.8505   29.4454 C   0  0  0  0  0  0  0  0  0  0  0  0
   -4.5394   -1.0504   28.2201 C   0  0  0  0  0  0  0  0  0  0  0  0
   -3.5729   -1.6364   28.8476 C   0  0  0  0  0  0  0  0  0  0  0  0
  2  7  1  0
  5  8  1  0
  1 14  1  0
  7 15  1  0
 15 16  1  1
 14 17  1  0
 15 17  1  0
  4 18  1  0
 18 19  1  0
 19 20  1  0
  1  2  1  0
  2  3  2  0
  3  5  1  0
  5  6  2  0
  6  4  1  0
  4  1  2  0
  8  9  2  0
  9 10  1  0
 10 11  2  0
 11 13  1  0
 13 12  2  0
 12  8  1  0
 20 21  2  0
 21 22  1  0
 22 23  2  0
 23 25  1  0
 25 24  2  0
 24 20  1  0
M  END
$$$$
