No_8123-complexes_sdf/6BKW-FPZ/2024-09-17-14-21-01/
     RDKit          3D

 15 16  0  0  0  0  0  0  0  0999 V2000
   -7.9040    3.9820   27.1177 C   0  0  0  0  0  0  0  0  0  0  0  0
   -7.8663    4.8694   27.9238 C   0  0  0  0  0  0  0  0  0  0  0  0
   -9.0501    3.8017   26.2617 C   0  0  0  0  0  0  0  0  0  0  0  0
  -10.0189    4.7608   26.3707 C   0  0  0  0  0  0  0  0  0  0  0  0
   -8.6973    5.9722   27.8968 C   0  0  0  0  0  0  0  0  0  0  0  0
   -9.8216    5.8946   27.1241 C   0  0  0  0  0  0  0  0  0  0  0  0
   -9.1704    2.4454   25.2686 Cl  0  0  0  0  0  0  0  0  0  0  0  0
   -6.9878    2.9153   27.1222 O   0  0  0  0  0  0  0  0  0  0  0  0
   -6.9713    1.9845   28.1636 C   0  0  0  0  0  0  0  0  0  0  0  0
   -7.4549    0.7092   27.6322 C   0  0  0  0  0  0  0  0  0  0  0  0
   -6.6029   -0.1128   27.0611 C   0  0  0  0  0  0  0  0  0  0  0  0
   -7.0786   -1.1598   26.2817 C   0  0  0  0  0  0  0  0  0  0  0  0
   -8.3918   -1.4454   26.2245 C   0  0  0  0  0  0  0  0  0  0  0  0
   -9.3156   -0.6327   26.9784 C   0  0  0  0  0  0  0  0  0  0  0  0
   -8.8050    0.5080   27.6384 C   0  0  0  0  0  0  0  0  0  0  0  0
  3  7  1  0
  1  8  1  0
  8  9  1  0
  9 10  1  0
  1  2  2  0
  2  5  1  0
  5  6  2  0
  6  4  1  0
  4  3  2  0
  3  1  1  0
 10 11  2  0
 11 12  1  0
 12 13  2  0
 13 14  1  0
 14 15  2  0
 15 10  1  0
M  END
$$$$
