No_858-complexes_sdf/6BKW-FPZ/2024-09-17-14-21-01/
     RDKit          3D

 27 29  0  0  0  0  0  0  0  0999 V2000
   -7.7129    4.2099   27.0854 C   0  0  0  0  0  0  0  0  0  0  0  0
   -8.2112    3.0637   26.9225 C   0  0  0  0  0  0  0  0  0  0  0  0
   -8.5108    5.3904   26.9436 C   0  0  0  0  0  0  0  0  0  0  0  0
   -7.9752    6.6981   27.2112 C   0  0  0  0  0  0  0  0  0  0  0  0
   -7.4938    1.8178   27.3608 C   0  0  0  0  0  0  0  0  0  0  0  0
   -7.9553    0.5308   27.1577 C   0  0  0  0  0  0  0  0  0  0  0  0
   -9.3187    0.4484   26.7039 C   0  0  0  0  0  0  0  0  0  0  0  0
  -10.0295    1.5648   26.3528 C   0  0  0  0  0  0  0  0  0  0  0  0
   -9.4848    2.8460   26.4847 C   0  0  0  0  0  0  0  0  0  0  0  0
   -9.8145    5.2840   26.4374 C   0  0  0  0  0  0  0  0  0  0  0  0
  -10.3029    3.9895   26.2070 C   0  0  0  0  0  0  0  0  0  0  0  0
   -8.5777    7.7642   26.8132 O   0  0  0  0  0  0  0  0  0  0  0  0
   -7.0296    6.8366   28.1550 O   0  0  0  0  0  0  0  0  0  0  0  0
   -7.1765   -0.5789   27.5918 C   0  0  2  0  0  0  0  0  0  0  0  0
   -5.4821   -0.4099   28.0567 Br  0  0  0  0  0  0  0  0  0  0  0  0
   -7.6990   -1.9076   27.6132 C   0  0  0  0  0  0  0  0  0  0  0  0
   -7.4568   -2.6328   28.5255 C   0  0  0  0  0  0  0  0  0  0  0  0
   -7.6324   -3.3243   29.2959 C   0  0  1  0  0  0  0  0  0  0  0  0
   -8.7840   -3.8461   29.9939 C   0  0  0  0  0  0  0  0  0  0  0  0
   -9.4343   -3.1880   30.6625 C   0  0  0  0  0  0  0  0  0  0  0  0
  -10.6106   -3.5490   31.5212 C   0  0  0  0  0  0  0  0  0  0  0  0
  -11.0322   -4.7540   31.3412 C   0  0  0  0  0  0  0  0  0  0  0  0
  -10.3557   -5.6308   30.5380 C   0  0  0  0  0  0  0  0  0  0  0  0
   -9.2157   -5.2239   29.9434 C   0  0  0  0  0  0  0  0  0  0  0  0
   -6.3833   -4.2686   29.5158 C   0  0  0  0  0  0  0  0  0  0  0  0
   -6.4238   -2.0677   29.1495 F   0  0  0  0  0  0  0  0  0  0  0  0
   -5.2325   -3.9726   29.5503 C   0  0  0  0  0  0  0  0  0  0  0  0
  3  4  1  0
  4 12  2  0
  4 13  1  0
  6 14  1  0
 14 15  1  6
 14 16  1  0
 16 17  2  3
 17 18  1  0
 18 19  1  0
 18 25  1  6
 17 26  1  0
 25 27  1  0
  2  5  1  0
  5  6  2  0
  6  7  1  0
  7  8  2  0
  8  9  1  0
 19 20  2  0
 20 21  1  0
 21 22  2  0
 22 23  1  0
 23 24  2  0
 24 19  1  0
  1  2  2  0
  2  9  1  0
  9 11  2  0
 11 10  1  0
 10  3  2  0
  3  1  1  0
M  END
$$$$
