No_8966-complexes_sdf/6BKW-FPZ/2024-09-17-14-21-01/
     RDKit          3D

 22 24  0  0  0  0  0  0  0  0999 V2000
   -7.2496    3.8871   27.4508 C   0  0  0  0  0  0  0  0  0  0  0  0
   -7.9379    4.9063   27.8518 C   0  0  0  0  0  0  0  0  0  0  0  0
   -9.3460    4.8223   27.8695 C   0  0  0  0  0  0  0  0  0  0  0  0
   -7.8628    2.6163   27.1065 C   0  0  0  0  0  0  0  0  0  0  0  0
   -9.2787    2.5744   27.1970 C   0  0  0  0  0  0  0  0  0  0  0  0
  -10.0108    3.6770   27.6340 C   0  0  0  0  0  0  0  0  0  0  0  0
  -11.4855    3.5731   27.7420 C   0  0  0  0  0  0  0  0  0  0  0  0
  -11.9299    2.8562   28.8221 C   0  0  0  0  0  0  0  0  0  0  0  0
  -13.2938    2.7194   29.1618 C   0  0  0  0  0  0  0  0  0  0  0  0
  -14.1926    3.3847   28.3454 C   0  0  0  0  0  0  0  0  0  0  0  0
  -13.7349    4.1610   27.2718 C   0  0  0  0  0  0  0  0  0  0  0  0
  -12.3654    4.3305   26.9983 C   0  0  0  0  0  0  0  0  0  0  0  0
   -7.1704    1.5529   26.7980 N   0  0  0  0  0  0  0  0  0  0  0  0
   -6.1961    1.0152   27.6322 C   0  0  0  0  0  0  0  0  0  0  0  0
   -5.8449   -0.0548   27.8636 C   0  0  0  0  0  0  0  0  0  0  0  0
   -4.7013   -0.3764   28.7752 C   0  0  0  0  0  0  0  0  0  0  0  0
   -4.4113   -1.6318   29.2969 C   0  0  0  0  0  0  0  0  0  0  0  0
   -5.1051    1.9159   28.3145 C   0  0  0  0  0  0  0  0  0  0  0  0
   -4.2802    0.9790   28.9651 C   0  0  0  0  0  0  0  0  0  0  0  0
   -4.7427   -2.6586   28.8037 C   0  0  0  0  0  0  0  0  0  0  0  0
   -4.4897   -3.8912   29.2773 C   0  0  0  0  0  0  0  0  0  0  0  0
   -3.6159   -3.9399   30.4464 C   0  0  0  0  0  0  0  0  0  0  0  0
  6  7  1  0
  4 13  1  0
 13 14  1  0
 14 15  2  0
 15 16  1  0
 16 17  2  3
 14 18  1  0
 16 19  1  0
 18 19  1  0
 17 20  1  0
 20 21  2  3
 21 22  1  0
  1  2  2  0
  2  3  1  0
  3  6  2  0
  6  5  1  0
  5  4  2  0
  4  1  1  0
  7  8  2  0
  8  9  1  0
  9 10  2  0
 10 11  1  0
 11 12  2  0
 12  7  1  0
M  END
$$$$
