No_8461-complexes_sdf/6BKW-FPZ/2024-09-17-14-21-01/
     RDKit          3D

 14 15  0  0  0  0  0  0  0  0999 V2000
   -7.2496    3.8871   27.4508 C   0  0  0  0  0  0  0  0  0  0  0  0
   -7.6161    2.7143   27.1523 C   0  0  0  0  0  0  0  0  0  0  0  0
   -8.8302    2.4659   26.5056 C   0  0  0  0  0  0  0  0  0  0  0  0
   -8.1584    5.0090   27.3234 C   0  0  0  0  0  0  0  0  0  0  0  0
   -9.3788    4.7965   26.7695 C   0  0  0  0  0  0  0  0  0  0  0  0
   -9.7028    3.5649   26.3276 C   0  0  0  0  0  0  0  0  0  0  0  0
   -6.7190    1.5585   27.3667 C   0  0  1  0  0  0  0  0  0  0  0  0
   -5.5646    1.7458   28.0273 N   0  0  0  0  0  0  0  0  0  0  0  0
   -7.0023    0.2454   26.9871 C   0  0  0  0  0  0  0  0  0  0  0  0
   -6.0684   -0.7015   27.2935 C   0  0  0  0  0  0  0  0  0  0  0  0
   -4.6315    0.8522   28.3117 C   0  0  0  0  0  0  0  0  0  0  0  0
   -4.8919   -0.4300   27.9865 C   0  0  0  0  0  0  0  0  0  0  0  0
   -7.4314    6.5270   27.8425 Cl  0  0  0  0  0  0  0  0  0  0  0  0
   -3.6067    1.3566   28.9066 O   0  0  0  0  0  0  0  0  0  0  0  0
  7  2  1  1
  7  9  1  0
  9 10  1  0
  8 11  1  0
 10 12  1  0
 11 12  1  0
  4 13  1  0
 11 14  2  0
  8  7  1  0
  1  2  2  0
  2  3  1  0
  3  6  2  0
  6  5  1  0
  5  4  2  0
  4  1  1  0
M  END
$$$$
