No_8801-complexes_sdf/6BKW-FPZ/2024-09-17-14-21-01/
     RDKit          3D

 12 13  0  0  0  0  0  0  0  0999 V2000
   -7.7129    4.2099   27.0854 C   0  0  0  0  0  0  0  0  0  0  0  0
   -7.7814    5.1722   27.8972 C   0  0  0  0  0  0  0  0  0  0  0  0
   -7.2983    2.9533   27.5684 C   0  0  0  0  0  0  0  0  0  0  0  0
   -6.0337    2.9060   27.9106 C   0  0  0  0  0  0  0  0  0  0  0  0
   -8.3690    6.4367   27.4593 C   0  0  0  0  0  0  0  0  0  0  0  0
   -9.0204    6.4787   26.2055 C   0  0  0  0  0  0  0  0  0  0  0  0
   -8.6381    4.2862   25.9600 C   0  0  0  0  0  0  0  0  0  0  0  0
   -9.2601    5.4129   25.5678 C   0  0  0  0  0  0  0  0  0  0  0  0
   -5.3365    1.6276   28.1778 C   0  0  0  0  0  0  0  0  0  0  0  0
   -6.0517    0.4328   27.9364 C   0  0  0  0  0  0  0  0  0  0  0  0
   -7.8871    1.7387   27.1762 C   0  0  0  0  0  0  0  0  0  0  0  0
   -7.3327    0.5282   27.3966 C   0  0  0  0  0  0  0  0  0  0  0  0
  1  3  1  0
  3  4  2  0
  4  9  1  0
  9 10  2  0
 10 12  1  0
 12 11  2  0
 11  3  1  0
  1  2  2  0
  2  5  1  0
  5  6  2  0
  6  8  1  0
  8  7  2  0
  7  1  1  0
M  END
$$$$
