No_8155-complexes_sdf/6BKW-FPZ/2024-09-17-14-21-01/
     RDKit          3D

 27 31  0  0  0  0  0  0  0  0999 V2000
   -7.9040    3.9820   27.1177 C   0  0  0  0  0  0  0  0  0  0  0  0
   -7.8663    4.8694   27.9238 C   0  0  0  0  0  0  0  0  0  0  0  0
   -9.0491    3.8523   26.2542 C   0  0  0  0  0  0  0  0  0  0  0  0
   -8.7661    5.9491   27.9690 C   0  0  0  0  0  0  0  0  0  0  0  0
   -9.9295    4.8502   26.2323 C   0  0  0  0  0  0  0  0  0  0  0  0
   -9.8077    5.9288   27.0933 C   0  0  0  0  0  0  0  0  0  0  0  0
   -7.0120    2.8934   27.1747 N   0  0  0  0  0  0  0  0  0  0  0  0
   -7.2911    1.5905   26.8161 C   0  0  0  0  0  0  0  0  0  0  0  0
   -6.9059    0.6189   27.6527 C   0  0  0  0  0  0  0  0  0  0  0  0
   -7.2741   -0.7402   27.4208 C   0  0  0  0  0  0  0  0  0  0  0  0
   -8.1474   -0.9364   26.3350 C   0  0  0  0  0  0  0  0  0  0  0  0
   -8.6328    0.0677   25.5975 C   0  0  0  0  0  0  0  0  0  0  0  0
   -8.2476    1.4055   25.8914 C   0  0  0  0  0  0  0  0  0  0  0  0
   -9.2361    2.5592   25.5268 C   0  0  0  0  0  0  0  0  0  0  0  0
  -10.1802    2.4258   24.5305 C   0  0  0  0  0  0  0  0  0  0  0  0
   -9.7532    2.2333   23.3039 C   0  0  0  0  0  0  0  0  0  0  0  0
  -11.5183    2.4383   24.8560 C   0  0  0  0  0  0  0  0  0  0  0  0
  -10.5524    2.2487   22.1709 C   0  0  0  0  0  0  0  0  0  0  0  0
  -12.4567    2.4147   23.7678 C   0  0  0  0  0  0  0  0  0  0  0  0
  -11.9472    2.3068   22.4480 C   0  0  0  0  0  0  0  0  0  0  0  0
   -6.6393   -1.8180   28.1624 C   0  0  0  0  0  0  0  0  0  0  0  0
   -7.3870   -2.3952   29.1329 C   0  0  0  0  0  0  0  0  0  0  0  0
   -6.7905   -3.3372   30.0739 C   0  0  0  0  0  0  0  0  0  0  0  0
   -7.4448   -3.8085   31.2035 C   0  0  0  0  0  0  0  0  0  0  0  0
   -8.8091   -3.3371   31.4322 C   0  0  0  0  0  0  0  0  0  0  0  0
   -9.3993   -2.4774   30.5260 C   0  0  0  0  0  0  0  0  0  0  0  0
   -8.7064   -1.9310   29.4756 C   0  0  0  0  0  0  0  0  0  0  0  0
 14 15  1  0
 10 21  1  0
 21 22  1  0
 22 23  2  0
 23 24  1  0
 24 25  2  0
 25 26  1  0
 26 27  2  0
 27 22  1  0
 15 16  2  0
 16 18  1  0
 18 20  2  0
 20 19  1  0
 19 17  2  0
 17 15  1  0
  3 14  1  0
 14 13  2  0
  8  7  2  0
  7  1  1  0
  1  2  2  0
  2  4  1  0
  4  6  2  0
  6  5  1  0
  5  3  2  0
  3  1  1  0
  8  9  1  0
  9 10  2  0
 10 11  1  0
 11 12  2  0
 12 13  1  0
 13  8  1  0
M  END
$$$$
