No_8779-complexes_sdf/6BKW-FPZ/2024-09-17-14-21-01/
     RDKit          3D

 13 14  0  0  0  0  0  0  0  0999 V2000
   -7.2496    3.8871   27.4508 C   0  0  0  0  0  0  0  0  0  0  0  0
   -7.9379    4.9063   27.8518 C   0  0  0  0  0  0  0  0  0  0  0  0
   -7.5112    6.1898   27.6280 C   0  0  0  0  0  0  0  0  0  0  0  0
   -9.4044    4.7330   27.8015 C   0  0  0  0  0  0  0  0  0  0  0  0
   -7.6918    2.5968   27.9026 C   0  0  0  0  0  0  0  0  0  0  0  0
   -9.0781    2.2804   27.6915 C   0  0  0  0  0  0  0  0  0  0  0  0
   -9.9100    3.4274   27.9756 C   0  0  0  0  0  0  0  0  0  0  0  0
  -11.3592    3.1510   28.1884 C   0  0  0  0  0  0  0  0  0  0  0  0
  -12.1822    4.1264   28.4258 C   0  0  0  0  0  0  0  0  0  0  0  0
  -11.7516    1.8195   28.5296 C   0  0  0  0  0  0  0  0  0  0  0  0
  -13.5170    4.0325   28.8823 C   0  0  0  0  0  0  0  0  0  0  0  0
  -13.0804    1.5985   28.9439 C   0  0  0  0  0  0  0  0  0  0  0  0
  -13.9284    2.7142   29.1172 C   0  0  0  0  0  0  0  0  0  0  0  0
  2  3  1  0
  7  8  1  0
  8  9  2  0
  9 11  1  0
 11 13  2  0
 13 12  1  0
 12 10  2  0
 10  8  1  0
  1  2  2  0
  2  4  1  0
  4  7  2  0
  7  6  1  0
  6  5  2  0
  5  1  1  0
M  END
$$$$
