No_8613-complexes_sdf/6BKW-FPZ/2024-09-17-14-21-01/
     RDKit          3D

 16 17  0  0  0  0  0  0  0  0999 V2000
   -7.9040    3.9820   27.1177 C   0  0  0  0  0  0  0  0  0  0  0  0
   -8.2057    2.8231   26.8733 C   0  0  0  0  0  0  0  0  0  0  0  0
   -8.7695    5.0740   26.7916 C   0  0  0  0  0  0  0  0  0  0  0  0
   -9.9618    4.7598   26.1630 C   0  0  0  0  0  0  0  0  0  0  0  0
   -9.4200    2.4524   26.2849 C   0  0  0  0  0  0  0  0  0  0  0  0
  -10.2590    3.4815   25.9250 C   0  0  0  0  0  0  0  0  0  0  0  0
   -8.6094    6.4941   27.0911 C   0  0  0  0  0  0  0  0  0  0  0  0
   -8.8896    7.3291   26.3915 F   0  0  0  0  0  0  0  0  0  0  0  0
   -7.0873    6.6409   27.3490 F   0  0  0  0  0  0  0  0  0  0  0  0
   -7.3257    1.7620   27.2638 N   0  0  0  0  0  0  0  0  0  0  0  0
   -6.0703    2.0074   27.7908 C   0  0  0  0  0  0  0  0  0  0  0  0
   -5.1285    0.8305   27.7952 C   0  0  0  0  0  0  0  0  0  0  0  0
   -5.6157   -0.3281   27.4337 C   0  0  0  0  0  0  0  0  0  0  0  0
   -7.3302    0.3546   26.9197 C   0  0  0  0  0  0  0  0  0  0  0  0
   -3.6221    1.2198   28.5830 Cl  0  0  0  0  0  0  0  0  0  0  0  0
   -9.0877    6.6623   28.3898 F   0  0  0  0  0  0  0  0  0  0  0  0
  3  7  1  0
  7  8  1  0
  7  9  1  0
  2 10  1  0
 10 11  1  0
 11 12  2  0
 12 13  1  0
 10 14  1  0
 13 14  2  0
 12 15  1  0
  7 16  1  0
  1  2  2  0
  2  5  1  0
  5  6  2  0
  6  4  1  0
  4  3  2  0
  3  1  1  0
M  END
$$$$
