No_8244-complexes_sdf/6BKW-FPZ/2024-09-17-14-21-01/
     RDKit          3D

 30 33  0  0  0  0  0  0  0  0999 V2000
   -7.9040    3.9820   27.1177 C   0  0  0  0  0  0  0  0  0  0  0  0
   -9.0711    4.3164   27.0630 C   0  0  0  0  0  0  0  0  0  0  0  0
   -9.5182    5.5541   27.5777 C   0  0  0  0  0  0  0  0  0  0  0  0
   -7.4468    2.6843   26.6499 C   0  0  0  0  0  0  0  0  0  0  0  0
   -8.3856    1.7878   26.2216 C   0  0  0  0  0  0  0  0  0  0  0  0
   -9.6812    2.2328   26.0889 C   0  0  0  0  0  0  0  0  0  0  0  0
  -10.0147    3.4312   26.5259 C   0  0  0  0  0  0  0  0  0  0  0  0
   -7.8391    0.2485   25.7439 Cl  0  0  0  0  0  0  0  0  0  0  0  0
   -8.5622    6.6458   27.4788 C   0  0  0  0  0  0  0  0  0  0  0  0
   -7.9882    6.9239   26.1756 C   0  0  0  0  0  0  0  0  0  0  0  0
   -8.7776    7.9557   25.8855 C   0  0  0  0  0  0  0  0  0  0  0  0
  -10.6449    1.2444   25.5054 C   0  0  0  0  0  0  0  0  0  0  0  0
  -10.8005    1.0872   24.2260 C   0  0  0  0  0  0  0  0  0  0  0  0
  -11.4036    0.0724   23.6448 C   0  0  0  0  0  0  0  0  0  0  0  0
  -12.1205   -0.8151   24.4605 C   0  0  0  0  0  0  0  0  0  0  0  0
  -11.1813    0.2354   26.3322 C   0  0  0  0  0  0  0  0  0  0  0  0
  -11.9665   -0.7566   25.8541 C   0  0  0  0  0  0  0  0  0  0  0  0
  -12.9154   -1.8881   23.8558 C   0  0  2  0  0  0  0  0  0  0  0  0
  -13.5208   -2.7229   24.4139 N   0  0  0  0  0  0  0  0  0  0  0  0
  -12.6541   -2.1555   22.6859 F   0  0  0  0  0  0  0  0  0  0  0  0
  -14.4580   -3.6250   23.9257 C   0  0  0  0  0  0  0  0  0  0  0  0
  -15.1170   -4.3534   24.3500 C   0  0  0  0  0  0  0  0  0  0  0  0
  -15.1455   -4.5048   25.8544 C   0  0  0  0  0  0  0  0  0  0  0  0
  -14.2634   -3.6749   26.5546 C   0  0  0  0  0  0  0  0  0  0  0  0
  -13.4966   -2.7821   25.9286 C   0  0  2  0  0  0  0  0  0  0  0  0
  -12.6960   -1.7928   26.6648 C   0  0  0  0  0  0  0  0  0  0  0  0
  -12.5570   -1.7400   28.0746 C   0  0  0  0  0  0  0  0  0  0  0  0
  -11.7540   -0.8099   28.7498 C   0  0  0  0  0  0  0  0  0  0  0  0
  -11.0651    0.2799   27.8133 C   0  0  0  0  0  0  0  0  0  0  0  0
  -11.2799   -0.3497   27.2053 Cl  0  0  0  0  0  0  0  0  0  0  0  0
  2  3  1  0
  5  8  1  0
  3  9  1  0
  9 10  1  0
 10 11  1  0
  6 12  1  0
 15 18  1  0
 18 19  1  0
 18 20  1  6
 19 21  1  0
 22 23  1  0
 19 25  1  0
 25 24  1  1
 17 26  1  0
 25 26  1  0
 26 27  1  0
 27 28  2  3
 28 29  1  0
 29 30  1  0
 21 22  1  0
 23 24  1  0
 12 13  2  0
 13 14  1  0
 14 15  2  0
 15 17  1  0
 17 16  2  0
 16 12  1  0
  1  2  2  0
  2  7  1  0
  7  6  2  0
  6  5  1  0
  5  4  2  0
  4  1  1  0
M  END
$$$$
