No_8527-complexes_sdf/6BKW-FPZ/2024-09-17-14-21-01/
     RDKit          3D

 18 19  0  0  0  0  0  0  0  0999 V2000
   -7.9040    3.9820   27.1177 C   0  0  0  0  0  0  0  0  0  0  0  0
   -9.0711    4.3164   27.0630 C   0  0  0  0  0  0  0  0  0  0  0  0
  -10.0395    3.8218   27.1938 C   0  0  0  0  0  0  0  0  0  0  0  0
   -7.6424    2.5858   27.3610 C   0  0  0  0  0  0  0  0  0  0  0  0
   -8.7741    1.7889   27.4566 C   0  0  0  0  0  0  0  0  0  0  0  0
  -11.4607    4.3266   27.1440 C   0  0  1  0  0  0  0  0  0  0  0  0
   -9.9973    2.3765   27.4118 C   0  0  0  0  0  0  0  0  0  0  0  0
   -6.1194    1.7933   27.5369 Cl  0  0  0  0  0  0  0  0  0  0  0  0
  -12.2414    4.2090   26.2063 C   0  0  0  0  0  0  0  0  0  0  0  0
  -13.6359    4.6954   26.2855 C   0  0  0  0  0  0  0  0  0  0  0  0
  -14.5293    4.5871   25.2047 C   0  0  0  0  0  0  0  0  0  0  0  0
  -14.0053    4.0546   24.0031 C   0  0  0  0  0  0  0  0  0  0  0  0
  -12.7200    3.6584   23.9023 C   0  0  0  0  0  0  0  0  0  0  0  0
  -11.8331    3.7556   24.9370 C   0  0  0  0  0  0  0  0  0  0  0  0
   -9.0764    5.9661   26.8300 C   0  0  0  0  0  0  0  0  0  0  0  0
   -8.1033    6.5247   26.3641 Br  0  0  0  0  0  0  0  0  0  0  0  0
  -11.9584    4.7591   28.5400 C   0  0  0  0  0  0  0  0  0  0  0  0
  -11.5014    1.2788   27.6600 Br  0  0  0  0  0  0  0  0  0  0  0  0
  3  6  1  0
  4  8  1  0
  2 15  1  0
 15 16  1  0
  6 17  1  1
  7 18  1  0
  6  9  1  0
  1  2  2  0
  2  3  1  0
  3  7  2  0
  7  5  1  0
  5  4  2  0
  4  1  1  0
  9 10  2  0
 10 11  1  0
 11 12  2  0
 12 13  1  0
 13 14  2  0
 14  9  1  0
M  END
$$$$
