No_8224-complexes_sdf/6BKW-FPZ/2024-09-17-14-21-01/
     RDKit          3D

 12 13  0  0  0  0  0  0  0  0999 V2000
   -7.7129    4.2099   27.0854 C   0  0  0  0  0  0  0  0  0  0  0  0
   -7.7814    5.1722   27.8972 C   0  0  0  0  0  0  0  0  0  0  0  0
   -8.8776    3.8408   26.3416 C   0  0  0  0  0  0  0  0  0  0  0  0
   -9.9844    4.6492   26.4743 C   0  0  0  0  0  0  0  0  0  0  0  0
   -8.7830    6.1594   27.8870 C   0  0  0  0  0  0  0  0  0  0  0  0
   -9.9269    5.8191   27.1183 C   0  0  0  0  0  0  0  0  0  0  0  0
   -9.0878    2.6571   25.5841 C   0  0  0  0  0  0  0  0  0  0  0  0
   -9.8930    1.7750   26.0801 C   0  0  0  0  0  0  0  0  0  0  0  0
  -10.0251    0.4763   25.4115 C   0  0  0  0  0  0  0  0  0  0  0  0
   -9.3308    0.3322   24.2136 C   0  0  0  0  0  0  0  0  0  0  0  0
   -8.6315    1.3293   23.6114 C   0  0  0  0  0  0  0  0  0  0  0  0
   -8.4338    2.5007   24.3272 C   0  0  0  0  0  0  0  0  0  0  0  0
  3  7  1  0
  1  2  2  0
  2  5  1  0
  5  6  2  0
  6  4  1  0
  4  3  2  0
  3  1  1  0
  7  8  2  0
  8  9  1  0
  9 10  2  0
 10 11  1  0
 11 12  2  0
 12  7  1  0
M  END
$$$$
