No_8384-complexes_sdf/6BKW-FPZ/2024-09-17-14-21-01/
     RDKit          3D

 16 17  0  0  0  0  0  0  0  0999 V2000
   -7.9040    3.9820   27.1177 C   0  0  0  0  0  0  0  0  0  0  0  0
   -7.8663    4.8694   27.9238 C   0  0  0  0  0  0  0  0  0  0  0  0
   -9.0491    3.8523   26.2542 C   0  0  0  0  0  0  0  0  0  0  0  0
   -8.7661    5.9491   27.9690 C   0  0  0  0  0  0  0  0  0  0  0  0
   -9.9295    4.8502   26.2323 C   0  0  0  0  0  0  0  0  0  0  0  0
   -9.8077    5.9288   27.0933 C   0  0  0  0  0  0  0  0  0  0  0  0
   -9.0726    2.7074   25.3087 C   0  0  0  0  0  0  0  0  0  0  0  0
   -9.9759    2.7847   24.3262 N   0  0  0  0  0  0  0  0  0  0  0  0
   -9.9721    1.7387   23.4603 C   0  0  0  0  0  0  0  0  0  0  0  0
   -9.0226    1.4528   25.9072 C   0  0  0  0  0  0  0  0  0  0  0  0
   -8.3316    1.2391   27.2112 C   0  0  0  0  0  0  0  0  0  0  0  0
   -8.8396    0.3618   25.0597 C   0  0  0  0  0  0  0  0  0  0  0  0
   -9.5675    0.4888   23.8362 C   0  0  0  0  0  0  0  0  0  0  0  0
   -7.5675   -0.0615   27.3915 C   0  0  0  0  0  0  0  0  0  0  0  0
   -7.7455   -1.0647   26.5467 C   0  0  0  0  0  0  0  0  0  0  0  0
   -8.3213   -0.8774   25.3181 C   0  0  0  0  0  0  0  0  0  0  0  0
  3  7  1  0
 10 11  1  0
 11 14  2  3
 14 15  1  0
 15 16  1  0
  7  8  2  0
  8  9  1  0
  9 13  2  0
 13 12  1  0
 12 10  2  0
 10  7  1  0
  1  2  2  0
  2  4  1  0
  4  6  2  0
  6  5  1  0
  5  3  2  0
  3  1  1  0
M  END
$$$$
