No_864-complexes_sdf/6BKW-FPZ/2024-09-17-14-21-01/
     RDKit          3D

 40 43  0  0  0  0  0  0  0  0999 V2000
   -7.9040    3.9820   27.1177 C   0  0  0  0  0  0  0  0  0  0  0  0
   -8.2057    2.8231   26.8733 C   0  0  0  0  0  0  0  0  0  0  0  0
   -9.2962    2.4021   26.1155 C   0  0  0  0  0  0  0  0  0  0  0  0
   -8.8403    4.9695   26.9329 C   0  0  0  0  0  0  0  0  0  0  0  0
   -9.9203    4.6961   26.0942 C   0  0  0  0  0  0  0  0  0  0  0  0
  -10.1704    3.4287   25.7979 C   0  0  0  0  0  0  0  0  0  0  0  0
   -8.4818    6.4135   27.2143 C   0  0  0  0  0  0  0  0  0  0  0  0
   -7.4494    7.4564   26.4091 P   0  0  0  0  0  0  0  0  0  0  0  0
   -7.3338    8.4749   27.2934 O   0  0  0  0  0  0  0  0  0  0  0  0
   -8.1737    7.8826   25.4426 O   0  0  0  0  0  0  0  0  0  0  0  0
   -6.3637    6.8715   26.7487 O   0  0  0  0  0  0  0  0  0  0  0  0
   -7.2079    1.6429   27.2632 C   0  0  0  0  0  0  0  0  0  0  0  0
   -6.0070    1.9865   27.9219 C   0  0  0  0  0  0  0  0  0  0  0  0
   -5.1099    0.9125   28.2708 C   0  0  0  0  0  0  0  0  0  0  0  0
   -5.4530   -0.3832   28.1162 C   0  0  0  0  0  0  0  0  0  0  0  0
   -7.3251    0.2596   27.2291 C   0  0  0  0  0  0  0  0  0  0  0  0
   -6.6287   -0.6675   27.6083 C   0  0  0  0  0  0  0  0  0  0  0  0
   -4.4930   -1.4117   28.6800 C   0  0  0  0  0  0  0  0  0  0  0  0
   -3.5405   -1.6469   28.2567 O   0  0  0  0  0  0  0  0  0  0  0  0
   -4.7932   -1.6861   30.0087 O   0  0  0  0  0  0  0  0  0  0  0  0
   -4.2324   -1.8080   30.8648 C   0  0  0  0  0  0  0  0  0  0  0  0
   -4.4265   -1.5287   32.0305 C   0  0  0  0  0  0  0  0  0  0  0  0
   -4.0440   -1.2971   33.0606 C   0  0  0  0  0  0  0  0  0  0  0  0
   -2.5734   -1.7080   33.2406 C   0  0  0  0  0  0  0  0  0  0  0  0
   -2.0116   -2.0891   31.9818 C   0  0  0  0  0  0  0  0  0  0  0  0
   -2.7489   -2.0280   30.8136 C   0  0  0  0  0  0  0  0  0  0  0  0
   -1.8374   -1.6203   34.4915 C   0  0  1  0  0  0  0  0  0  0  0  0
   -0.8992   -0.9222   34.5012 O   0  0  0  0  0  0  0  0  0  0  0  0
   -2.5441   -1.7090   35.6206 N   0  0  0  0  0  0  0  0  0  0  0  0
   -1.9094   -1.4618   36.9197 C   0  0  1  0  0  0  0  0  0  0  0  0
   -2.7172   -0.9505   37.9043 C   0  0  0  0  0  0  0  0  0  0  0  0
   -2.5673   -0.0138   38.6082 C   0  0  0  0  0  0  0  0  0  0  0  0
   -3.5778    0.6128   39.5036 C   0  0  0  0  0  0  0  0  0  0  0  0
   -4.8430    0.0254   39.4787 C   0  0  0  0  0  0  0  0  0  0  0  0
   -5.0759   -1.0212   38.6221 C   0  0  0  0  0  0  0  0  0  0  0  0
   -4.1142   -1.4440   37.7952 C   0  0  0  0  0  0  0  0  0  0  0  0
   -1.1669   -2.6437   37.3843 C   0  0  0  0  0  0  0  0  0  0  0  0
   -1.6196   -3.8635   37.2788 C   0  0  0  0  0  0  0  0  0  0  0  0
   -0.9191   -4.9542   37.7675 C   0  0  0  0  0  0  0  0  0  0  0  0
   -1.4555   -6.2380   37.6725 C   0  0  0  0  0  0  0  0  0  0  0  0
  4  7  1  0
  7  8  1  0
  8  9  1  0
  8 10  1  0
  8 11  1  0
  2 12  1  0
 15 18  1  0
 18 19  2  0
 18 20  1  0
 20 21  1  0
 24 27  1  0
 27 28  1  1
 27 29  1  0
 30 29  1  6
 30 31  1  0
 30 37  1  0
 37 38  2  3
 38 39  1  0
 39 40  1  0
 12 13  2  0
 13 14  1  0
 14 15  2  0
 15 17  1  0
 17 16  2  0
 16 12  1  0
 31 32  2  0
 32 33  1  0
 33 34  2  0
 34 35  1  0
 35 36  2  0
 36 31  1  0
  1  2  2  0
  2  3  1  0
  3  6  2  0
  6  5  1  0
  5  4  2  0
  4  1  1  0
 21 22  2  0
 22 23  1  0
 23 24  2  0
 24 25  1  0
 25 26  2  0
 26 21  1  0
M  END
$$$$
