No_8928-complexes_sdf/6BKW-FPZ/2024-09-17-14-21-01/
     RDKit          3D

 30 32  0  0  0  0  0  0  0  0999 V2000
   -7.2496    3.8871   27.4508 C   0  0  0  0  0  0  0  0  0  0  0  0
   -8.5096    4.0291   27.2770 C   0  0  0  0  0  0  0  0  0  0  0  0
   -9.3502    2.8685   26.8763 C   0  0  0  0  0  0  0  0  0  0  0  0
   -6.6288    2.5513   27.4938 C   0  0  0  0  0  0  0  0  0  0  0  0
   -7.4365    1.4714   27.2032 C   0  0  0  0  0  0  0  0  0  0  0  0
   -8.7772    1.6579   26.9338 C   0  0  0  0  0  0  0  0  0  0  0  0
   -9.1078    5.3660   27.2249 C   0  0  0  0  0  0  0  0  0  0  0  0
  -10.3243    5.4180   27.6589 F   0  0  0  0  0  0  0  0  0  0  0  0
   -8.3971    6.2640   28.0444 F   0  0  0  0  0  0  0  0  0  0  0  0
   -9.0207    5.8742   25.9697 F   0  0  0  0  0  0  0  0  0  0  0  0
   -6.9973    0.1096   27.1621 C   0  0  0  0  0  0  0  0  0  0  0  0
   -5.9434   -0.1531   27.8173 F   0  0  0  0  0  0  0  0  0  0  0  0
   -6.6623   -0.4157   26.0653 F   0  0  0  0  0  0  0  0  0  0  0  0
   -7.9335   -0.7412   27.7459 F   0  0  0  0  0  0  0  0  0  0  0  0
  -10.5729    3.0432   26.6511 F   0  0  0  0  0  0  0  0  0  0  0  0
   -5.3725    2.4675   27.8007 O   0  0  0  0  0  0  0  0  0  0  0  0
   -9.5902    0.6866   26.7036 O   0  0  0  0  0  0  0  0  0  0  0  0
  -10.4175    0.1442   26.0104 C   0  0  0  0  0  0  0  0  0  0  0  0
  -11.4752   -0.2885   26.3738 C   0  0  0  0  0  0  0  0  0  0  0  0
  -12.4994   -0.7592   25.5275 C   0  0  0  0  0  0  0  0  0  0  0  0
  -12.1791   -0.7315   24.1639 C   0  0  0  0  0  0  0  0  0  0  0  0
  -10.9851   -0.2236   23.7082 C   0  0  0  0  0  0  0  0  0  0  0  0
  -10.0266    0.3082   24.5988 C   0  0  0  0  0  0  0  0  0  0  0  0
  -13.1264   -1.2216   23.2888 O   0  0  0  0  0  0  0  0  0  0  0  0
  -14.2809   -1.2454   23.3548 C   0  0  0  0  0  0  0  0  0  0  0  0
  -14.9463   -2.4319   23.7590 C   0  0  0  0  0  0  0  0  0  0  0  0
  -16.3009   -2.4598   23.9627 C   0  0  0  0  0  0  0  0  0  0  0  0
  -17.0550   -1.2955   23.6494 C   0  0  0  0  0  0  0  0  0  0  0  0
  -15.0276   -0.0065   23.2767 C   0  0  0  0  0  0  0  0  0  0  0  0
  -16.0340    0.1251   23.3226 C   0  0  0  0  0  0  0  0  0  0  0  0
  2  7  1  0
  7  8  1  0
  7  9  1  0
  7 10  1  0
  5 11  1  0
 11 12  1  0
 11 13  1  0
 11 14  1  0
  3 15  1  0
  4 16  1  0
  6 17  1  0
 17 18  1  0
 21 24  1  0
 24 25  1  0
 18 19  2  0
 19 20  1  0
 20 21  2  0
 21 22  1  0
 22 23  2  0
 23 18  1  0
  1  2  2  0
  2  3  1  0
  3  6  2  0
  6  5  1  0
  5  4  2  0
  4  1  1  0
 25 26  2  0
 26 27  1  0
 27 28  2  0
 28 30  1  0
 30 29  2  0
 29 25  1  0
M  END
$$$$
