No_8158-complexes_sdf/6BKW-FPZ/2024-09-17-14-21-01/
     RDKit          3D

 20 22  0  0  0  0  0  0  0  0999 V2000
   -7.7129    4.2099   27.0854 C   0  0  0  0  0  0  0  0  0  0  0  0
   -7.7814    5.1722   27.8972 C   0  0  0  0  0  0  0  0  0  0  0  0
   -8.8998    3.8713   26.3707 C   0  0  0  0  0  0  0  0  0  0  0  0
   -8.9563    2.6796   25.5490 C   0  0  0  0  0  0  0  0  0  0  0  0
   -8.8131    6.1334   27.9344 C   0  0  0  0  0  0  0  0  0  0  0  0
   -9.9804    5.8121   27.1929 C   0  0  0  0  0  0  0  0  0  0  0  0
   -9.9861    4.6836   26.4532 C   0  0  0  0  0  0  0  0  0  0  0  0
   -8.3357    1.4961   26.0703 C   0  0  0  0  0  0  0  0  0  0  0  0
   -8.2040    0.3562   25.3419 C   0  0  0  0  0  0  0  0  0  0  0  0
   -8.8256    0.3872   24.0713 C   0  0  0  0  0  0  0  0  0  0  0  0
   -9.4830    1.3862   23.6916 C   0  0  0  0  0  0  0  0  0  0  0  0
   -9.4862    2.6122   24.3173 C   0  0  0  0  0  0  0  0  0  0  0  0
  -10.0776    1.4175   22.2783 C   0  0  1  0  0  0  0  0  0  0  0  0
  -10.3956    2.5022   21.7300 N   0  0  0  0  0  0  0  0  0  0  0  0
   -9.8686    3.4424   21.4706 C   0  0  0  0  0  0  0  0  0  0  0  0
  -11.8766    2.4118   21.3497 C   0  0  0  0  0  0  0  0  0  0  0  0
   -9.9899    0.2720   21.5736 N   0  0  0  0  0  0  0  0  0  0  0  0
  -11.0101    0.0311   20.7269 C   0  0  0  0  0  0  0  0  0  0  0  0
  -11.9063    1.1137   20.4417 C   0  0  0  0  0  0  0  0  0  0  0  0
   -6.6805    5.5754   28.6475 O   0  0  0  0  0  0  0  0  0  0  0  0
  3  4  1  0
 13 11  1  6
 13 14  1  0
 14 15  1  0
 14 16  1  0
 17 18  1  0
 16 19  1  0
  2 20  1  0
 13 17  1  0
 18 19  1  0
  4  8  2  0
  8  9  1  0
  9 10  2  0
 10 11  1  0
 11 12  2  0
 12  4  1  0
  1  2  2  0
  2  5  1  0
  5  6  2  0
  6  7  1  0
  7  3  2  0
  3  1  1  0
M  END
$$$$
