No_8830-complexes_sdf/6BKW-FPZ/2024-09-17-14-21-01/
     RDKit          3D

 20 22  0  0  0  0  0  0  0  0999 V2000
   -7.9040    3.9820   27.1177 C   0  0  0  0  0  0  0  0  0  0  0  0
   -8.2057    2.8231   26.8733 C   0  0  0  0  0  0  0  0  0  0  0  0
   -7.0130    4.3706   28.1140 C   0  0  0  0  0  0  0  0  0  0  0  0
   -9.3829    2.4374   26.1668 C   0  0  0  0  0  0  0  0  0  0  0  0
  -10.0975    3.4171   25.5988 C   0  0  0  0  0  0  0  0  0  0  0  0
   -9.7335    4.7745   25.7705 C   0  0  0  0  0  0  0  0  0  0  0  0
   -8.7317    5.1107   26.5933 C   0  0  0  0  0  0  0  0  0  0  0  0
   -8.3983    6.4679   26.8933 C   0  0  0  0  0  0  0  0  0  0  0  0
   -7.3346    6.7850   27.7126 C   0  0  0  0  0  0  0  0  0  0  0  0
   -6.7432    5.7302   28.3820 C   0  0  0  0  0  0  0  0  0  0  0  0
   -7.2966    1.4724   27.5889 Cl  0  0  0  0  0  0  0  0  0  0  0  0
  -11.1929    3.1053   24.6622 C   0  0  1  0  0  0  0  0  0  0  0  0
  -11.0735    2.1808   23.8918 C   0  0  0  0  0  0  0  0  0  0  0  0
  -10.9687    1.0133   24.0933 C   0  0  0  0  0  0  0  0  0  0  0  0
  -10.9147    2.5522   22.3869 C   0  0  0  0  0  0  0  0  0  0  0  0
  -10.6274    1.6132   21.4187 C   0  0  0  0  0  0  0  0  0  0  0  0
  -10.7276   -0.0953   23.1322 C   0  0  0  0  0  0  0  0  0  0  0  0
  -10.5717    0.2747   21.7756 C   0  0  0  0  0  0  0  0  0  0  0  0
  -12.4339    3.8236   24.8058 C   0  0  0  0  0  0  0  0  0  0  0  0
  -13.0910    3.9813   26.0538 C   0  0  0  0  0  0  0  0  0  0  0  0
  2 11  1  0
  5 12  1  0
 12 13  1  0
 12 19  1  1
 19 20  1  0
  1  3  1  0
  3 10  2  0
 10  9  1  0
  9  8  2  0
  8  7  1  0
  1  2  2  0
  2  4  1  0
  4  5  2  0
  5  6  1  0
  6  7  2  0
  7  1  1  0
 13 14  2  0
 14 17  1  0
 17 18  2  0
 18 16  1  0
 16 15  2  0
 15 13  1  0
M  END
$$$$
