No_8431-complexes_sdf/6BKW-FPZ/2024-09-17-14-21-01/
     RDKit          3D

 10 10  0  0  0  0  0  0  0  0999 V2000
   -7.2496    3.8871   27.4508 C   0  0  0  0  0  0  0  0  0  0  0  0
   -8.5096    4.0291   27.2770 C   0  0  0  0  0  0  0  0  0  0  0  0
   -9.3451    2.8786   26.9046 C   0  0  0  0  0  0  0  0  0  0  0  0
   -6.4420    5.0113   27.9803 C   0  0  0  0  0  0  0  0  0  0  0  0
   -8.6213    1.6592   26.7920 C   0  0  0  0  0  0  0  0  0  0  0  0
   -7.2951    1.5429   27.1113 C   0  0  0  0  0  0  0  0  0  0  0  0
   -6.5611    2.6427   27.5365 C   0  0  0  0  0  0  0  0  0  0  0  0
   -9.2250    5.2842   27.3683 C   0  0  0  0  0  0  0  0  0  0  0  0
   -8.9375    6.2588   26.2976 C   0  0  0  0  0  0  0  0  0  0  0  0
   -5.3044    2.5065   27.7568 F   0  0  0  0  0  0  0  0  0  0  0  0
  1  4  1  0
  2  8  1  0
  8  9  1  0
  7 10  1  0
  1  2  2  0
  2  3  1  0
  3  5  2  0
  5  6  1  0
  6  7  2  0
  7  1  1  0
M  END
$$$$
