No_8121-complexes_sdf/6BKW-FPZ/2024-09-17-14-21-01/
     RDKit          3D

 27 29  0  0  0  0  0  0  0  0999 V2000
   -7.9040    3.9820   27.1177 C   0  0  0  0  0  0  0  0  0  0  0  0
   -7.8663    4.8694   27.9238 C   0  0  0  0  0  0  0  0  0  0  0  0
   -9.0491    3.8523   26.2542 C   0  0  0  0  0  0  0  0  0  0  0  0
   -8.7661    5.9491   27.9690 C   0  0  0  0  0  0  0  0  0  0  0  0
   -9.1715    2.7136   25.4037 C   0  0  0  0  0  0  0  0  0  0  0  0
   -9.8832    5.8611   27.1405 C   0  0  0  0  0  0  0  0  0  0  0  0
  -10.0016    4.7998   26.3324 C   0  0  0  0  0  0  0  0  0  0  0  0
  -10.0469    2.7614   24.3077 C   0  0  0  0  0  0  0  0  0  0  0  0
  -10.1656    1.6626   23.4633 C   0  0  0  0  0  0  0  0  0  0  0  0
   -9.3077    0.5163   23.6938 C   0  0  0  0  0  0  0  0  0  0  0  0
   -8.4620    0.4906   24.7525 C   0  0  0  0  0  0  0  0  0  0  0  0
   -8.3294    1.5685   25.6095 C   0  0  0  0  0  0  0  0  0  0  0  0
   -9.4336   -0.6299   22.7552 C   0  0  0  0  0  0  0  0  0  0  0  0
  -10.1425   -0.6111   21.7017 C   0  0  0  0  0  0  0  0  0  0  0  0
  -10.9337    0.6151   21.4310 C   0  0  0  0  0  0  0  0  0  0  0  0
  -10.9339    1.6922   22.2778 C   0  0  0  0  0  0  0  0  0  0  0  0
  -11.7998    0.6157   20.1925 C   0  0  0  0  0  0  0  0  0  0  0  0
  -11.5799   -0.0975   19.2688 O   0  0  0  0  0  0  0  0  0  0  0  0
  -12.5287    1.6565   20.0610 O   0  0  0  0  0  0  0  0  0  0  0  0
   -7.5684   -0.6508   25.0456 C   0  0  2  0  0  0  0  0  0  0  0  0
   -6.4691   -0.7984   24.4027 C   0  0  0  0  0  0  0  0  0  0  0  0
   -8.0587   -1.5633   26.0200 C   0  0  0  0  0  0  0  0  0  0  0  0
   -8.7104   -1.3108   27.0124 C   0  0  0  0  0  0  0  0  0  0  0  0
   -9.1206   -2.2725   28.0744 C   0  0  0  0  0  0  0  0  0  0  0  0
   -9.9166   -1.8637   29.1542 C   0  0  0  0  0  0  0  0  0  0  0  0
  -10.6585   -0.6415   29.0279 C   0  0  0  0  0  0  0  0  0  0  0  0
  -10.3691    0.2976   28.0196 C   0  0  0  0  0  0  0  0  0  0  0  0
  3  5  1  0
 15 17  1  0
 17 18  2  0
 17 19  1  0
 11 20  1  0
 20 21  1  6
 20 22  1  0
 22 23  2  3
 23 24  1  0
 24 25  2  3
 25 26  1  0
 26 27  2  0
  5  8  2  0
  8  9  1  0
 10 11  1  0
 11 12  2  0
 12  5  1  0
  9 10  2  0
 10 13  1  0
 13 14  2  0
 14 15  1  0
 15 16  2  0
 16  9  1  0
  1  2  2  0
  2  4  1  0
  4  6  2  0
  6  7  1  0
  7  3  2  0
  3  1  1  0
M  END
$$$$
