No_8057-complexes_sdf/6BKW-FPZ/2024-09-17-14-21-01/
     RDKit          3D

 16 18  0  0  0  0  0  0  0  0999 V2000
   -7.7129    4.2099   27.0854 C   0  0  0  0  0  0  0  0  0  0  0  0
   -7.7814    5.1722   27.8972 C   0  0  0  0  0  0  0  0  0  0  0  0
   -8.8998    3.8713   26.3707 C   0  0  0  0  0  0  0  0  0  0  0  0
   -8.9563    2.6796   25.5490 C   0  0  0  0  0  0  0  0  0  0  0  0
   -8.8131    6.1334   27.9344 C   0  0  0  0  0  0  0  0  0  0  0  0
   -9.9804    5.8121   27.1929 C   0  0  0  0  0  0  0  0  0  0  0  0
   -9.9861    4.6836   26.4532 C   0  0  0  0  0  0  0  0  0  0  0  0
   -8.3568    1.4858   26.0897 C   0  0  0  0  0  0  0  0  0  0  0  0
   -8.2076    0.3518   25.3631 C   0  0  0  0  0  0  0  0  0  0  0  0
   -7.5535   -0.7325   25.9043 C   0  0  0  0  0  0  0  0  0  0  0  0
   -7.0253   -0.6988   27.2099 C   0  0  0  0  0  0  0  0  0  0  0  0
   -7.1352    0.5153   27.9169 C   0  0  0  0  0  0  0  0  0  0  0  0
   -7.7274    1.5847   27.4150 C   0  0  0  0  0  0  0  0  0  0  0  0
   -9.8125    2.4914   24.3765 C   0  0  0  0  0  0  0  0  0  0  0  0
  -10.5735    3.4946   23.9573 C   0  0  0  0  0  0  0  0  0  0  0  0
  -10.7936    4.6955   25.0191 C   0  0  0  0  0  0  0  0  0  0  0  0
  4  8  1  0
  3  4  2  0
  4 14  1  0
 14 15  2  0
 15 16  1  0
 16  7  2  0
  8  9  2  0
  9 10  1  0
 10 11  2  0
 11 12  1  0
 12 13  2  0
 13  8  1  0
  1  2  2  0
  2  5  1  0
  5  6  2  0
  6  7  1  0
  7  3  1  0
  3  1  1  0
M  END
$$$$
