No_8108-complexes_sdf/6BKW-FPZ/2024-09-17-14-21-01/
     RDKit          3D

 24 27  0  0  0  0  0  0  0  0999 V2000
   -7.2496    3.8871   27.4508 C   0  0  0  0  0  0  0  0  0  0  0  0
   -8.5096    4.0291   27.2770 C   0  0  0  0  0  0  0  0  0  0  0  0
   -9.3451    2.8786   26.9046 C   0  0  0  0  0  0  0  0  0  0  0  0
   -6.6065    2.5680   27.5073 C   0  0  0  0  0  0  0  0  0  0  0  0
   -7.4233    1.4858   27.2402 C   0  0  0  0  0  0  0  0  0  0  0  0
   -8.7362    1.6525   26.9989 C   0  0  0  0  0  0  0  0  0  0  0  0
   -9.0996    5.3741   27.2134 C   0  0  0  0  0  0  0  0  0  0  0  0
   -8.3772    6.4288   27.0042 N   0  0  0  0  0  0  0  0  0  0  0  0
  -10.3419    5.5221   27.4144 O   0  0  0  0  0  0  0  0  0  0  0  0
   -6.5946    0.2264   27.2758 C   0  0  0  0  0  0  0  0  0  0  0  0
   -5.4407    0.1309   27.7155 C   0  0  0  0  0  0  0  0  0  0  0  0
   -4.7622   -1.0874   27.8112 C   0  0  0  0  0  0  0  0  0  0  0  0
   -5.3347   -2.1723   27.1903 C   0  0  0  0  0  0  0  0  0  0  0  0
   -6.8827   -1.1313   26.7701 C   0  0  2  0  0  0  0  0  0  0  0  0
   -8.7954    7.8256   26.9920 C   0  0  0  0  0  0  0  0  0  0  0  0
   -6.9145   -1.2505   25.4824 C   0  0  1  0  0  0  0  0  0  0  0  0
   -7.3643   -0.8434   24.5089 C   0  0  0  0  0  0  0  0  0  0  0  0
   -5.5452   -2.1594   25.4331 C   0  0  0  0  0  0  0  0  0  0  0  0
   -7.9774   -1.7513   27.5086 C   0  0  0  0  0  0  0  0  0  0  0  0
   -6.7253   -0.6407   23.2291 C   0  0  0  0  0  0  0  0  0  0  0  0
   -7.4048   -0.1186   22.1116 C   0  0  0  0  0  0  0  0  0  0  0  0
   -8.7395    0.3400   22.2698 C   0  0  0  0  0  0  0  0  0  0  0  0
   -9.3909    0.2818   23.5201 C   0  0  0  0  0  0  0  0  0  0  0  0
   -8.6670   -0.2902   24.6119 C   0  0  0  0  0  0  0  0  0  0  0  0
  2  7  1  0
  7  8  1  0
  7  9  2  0
  5 10  1  0
 10 11  2  0
 11 12  1  0
 12 13  2  0
 10 14  1  0
 13 14  1  0
  8 15  1  0
 14 16  1  0
 13 18  1  0
 16 18  1  0
 14 19  1  1
 16 17  1  6
 17 20  2  0
 20 21  1  0
 21 22  2  0
 22 23  1  0
 23 24  2  0
 24 17  1  0
  1  2  2  0
  2  3  1  0
  3  6  2  0
  6  5  1  0
  5  4  2  0
  4  1  1  0
M  END
$$$$
