No_8573-complexes_sdf/6BKW-FPZ/2024-09-17-14-21-01/
     RDKit          3D

 18 19  0  0  0  0  0  0  0  0999 V2000
   -7.9040    3.9820   27.1177 C   0  0  0  0  0  0  0  0  0  0  0  0
   -9.0711    4.3164   27.0630 C   0  0  0  0  0  0  0  0  0  0  0  0
   -9.8698    3.9665   25.9494 C   0  0  0  0  0  0  0  0  0  0  0  0
   -7.0332    4.5030   28.2025 C   0  0  0  0  0  0  0  0  0  0  0  0
  -10.9909    4.7237   25.5958 C   0  0  0  0  0  0  0  0  0  0  0  0
   -7.5840    5.4918   28.9036 N   0  0  0  0  0  0  0  0  0  0  0  0
  -11.6517    5.1679   26.7607 C   0  0  0  0  0  0  0  0  0  0  0  0
  -11.0925    5.2111   28.0330 C   0  0  0  0  0  0  0  0  0  0  0  0
   -9.7770    4.8942   28.1775 C   0  0  0  0  0  0  0  0  0  0  0  0
   -8.9684    5.5937   28.9708 C   0  0  0  0  0  0  0  0  0  0  0  0
   -5.7253    4.3020   28.2152 N   0  0  0  0  0  0  0  0  0  0  0  0
   -9.1855    3.2822   24.8059 C   0  0  0  0  0  0  0  0  0  0  0  0
  -10.0693    2.6859   23.8997 C   0  0  0  0  0  0  0  0  0  0  0  0
  -10.4189    3.4678   22.7940 C   0  0  0  0  0  0  0  0  0  0  0  0
  -11.1096    2.9192   21.6736 C   0  0  0  0  0  0  0  0  0  0  0  0
  -11.5030    3.6266   20.6516 C   0  0  0  0  0  0  0  0  0  0  0  0
  -11.2773    5.0492   20.6938 C   0  0  0  0  0  0  0  0  0  0  0  0
  -10.6637    5.5869   21.7816 C   0  0  0  0  0  0  0  0  0  0  0  0
  4 11  1  0
  3 12  1  0
 12 13  1  0
 13 14  2  3
 14 15  1  0
 15 16  2  3
 16 17  1  0
 17 18  2  0
  2  3  1  0
  3  5  2  0
  5  7  1  0
  7  8  2  0
  8  9  1  0
  1  2  2  0
  2  9  1  0
  9 10  2  0
 10  6  1  0
  6  4  2  0
  4  1  1  0
M  END
$$$$
