No_8289-complexes_sdf/6BKW-FPZ/2024-09-17-14-21-01/
     RDKit          3D

 28 31  0  0  0  0  0  0  0  0999 V2000
   -7.7129    4.2099   27.0854 C   0  0  0  0  0  0  0  0  0  0  0  0
   -7.7814    5.1722   27.8972 C   0  0  0  0  0  0  0  0  0  0  0  0
   -8.8998    3.8713   26.3707 C   0  0  0  0  0  0  0  0  0  0  0  0
   -9.7416    3.2213   26.9591 C   0  0  0  0  0  0  0  0  0  0  0  0
  -10.0326    3.7911   28.3648 C   0  0  0  0  0  0  0  0  0  0  0  0
   -8.9883    5.6119   28.3672 C   0  0  0  0  0  0  0  0  0  0  0  0
   -9.9416    4.7701   28.8031 C   0  0  0  0  0  0  0  0  0  0  0  0
  -10.5126    2.0880   26.4615 C   0  0  1  0  0  0  0  0  0  0  0  0
  -10.0277    1.2528   25.7562 C   0  0  0  0  0  0  0  0  0  0  0  0
  -10.2028    0.3440   25.2480 C   0  0  0  0  0  0  0  0  0  0  0  0
   -9.4192   -0.4751   24.2209 C   0  0  0  0  0  0  0  0  0  0  0  0
   -8.2348    0.1363   23.7894 C   0  0  0  0  0  0  0  0  0  0  0  0
   -7.9070    1.3320   24.2806 C   0  0  0  0  0  0  0  0  0  0  0  0
   -8.6066    1.9111   25.1168 C   0  0  0  0  0  0  0  0  0  0  0  0
  -11.7895    1.7092   27.1302 C   0  0  0  0  0  0  0  0  0  0  0  0
  -12.9434    2.1959   26.7295 C   0  0  0  0  0  0  0  0  0  0  0  0
  -11.7790    0.7084   28.2079 C   0  0  0  0  0  0  0  0  0  0  0  0
  -12.8304    0.5019   29.0224 C   0  0  0  0  0  0  0  0  0  0  0  0
  -13.0180    3.1637   25.6984 C   0  0  0  0  0  0  0  0  0  0  0  0
  -14.0613    1.0739   28.5867 C   0  0  0  0  0  0  0  0  0  0  0  0
  -14.1272    1.9519   27.4770 C   0  0  0  0  0  0  0  0  0  0  0  0
  -12.2419    4.2520   25.6528 C   0  0  0  0  0  0  0  0  0  0  0  0
  -13.9114    2.8696   24.6267 C   0  0  0  0  0  0  0  0  0  0  0  0
  -14.7681    2.2648   24.5527 C   0  0  0  0  0  0  0  0  0  0  0  0
  -15.6034    2.0147   23.3465 C   0  0  0  0  0  0  0  0  0  0  0  0
  -15.1413    2.4534   22.4867 C   0  0  0  0  0  0  0  0  0  0  0  0
  -13.7210    3.4295   23.2014 C   0  0  2  0  0  0  0  0  0  0  0  0
  -12.7179    3.3692   22.3043 C   0  0  0  0  0  0  0  0  0  0  0  0
  1  2  1  0
  1  3  1  0
  3  4  2  0
  4  5  1  0
  2  6  2  0
  5  7  1  0
  6  7  1  0
  8  4  1  1
  8 15  1  0
 16 19  1  0
 19 22  2  0
 19 23  1  0
 23 24  2  0
 24 25  1  0
 25 26  2  0
 23 27  1  0
 26 27  1  0
 27 28  1  6
  8  9  1  0
 15 16  2  0
 16 21  1  0
 21 20  2  0
 20 18  1  0
 18 17  2  0
 17 15  1  0
  9 10  2  0
 10 11  1  0
 11 12  2  0
 12 13  1  0
 13 14  2  0
 14  9  1  0
M  END
$$$$
