No_8749-complexes_sdf/6BKW-FPZ/2024-09-17-14-21-01/
     RDKit          3D

 24 26  0  0  0  0  0  0  0  0999 V2000
   -7.9040    3.9820   27.1177 C   0  0  0  0  0  0  0  0  0  0  0  0
   -9.0711    4.3164   27.0630 C   0  0  0  0  0  0  0  0  0  0  0  0
   -9.5182    5.5541   27.5777 C   0  0  0  0  0  0  0  0  0  0  0  0
   -7.4468    2.6843   26.6499 C   0  0  0  0  0  0  0  0  0  0  0  0
   -8.3856    1.7878   26.2216 C   0  0  0  0  0  0  0  0  0  0  0  0
   -9.6812    2.2328   26.0889 C   0  0  0  0  0  0  0  0  0  0  0  0
  -10.0147    3.4312   26.5259 C   0  0  0  0  0  0  0  0  0  0  0  0
   -7.9761    0.5958   25.8481 F   0  0  0  0  0  0  0  0  0  0  0  0
   -8.5717    6.6495   27.4669 C   0  0  0  0  0  0  0  0  0  0  0  0
   -7.2816    6.3694   27.0443 C   0  0  0  0  0  0  0  0  0  0  0  0
   -6.8542    5.0135   27.0668 C   0  0  0  0  0  0  0  0  0  0  0  0
  -10.5326    1.2801   25.6713 F   0  0  0  0  0  0  0  0  0  0  0  0
  -11.3262    3.7952   26.3595 O   0  0  0  0  0  0  0  0  0  0  0  0
  -11.9231    3.8689   25.2168 C   0  0  0  0  0  0  0  0  0  0  0  0
  -13.3370    3.7402   25.3029 C   0  0  0  0  0  0  0  0  0  0  0  0
  -13.9152    3.8749   26.4882 C   0  0  0  0  0  0  0  0  0  0  0  0
  -15.3371    3.9433   26.6447 C   0  0  0  0  0  0  0  0  0  0  0  0
  -16.0746    3.7787   25.4646 C   0  0  0  0  0  0  0  0  0  0  0  0
  -14.2297    3.7602   24.1934 C   0  0  0  0  0  0  0  0  0  0  0  0
  -15.5438    3.7516   24.2745 C   0  0  0  0  0  0  0  0  0  0  0  0
  -11.3270    3.9562   24.1362 O   0  0  0  0  0  0  0  0  0  0  0  0
  -17.6064    3.8045   25.6311 C   0  0  0  0  0  0  0  0  0  0  0  0
  -18.2190    3.8945   26.7446 C   0  0  0  0  0  0  0  0  0  0  0  0
  -17.4051    4.0519   27.9587 C   0  0  0  0  0  0  0  0  0  0  0  0
  5  8  1  0
  6 12  1  0
  7 13  1  0
 13 14  1  0
 14 15  1  0
 14 21  2  0
 18 22  1  0
 22 23  2  3
 23 24  1  0
 15 16  2  0
 16 17  1  0
 17 18  2  0
 18 20  1  0
 20 19  2  0
 19 15  1  0
  2  7  1  0
  7  6  2  0
  6  5  1  0
  5  4  2  0
  4  1  1  0
  1  2  1  0
  2  3  2  0
  3  9  1  0
  9 10  2  0
 10 11  1  0
 11  1  2  0
M  END
$$$$
