No_8291-complexes_sdf/6BKW-FPZ/2024-09-17-14-21-01/
     RDKit          3D

 33 36  0  0  0  0  0  0  0  0999 V2000
   -7.9040    3.9820   27.1177 C   0  0  0  0  0  0  0  0  0  0  0  0
   -9.0711    4.3164   27.0630 C   0  0  0  0  0  0  0  0  0  0  0  0
   -9.5294    5.4517   27.7215 C   0  0  0  0  0  0  0  0  0  0  0  0
   -6.9328    4.7309   27.8881 C   0  0  0  0  0  0  0  0  0  0  0  0
   -7.3666    5.8455   28.5488 C   0  0  0  0  0  0  0  0  0  0  0  0
   -8.6669    6.2428   28.4199 C   0  0  0  0  0  0  0  0  0  0  0  0
  -10.0479    3.5083   26.2510 C   0  0  0  0  0  0  0  0  0  0  0  0
   -9.7487    3.3855   24.9113 C   0  0  0  0  0  0  0  0  0  0  0  0
  -10.5142    2.6814   23.9902 C   0  0  0  0  0  0  0  0  0  0  0  0
  -10.0863    2.5888   22.6429 C   0  0  0  0  0  0  0  0  0  0  0  0
  -10.0687    2.6505   21.5502 C   0  0  0  0  0  0  0  0  0  0  0  0
  -11.1953    2.9734   26.7698 C   0  0  0  0  0  0  0  0  0  0  0  0
  -12.0557    2.2928   25.8306 C   0  0  0  0  0  0  0  0  0  0  0  0
  -11.7008    2.1806   24.4609 C   0  0  0  0  0  0  0  0  0  0  0  0
   -9.9694    2.8243   20.1218 C   0  0  0  0  0  0  0  0  0  0  0  0
  -10.4782    3.4861   19.0826 C   0  0  0  0  0  0  0  0  0  0  0  0
  -11.5005    3.8699   18.9617 N   0  0  0  0  0  0  0  0  0  0  0  0
  -12.3664    4.0872   19.9693 C   0  0  0  0  0  0  0  0  0  0  0  0
  -13.8609    4.0341   19.6846 C   0  0  0  0  0  0  0  0  0  0  0  0
  -14.3617    2.9476   20.0048 C   0  0  0  0  0  0  0  0  0  0  0  0
  -15.6102    2.6429   19.5317 C   0  0  0  0  0  0  0  0  0  0  0  0
  -16.3702    3.5680   18.8968 C   0  0  0  0  0  0  0  0  0  0  0  0
  -15.7802    4.7968   18.5690 C   0  0  0  0  0  0  0  0  0  0  0  0
  -14.4630    5.0231   18.8731 C   0  0  0  0  0  0  0  0  0  0  0  0
  -13.3462    1.7434   26.3075 C   0  0  0  0  0  0  0  0  0  0  0  0
  -13.8522    1.1096   27.5543 Cl  0  0  0  0  0  0  0  0  0  0  0  0
  -14.4345    1.9115   25.2404 C   0  0  0  0  0  0  0  0  0  0  0  0
  -14.8310    3.0341   24.9161 N   0  0  0  0  0  0  0  0  0  0  0  0
  -14.9172    4.0094   25.2899 C   0  0  0  0  0  0  0  0  0  0  0  0
  -15.2498    5.2701   24.5094 C   0  0  0  0  0  0  0  0  0  0  0  0
  -15.3771    3.0317   23.4234 C   0  0  0  0  0  0  0  0  0  0  0  0
  -15.7738    4.1430   22.7299 C   0  0  0  0  0  0  0  0  0  0  0  0
  -15.7041    5.3073   23.4104 C   0  0  0  0  0  0  0  0  0  0  0  0
  2  7  1  0
 10 11  1  0
 11 15  2  3
 15 16  1  0
 16 17  2  3
 17 18  1  0
 18 19  1  0
 13 25  1  0
 25 26  1  0
 25 27  1  0
 27 28  1  0
 28 29  1  0
 28 31  1  0
 30 33  1  0
 32 33  1  0
 10  9  1  0
 29 30  1  0
 32 31  1  0
  7  8  2  0
  8  9  1  0
  9 14  2  0
 14 13  1  0
 13 12  2  0
 12  7  1  0
  1  2  2  0
  2  3  1  0
  3  6  2  0
  6  5  1  0
  5  4  2  0
  4  1  1  0
 19 20  2  0
 20 21  1  0
 21 22  2  0
 22 23  1  0
 23 24  2  0
 24 19  1  0
M  END
$$$$
