No_874-complexes_sdf/6BKW-FPZ/2024-09-17-14-21-01/
     RDKit          3D

 37 40  0  0  0  0  0  0  0  0999 V2000
   -7.7129    4.2099   27.0854 C   0  0  0  0  0  0  0  0  0  0  0  0
   -8.2112    3.0637   26.9225 C   0  0  0  0  0  0  0  0  0  0  0  0
   -8.5108    5.3904   26.9436 C   0  0  0  0  0  0  0  0  0  0  0  0
   -9.7256    5.1955   26.3518 C   0  0  0  0  0  0  0  0  0  0  0  0
   -7.4704    1.8386   27.3272 C   0  0  0  0  0  0  0  0  0  0  0  0
   -9.4948    2.8714   26.4765 C   0  0  0  0  0  0  0  0  0  0  0  0
  -10.2383    3.9753   26.1836 C   0  0  0  0  0  0  0  0  0  0  0  0
   -6.0898    1.9940   27.7253 C   0  0  0  0  0  0  0  0  0  0  0  0
   -5.3357    0.8366   28.1151 C   0  0  0  0  0  0  0  0  0  0  0  0
   -5.9212   -0.4003   28.0322 C   0  0  0  0  0  0  0  0  0  0  0  0
   -7.8863    0.5251   27.3022 C   0  0  0  0  0  0  0  0  0  0  0  0
   -7.2273   -0.5199   27.7146 C   0  0  0  0  0  0  0  0  0  0  0  0
   -7.9357    6.7432   27.1597 C   0  0  0  0  0  0  0  0  0  0  0  0
   -6.8947    6.8202   27.8370 O   0  0  0  0  0  0  0  0  0  0  0  0
   -8.4385    7.8134   26.6505 O   0  0  0  0  0  0  0  0  0  0  0  0
   -3.9237    1.0745   28.5230 C   0  0  0  0  0  0  0  0  0  0  0  0
   -3.4958    0.5246   29.5858 O   0  0  0  0  0  0  0  0  0  0  0  0
   -3.0257    1.1750   27.5285 O   0  0  0  0  0  0  0  0  0  0  0  0
  -11.5642    3.8191   25.5513 C   0  0  0  0  0  0  0  0  0  0  0  0
  -11.6212    3.3310   24.3100 C   0  0  0  0  0  0  0  0  0  0  0  0
  -12.6957    3.3782   23.5614 C   0  0  0  0  0  0  0  0  0  0  0  0
  -13.9082    3.9571   24.1306 C   0  0  0  0  0  0  0  0  0  0  0  0
  -13.8697    4.4890   25.4188 C   0  0  0  0  0  0  0  0  0  0  0  0
  -12.6828    4.5321   26.1642 C   0  0  0  0  0  0  0  0  0  0  0  0
  -10.4183    2.8020   23.6306 C   0  0  0  0  0  0  0  0  0  0  0  0
   -9.9618    1.6250   23.9839 C   0  0  0  0  0  0  0  0  0  0  0  0
   -9.1266    0.8693   23.1040 C   0  0  0  0  0  0  0  0  0  0  0  0
   -8.5353   -0.3246   23.5203 C   0  0  0  0  0  0  0  0  0  0  0  0
   -7.2290   -0.5195   23.2779 C   0  0  0  0  0  0  0  0  0  0  0  0
   -6.5231   -1.6812   23.7430 C   0  0  0  0  0  0  0  0  0  0  0  0
   -7.2587   -2.7091   24.2895 C   0  0  0  0  0  0  0  0  0  0  0  0
   -8.6272   -2.5343   24.4177 C   0  0  0  0  0  0  0  0  0  0  0  0
   -9.2949   -1.3486   24.0765 C   0  0  0  0  0  0  0  0  0  0  0  0
  -15.0933    5.1268   26.0168 C   0  0  0  0  0  0  0  0  0  0  0  0
  -16.0362    4.4394   26.1710 F   0  0  0  0  0  0  0  0  0  0  0  0
  -14.6628    5.6187   27.2893 F   0  0  0  0  0  0  0  0  0  0  0  0
  -15.3767    6.2537   25.2784 F   0  0  0  0  0  0  0  0  0  0  0  0
  2  5  1  0
  3 13  1  0
 13 14  2  0
 13 15  1  0
  9 16  1  0
 16 17  1  0
 16 18  2  0
  7 19  1  0
 20 25  1  0
 25 26  1  0
 26 27  2  3
 27 28  1  0
 23 34  1  0
 34 35  1  0
 34 36  1  0
 34 37  1  0
 28 29  2  0
 29 30  1  0
 30 31  2  0
 31 32  1  0
 32 33  2  0
 33 28  1  0
  1  2  2  0
  2  6  1  0
  6  7  2  0
  7  4  1  0
  4  3  2  0
  3  1  1  0
  5  8  2  0
  8  9  1  0
  9 10  2  0
 10 12  1  0
 12 11  2  0
 11  5  1  0
 19 20  1  0
 20 21  2  0
 21 22  1  0
 22 23  2  0
 23 24  1  0
 24 19  2  0
M  END
$$$$
