No_8075-complexes_sdf/6BKW-FPZ/2024-09-17-14-21-01/
     RDKit          3D

 19 22  0  0  0  0  0  0  0  0999 V2000
   -7.7129    4.2099   27.0854 C   0  0  0  0  0  0  0  0  0  0  0  0
   -7.7814    5.1722   27.8972 C   0  0  0  0  0  0  0  0  0  0  0  0
   -8.8255    3.2789   27.1191 C   0  0  0  0  0  0  0  0  0  0  0  0
   -9.9209    3.4734   27.9101 C   0  0  0  0  0  0  0  0  0  0  0  0
   -9.9736    4.7085   28.6831 C   0  0  0  0  0  0  0  0  0  0  0  0
   -8.8840    5.5441   28.6612 C   0  0  0  0  0  0  0  0  0  0  0  0
   -8.7102    2.0171   26.3293 C   0  0  0  0  0  0  0  0  0  0  0  0
   -7.9109    1.0355   26.5669 N   0  0  0  0  0  0  0  0  0  0  0  0
   -7.9337   -0.0169   25.7660 C   0  0  0  0  0  0  0  0  0  0  0  0
   -9.4180    1.9654   25.1475 C   0  0  0  0  0  0  0  0  0  0  0  0
  -10.2515    3.1108   24.7325 C   0  0  0  0  0  0  0  0  0  0  0  0
  -10.8596    3.0990   23.4832 C   0  0  0  0  0  0  0  0  0  0  0  0
   -9.1664    0.7895   24.4386 C   0  0  0  0  0  0  0  0  0  0  0  0
   -8.4661   -0.1279   24.7273 N   0  0  0  0  0  0  0  0  0  0  0  0
  -11.7684    4.1046   23.2675 C   0  0  0  0  0  0  0  0  0  0  0  0
  -12.0486    5.0847   24.2174 C   0  0  0  0  0  0  0  0  0  0  0  0
  -11.5463    4.8930   25.5165 C   0  0  0  0  0  0  0  0  0  0  0  0
  -10.6765    3.9607   25.7887 C   0  0  0  0  0  0  0  0  0  0  0  0
  -10.3853    3.9062   27.0304 O   0  0  0  0  0  0  0  0  0  0  0  0
  3  7  1  0
 10 11  1  0
  4 19  1  0
 18 19  1  0
 11 12  2  0
 12 15  1  0
 15 16  2  0
 16 17  1  0
 17 18  2  0
 18 11  1  0
  1  2  2  0
  2  6  1  0
  6  5  2  0
  5  4  1  0
  4  3  2  0
  3  1  1  0
  7  8  2  0
  8  9  1  0
  9 14  2  0
 14 13  1  0
 13 10  2  0
 10  7  1  0
M  END
$$$$
