No_8701-complexes_sdf/6BKW-FPZ/2024-09-17-14-21-01/
     RDKit          3D

 23 25  0  0  0  0  0  0  0  0999 V2000
   -7.7129    4.2099   27.0854 C   0  0  0  0  0  0  0  0  0  0  0  0
   -7.7814    5.1722   27.8972 C   0  0  0  0  0  0  0  0  0  0  0  0
   -8.8998    3.8713   26.3707 C   0  0  0  0  0  0  0  0  0  0  0  0
   -9.1401    2.5906   25.9433 C   0  0  0  0  0  0  0  0  0  0  0  0
   -8.5962    6.2844   27.4570 C   0  0  0  0  0  0  0  0  0  0  0  0
   -9.8066    2.2812   24.7846 C   0  0  0  0  0  0  0  0  0  0  0  0
   -9.6866    6.1038   26.6821 C   0  0  0  0  0  0  0  0  0  0  0  0
   -9.7482    4.8676   26.0664 C   0  0  0  0  0  0  0  0  0  0  0  0
   -8.5723    1.4721   26.6854 C   0  0  0  0  0  0  0  0  0  0  0  0
   -8.6612    0.1633   26.3629 C   0  0  0  0  0  0  0  0  0  0  0  0
   -9.9080    0.9188   24.3676 C   0  0  0  0  0  0  0  0  0  0  0  0
   -9.3769   -0.0926   25.1631 C   0  0  0  0  0  0  0  0  0  0  0  0
   -8.1767   -0.9350   27.1598 C   0  0  0  0  0  0  0  0  0  0  0  0
   -7.1389   -0.7961   27.7456 C   0  0  0  0  0  0  0  0  0  0  0  0
   -6.5719   -1.8091   28.6491 C   0  0  0  0  0  0  0  0  0  0  0  0
   -5.3718   -1.6110   29.4031 C   0  0  0  0  0  0  0  0  0  0  0  0
   -4.6453   -0.3630   29.1971 C   0  0  0  0  0  0  0  0  0  0  0  0
   -5.1581    0.5751   28.3077 C   0  0  0  0  0  0  0  0  0  0  0  0
   -6.2826    0.4069   27.6806 C   0  0  0  0  0  0  0  0  0  0  0  0
   -3.3840   -0.1644   29.9480 C   0  0  0  0  0  0  0  0  0  0  0  0
   -2.8779   -1.2462   30.2267 F   0  0  0  0  0  0  0  0  0  0  0  0
   -3.6089    0.5698   31.1076 F   0  0  0  0  0  0  0  0  0  0  0  0
   -2.5883    0.6479   29.1962 F   0  0  0  0  0  0  0  0  0  0  0  0
  1  2  1  0
  1  3  1  0
  3  4  1  0
  2  5  1  0
  5  7  1  0
  3  8  1  0
  7  8  1  0
 10 13  1  0
 17 20  1  0
 20 21  1  0
 20 22  1  0
 20 23  1  0
 13 14  1  0
  4  6  2  0
  6 11  1  0
 11 12  2  0
 12 10  1  0
 10  9  2  0
  9  4  1  0
 14 15  2  0
 15 16  1  0
 16 17  2  0
 17 18  1  0
 18 19  2  0
 19 14  1  0
M  END
$$$$
