No_8192-complexes_sdf/6BKW-FPZ/2024-09-17-14-21-01/
     RDKit          3D

 15 15  0  0  0  0  0  0  0  0999 V2000
   -7.9040    3.9820   27.1177 C   0  0  0  0  0  0  0  0  0  0  0  0
   -8.2057    2.8231   26.8733 C   0  0  0  0  0  0  0  0  0  0  0  0
   -9.2962    2.4021   26.1155 C   0  0  0  0  0  0  0  0  0  0  0  0
   -8.7358    5.0662   26.5917 C   0  0  0  0  0  0  0  0  0  0  0  0
   -9.7618    4.7023   25.7546 C   0  0  0  0  0  0  0  0  0  0  0  0
  -10.0066    3.4105   25.4922 C   0  0  0  0  0  0  0  0  0  0  0  0
   -8.4151    6.3816   26.8613 N   0  0  0  0  0  0  0  0  0  0  0  0
   -7.5349    7.1788   26.8731 C   0  0  0  0  0  0  0  0  0  0  0  0
   -7.1964    1.4963   27.5832 Cl  0  0  0  0  0  0  0  0  0  0  0  0
   -9.6782    7.0109   27.4912 C   0  0  0  0  0  0  0  0  0  0  0  0
  -11.3909    2.9949   24.3219 Br  0  0  0  0  0  0  0  0  0  0  0  0
   -6.9183    4.4208   27.9621 F   0  0  0  0  0  0  0  0  0  0  0  0
   -7.5075    8.5280   26.6609 C   0  0  0  0  0  0  0  0  0  0  0  0
   -6.3502    9.0818   26.7527 N   0  0  0  0  0  0  0  0  0  0  0  0
   -9.5266    1.1408   25.7404 F   0  0  0  0  0  0  0  0  0  0  0  0
  4  7  1  0
  7  8  1  0
  2  9  1  0
  7 10  1  0
  6 11  1  0
  1 12  1  0
  8 13  1  0
 13 14  2  0
  3 15  1  0
  1  2  2  0
  2  3  1  0
  3  6  2  0
  6  5  1  0
  5  4  2  0
  4  1  1  0
M  END
$$$$
