No_8530-complexes_sdf/6BKW-FPZ/2024-09-17-14-21-01/
     RDKit          3D

 33 36  0  0  0  0  0  0  0  0999 V2000
   -7.9040    3.9820   27.1177 C   0  0  0  0  0  0  0  0  0  0  0  0
   -8.2057    2.8231   26.8733 C   0  0  0  0  0  0  0  0  0  0  0  0
   -8.7695    5.0740   26.7916 C   0  0  0  0  0  0  0  0  0  0  0  0
   -8.4337    6.4678   27.0913 C   0  0  0  0  0  0  0  0  0  0  0  0
   -9.3742    2.4311   26.2346 C   0  0  0  0  0  0  0  0  0  0  0  0
  -10.2395    3.4267   25.8887 C   0  0  0  0  0  0  0  0  0  0  0  0
   -9.9567    4.7548   26.1374 C   0  0  0  0  0  0  0  0  0  0  0  0
   -7.9449    7.5014   26.9590 N   0  0  0  0  0  0  0  0  0  0  0  0
   -7.2426    1.6814   27.2966 C   0  0  0  0  0  0  0  0  0  0  0  0
   -7.5306    0.3280   27.2169 C   0  0  0  0  0  0  0  0  0  0  0  0
   -6.5886   -0.5457   27.6095 C   0  0  0  0  0  0  0  0  0  0  0  0
   -5.3193   -0.1020   28.0905 C   0  0  0  0  0  0  0  0  0  0  0  0
   -5.0580    1.2616   28.1356 C   0  0  0  0  0  0  0  0  0  0  0  0
   -5.9147    2.1204   27.7624 C   0  0  0  0  0  0  0  0  0  0  0  0
   -4.3323   -1.1213   28.5911 C   0  0  0  0  0  0  0  0  0  0  0  0
   -3.5102   -0.7888   29.1403 O   0  0  0  0  0  0  0  0  0  0  0  0
   -4.6243   -2.3750   28.3211 O   0  0  0  0  0  0  0  0  0  0  0  0
  -11.8000    3.0315   24.9126 Br  0  0  0  0  0  0  0  0  0  0  0  0
   -5.4106   -2.9269   28.0101 C   0  0  0  0  0  0  0  0  0  0  0  0
   -6.9916   -1.9827   27.5160 C   0  0  0  0  0  0  0  0  0  0  0  0
   -5.8208   -4.3059   27.7648 C   0  0  0  0  0  0  0  0  0  0  0  0
   -6.5694   -4.7674   27.1302 O   0  0  0  0  0  0  0  0  0  0  0  0
   -5.1280   -5.0497   28.7712 N   0  0  0  0  0  0  0  0  0  0  0  0
   -5.0536   -6.1078   28.9825 C   0  0  0  0  0  0  0  0  0  0  0  0
   -4.6173   -6.9288   29.6512 C   0  0  0  0  0  0  0  0  0  0  0  0
   -3.8905   -6.4540   30.8251 C   0  0  0  0  0  0  0  0  0  0  0  0
   -3.7353   -4.9976   30.8247 C   0  0  1  0  0  0  0  0  0  0  0  0
   -4.3818   -4.2395   29.8297 C   0  0  0  0  0  0  0  0  0  0  0  0
   -2.9873   -4.3366   31.9445 C   0  0  0  0  0  0  0  0  0  0  0  0
   -2.5340   -3.2399   31.8048 C   0  0  0  0  0  0  0  0  0  0  0  0
   -1.8184   -2.4501   32.8307 C   0  0  0  0  0  0  0  0  0  0  0  0
   -1.4882   -1.0141   32.7132 C   0  0  0  0  0  0  0  0  0  0  0  0
   -2.1599   -0.4147   31.5767 C   0  0  0  0  0  0  0  0  0  0  0  0
  3  4  1  0
  4  8  3  0
  2  9  1  0
 12 15  1  0
 15 16  2  0
 15 17  1  0
  6 18  1  0
 17 19  1  0
 11 20  1  0
 19 20  2  0
 19 21  1  0
 21 22  2  0
 21 23  1  0
 23 24  1  0
 25 26  1  0
 23 28  1  0
 27 28  1  1
 27 29  1  0
 29 30  2  3
 30 31  1  0
 31 32  2  3
 32 33  1  0
 24 25  1  0
 26 27  1  0
  9 10  2  0
 10 11  1  0
 11 12  2  0
 12 13  1  0
 13 14  2  0
 14  9  1  0
  1  2  2  0
  2  5  1  0
  5  6  2  0
  6  7  1  0
  7  3  2  0
  3  1  1  0
M  END
$$$$
