No_8644-complexes_sdf/6BKW-FPZ/2024-09-17-14-21-01/
     RDKit          3D

 14 15  0  0  0  0  0  0  0  0999 V2000
   -7.9040    3.9820   27.1177 C   0  0  0  0  0  0  0  0  0  0  0  0
   -8.2057    2.8231   26.8733 C   0  0  0  0  0  0  0  0  0  0  0  0
   -7.0130    4.3706   28.1140 C   0  0  0  0  0  0  0  0  0  0  0  0
   -9.3829    2.4374   26.1668 C   0  0  0  0  0  0  0  0  0  0  0  0
  -10.0975    3.4171   25.5988 C   0  0  0  0  0  0  0  0  0  0  0  0
   -9.7335    4.7745   25.7705 C   0  0  0  0  0  0  0  0  0  0  0  0
   -8.7317    5.1107   26.5933 C   0  0  0  0  0  0  0  0  0  0  0  0
   -8.2050    6.4063   26.9956 C   0  0  0  0  0  0  0  0  0  0  0  0
   -7.2516    6.4482   27.8908 N   0  0  0  0  0  0  0  0  0  0  0  0
   -6.7236    5.6177   28.4399 N   0  0  0  0  0  0  0  0  0  0  0  0
   -8.8114    7.5450   26.5224 N   0  0  0  0  0  0  0  0  0  0  0  0
   -9.6647    1.0219   25.8347 C   0  0  0  0  0  0  0  0  0  0  0  0
   -9.5951    0.6101   24.7578 C   0  0  0  0  0  0  0  0  0  0  0  0
   -9.8359   -0.7785   24.3348 C   0  0  0  0  0  0  0  0  0  0  0  0
  8 11  1  0
  4 12  1  0
 12 13  2  3
 13 14  1  0
  1  3  1  0
  3 10  2  0
 10  9  1  0
  9  8  2  0
  8  7  1  0
  1  2  2  0
  2  4  1  0
  4  5  2  0
  5  6  1  0
  6  7  2  0
  7  1  1  0
M  END
$$$$
