No_8081-complexes_sdf/6BKW-FPZ/2024-09-17-14-21-01/
     RDKit          3D

 16 17  0  0  0  0  0  0  0  0999 V2000
   -7.7129    4.2099   27.0854 C   0  0  0  0  0  0  0  0  0  0  0  0
   -7.7814    5.1722   27.8972 C   0  0  0  0  0  0  0  0  0  0  0  0
   -8.7889    3.2468   27.2220 C   0  0  0  0  0  0  0  0  0  0  0  0
   -8.5940    1.9755   26.6525 C   0  0  0  0  0  0  0  0  0  0  0  0
   -9.4990    1.3566   25.9026 C   0  0  0  0  0  0  0  0  0  0  0  0
   -9.0214    5.8041   28.2929 C   0  0  0  0  0  0  0  0  0  0  0  0
   -9.8472    3.8228   27.9200 C   0  0  0  0  0  0  0  0  0  0  0  0
  -10.0038    4.9638   28.4576 C   0  0  0  0  0  0  0  0  0  0  0  0
   -9.2228    0.1123   25.3071 C   0  0  0  0  0  0  0  0  0  0  0  0
   -7.9750   -0.4627   25.4980 C   0  0  0  0  0  0  0  0  0  0  0  0
   -7.0484    0.1028   26.3362 C   0  0  0  0  0  0  0  0  0  0  0  0
   -7.2911    1.3556   26.9598 C   0  0  0  0  0  0  0  0  0  0  0  0
  -11.2547    2.6274   28.0333 Cl  0  0  0  0  0  0  0  0  0  0  0  0
   -7.7096   -1.8192   24.9505 C   0  0  0  0  0  0  0  0  0  0  0  0
   -7.1108   -1.8675   23.9957 N   0  0  0  0  0  0  0  0  0  0  0  0
   -6.5710   -0.7543   23.4242 C   0  0  0  0  0  0  0  0  0  0  0  0
  3  4  1  0
  7 13  1  0
 10 14  1  0
 14 15  2  3
 15 16  1  0
  4  5  2  0
  5  9  1  0
  9 10  2  0
 10 11  1  0
 11 12  2  0
 12  4  1  0
  1  2  2  0
  2  6  1  0
  6  8  2  0
  8  7  1  0
  7  3  2  0
  3  1  1  0
M  END
$$$$
