No_8214-complexes_sdf/6BKW-FPZ/2024-09-17-14-21-01/
     RDKit          3D

 39 44  0  0  0  0  0  0  0  0999 V2000
   -7.7129    4.2099   27.0854 C   0  0  0  0  0  0  0  0  0  0  0  0
   -8.2112    3.0637   26.9225 C   0  0  0  0  0  0  0  0  0  0  0  0
   -9.5629    2.7997   27.0678 C   0  0  0  0  0  0  0  0  0  0  0  0
   -8.5911    5.3704   27.2036 C   0  0  0  0  0  0  0  0  0  0  0  0
   -9.9544    5.1489   27.1401 C   0  0  0  0  0  0  0  0  0  0  0  0
  -10.4577    3.9280   27.0818 C   0  0  0  0  0  0  0  0  0  0  0  0
   -8.0077    6.7251   27.2943 C   0  0  0  0  0  0  0  0  0  0  0  0
  -10.0661    1.3994   26.9567 C   0  0  0  0  0  0  0  0  0  0  0  0
   -9.2515    0.4891   27.2178 N   0  0  0  0  0  0  0  0  0  0  0  0
   -8.9112   -0.4165   26.5865 C   0  0  0  0  0  0  0  0  0  0  0  0
   -7.8488   -1.3418   27.0148 C   0  0  0  0  0  0  0  0  0  0  0  0
   -6.6925   -1.1027   26.8331 C   0  0  0  0  0  0  0  0  0  0  0  0
   -5.5647   -1.7168   27.5060 C   0  0  0  0  0  0  0  0  0  0  0  0
   -5.8691   -2.7978   28.2941 C   0  0  0  0  0  0  0  0  0  0  0  0
   -7.1738   -3.0978   28.5478 C   0  0  0  0  0  0  0  0  0  0  0  0
   -8.1953   -2.3386   27.9948 C   0  0  0  0  0  0  0  0  0  0  0  0
   -9.2255   -0.5994   25.3657 O   0  0  0  0  0  0  0  0  0  0  0  0
   -8.6474    7.7894   26.7911 N   0  0  0  0  0  0  0  0  0  0  0  0
  -11.2769    1.1377   26.9124 O   0  0  0  0  0  0  0  0  0  0  0  0
   -6.8755    6.8023   27.9076 O   0  0  0  0  0  0  0  0  0  0  0  0
   -4.3207   -1.3938   27.1907 F   0  0  0  0  0  0  0  0  0  0  0  0
   -9.6270   -2.6302   28.2913 C   0  0  0  0  0  0  0  0  0  0  0  0
   -9.8975   -2.8910   29.4962 C   0  0  0  0  0  0  0  0  0  0  0  0
  -11.2996   -3.1573   29.9708 C   0  0  0  0  0  0  0  0  0  0  0  0
  -12.2728   -2.9540   28.9776 C   0  0  0  0  0  0  0  0  0  0  0  0
  -11.9331   -2.6018   27.6868 C   0  0  0  0  0  0  0  0  0  0  0  0
  -10.6200   -2.3959   27.3646 C   0  0  0  0  0  0  0  0  0  0  0  0
  -13.7161   -3.1571   29.3569 C   0  0  0  0  0  0  0  0  0  0  0  0
  -14.1149   -3.3595   30.4056 C   0  0  0  0  0  0  0  0  0  0  0  0
  -15.4637   -3.4977   30.8067 C   0  0  0  0  0  0  0  0  0  0  0  0
  -16.3928   -3.3793   29.7587 C   0  0  0  0  0  0  0  0  0  0  0  0
  -15.9639   -3.1319   28.5103 C   0  0  0  0  0  0  0  0  0  0  0  0
  -14.6479   -2.9392   28.2554 C   0  0  0  0  0  0  0  0  0  0  0  0
  -17.7100   -3.5346   29.9879 F   0  0  0  0  0  0  0  0  0  0  0  0
  -16.9211   -2.9665   27.3923 C   0  0  0  0  0  0  0  0  0  0  0  0
  -16.4949   -2.9552   26.2223 N   0  0  0  0  0  0  0  0  0  0  0  0
  -15.3558   -3.1422   25.9117 C   0  0  0  0  0  0  0  0  0  0  0  0
  -14.2555   -3.0335   26.8494 C   0  0  0  0  0  0  0  0  0  0  0  0
  -12.8557   -2.7975   26.5317 C   0  0  0  0  0  0  0  0  0  0  0  0
  4  7  1  0
  3  8  1  0
  8  9  1  0
  9 10  1  0
 10 11  1  0
 10 17  2  0
  7 18  1  0
  8 19  2  0
  7 20  2  0
 13 21  1  0
 16 22  1  0
 25 28  1  0
 31 34  1  0
 26 39  1  0
 38 39  1  0
  1  2  2  0
  2  3  1  0
  3  6  2  0
  6  5  1  0
  5  4  2  0
  4  1  1  0
 22 23  2  0
 23 24  1  0
 24 25  2  0
 25 26  1  0
 26 27  2  0
 27 22  1  0
 11 12  2  0
 12 13  1  0
 13 14  2  0
 14 15  1  0
 15 16  2  0
 16 11  1  0
 28 29  2  0
 29 30  1  0
 30 31  2  0
 31 32  1  0
 33 28  1  0
 32 33  2  0
 33 38  1  0
 38 37  2  0
 37 36  1  0
 36 35  2  0
 35 32  1  0
M  END
$$$$
