No_8551-complexes_sdf/6BKW-FPZ/2024-09-17-14-21-01/
     RDKit          3D

 14 15  0  0  0  0  0  0  0  0999 V2000
   -7.9040    3.9820   27.1177 C   0  0  0  0  0  0  0  0  0  0  0  0
   -7.8663    4.8694   27.9238 C   0  0  0  0  0  0  0  0  0  0  0  0
   -9.0491    3.8523   26.2542 C   0  0  0  0  0  0  0  0  0  0  0  0
   -8.7661    5.9491   27.9690 C   0  0  0  0  0  0  0  0  0  0  0  0
   -9.9279    4.8544   26.1938 C   0  0  0  0  0  0  0  0  0  0  0  0
   -9.8044    5.9413   27.0782 C   0  0  0  0  0  0  0  0  0  0  0  0
   -6.9767    2.7896   27.2265 C   0  0  0  0  0  0  0  0  0  0  0  0
   -7.3704    1.5299   26.8306 N   0  0  0  0  0  0  0  0  0  0  0  0
   -5.8799    2.9214   27.7650 O   0  0  0  0  0  0  0  0  0  0  0  0
   -6.5542    0.3512   26.9890 C   0  0  0  0  0  0  0  0  0  0  0  0
   -7.0124   -0.6914   26.2732 C   0  0  0  0  0  0  0  0  0  0  0  0
   -7.8979   -0.5268   25.4436 C   0  0  0  0  0  0  0  0  0  0  0  0
   -8.7796    0.5806   25.3064 C   0  0  0  0  0  0  0  0  0  0  0  0
   -8.3883    1.5634   25.9819 C   0  0  0  0  0  0  0  0  0  0  0  0
  1  7  1  0
  7  8  1  0
  7  9  2  0
  8 10  1  0
 10 11  1  0
 11 12  1  0
  8 14  1  0
 13 14  1  0
 12 13  1  0
  1  2  2  0
  2  4  1  0
  4  6  2  0
  6  5  1  0
  5  3  2  0
  3  1  1  0
M  END
$$$$
