No_8432-complexes_sdf/6BKW-FPZ/2024-09-17-14-21-01/
     RDKit          3D

 11 11  0  0  0  0  0  0  0  0999 V2000
   -7.9040    3.9820   27.1177 C   0  0  0  0  0  0  0  0  0  0  0  0
   -7.8663    4.8694   27.9238 C   0  0  0  0  0  0  0  0  0  0  0  0
   -9.0491    3.8523   26.2542 C   0  0  0  0  0  0  0  0  0  0  0  0
   -9.9827    3.2456   26.6451 C   0  0  0  0  0  0  0  0  0  0  0  0
  -10.7367    3.8670   27.7658 C   0  0  2  0  0  0  0  0  0  0  0  0
   -8.9700    5.2194   28.8729 C   0  0  0  0  0  0  0  0  0  0  0  0
  -10.1294    4.3350   28.9594 C   0  0  0  0  0  0  0  0  0  0  0  0
  -12.1882    3.6263   27.8431 C   0  0  0  0  0  0  0  0  0  0  0  0
  -12.9315    4.3495   28.5029 C   0  0  0  0  0  0  0  0  0  0  0  0
  -14.3691    4.2217   28.5742 C   0  0  0  0  0  0  0  0  0  0  0  0
  -15.1325    5.0085   29.3179 C   0  0  0  0  0  0  0  0  0  0  0  0
  1  2  1  0
  1  3  1  0
  3  4  1  0
  5  4  1  1
  2  6  2  0
  5  7  1  0
  6  7  1  0
  5  8  1  0
  8  9  2  3
  9 10  1  0
 10 11  2  0
M  END
$$$$
