No_8374-complexes_sdf/6BKW-FPZ/2024-09-17-14-21-01/
     RDKit          3D

 13 13  0  0  0  0  0  0  0  0999 V2000
   -7.9040    3.9820   27.1177 C   0  0  0  0  0  0  0  0  0  0  0  0
   -8.2057    2.8231   26.8733 C   0  0  0  0  0  0  0  0  0  0  0  0
   -8.7695    5.0740   26.7916 C   0  0  0  0  0  0  0  0  0  0  0  0
   -9.9618    4.7598   26.1630 C   0  0  0  0  0  0  0  0  0  0  0  0
   -9.4200    2.4524   26.2850 C   0  0  0  0  0  0  0  0  0  0  0  0
  -10.2590    3.4815   25.9250 C   0  0  0  0  0  0  0  0  0  0  0  0
   -8.3840    6.4693   27.0829 C   0  0  0  0  0  0  0  0  0  0  0  0
   -7.7453    6.8270   28.1334 N   0  0  0  0  0  0  0  0  0  0  0  0
   -8.8079    7.3586   26.2664 F   0  0  0  0  0  0  0  0  0  0  0  0
   -7.2828    1.6779   27.2862 C   0  0  0  0  0  0  0  0  0  0  0  0
   -7.6140    0.3328   27.1603 C   0  0  0  0  0  0  0  0  0  0  0  0
   -8.9445    0.1383   26.6826 C   0  0  0  0  0  0  0  0  0  0  0  0
   -9.7613    1.0511   26.2155 C   0  0  0  0  0  0  0  0  0  0  0  0
  3  7  1  0
  7  8  2  0
  7  9  1  0
  2 10  1  0
 10 11  2  3
 11 12  1  0
 12 13  1  0
  1  2  2  0
  2  5  1  0
  5  6  2  0
  6  4  1  0
  4  3  2  0
  3  1  1  0
M  END
$$$$
