No_817-complexes_sdf/6BKW-FPZ/2024-09-17-14-21-01/
     RDKit          3D

 28 32  0  0  0  0  0  0  0  0999 V2000
   -7.7129    4.2099   27.0854 C   0  0  0  0  0  0  0  0  0  0  0  0
   -8.9133    4.4736   27.0998 C   0  0  0  0  0  0  0  0  0  0  0  0
   -9.4643    5.5426   27.7628 C   0  0  0  0  0  0  0  0  0  0  0  0
   -6.8373    4.9942   27.9785 C   0  0  0  0  0  0  0  0  0  0  0  0
   -7.3717    6.0428   28.6744 C   0  0  0  0  0  0  0  0  0  0  0  0
   -8.7562    6.2623   28.2529 C   0  0  0  0  0  0  0  0  0  0  0  0
   -9.7794    3.5194   26.2346 C   0  0  0  0  0  0  0  0  0  0  0  0
   -9.9796    2.2795   26.5413 C   0  0  0  0  0  0  0  0  0  0  0  0
  -10.6937    1.3857   25.7145 C   0  0  0  0  0  0  0  0  0  0  0  0
  -11.2116    1.8829   24.5175 C   0  0  0  0  0  0  0  0  0  0  0  0
  -10.2862    4.0166   24.9797 C   0  0  0  0  0  0  0  0  0  0  0  0
  -10.9396    3.2387   24.1672 C   0  0  0  0  0  0  0  0  0  0  0  0
  -11.4990    3.7591   22.8902 C   0  0  0  0  0  0  0  0  0  0  0  0
  -10.5600    4.1754   21.9912 C   0  0  0  0  0  0  0  0  0  0  0  0
  -12.8426    3.8490   22.6400 C   0  0  0  0  0  0  0  0  0  0  0  0
  -13.3694    4.0615   21.4877 C   0  0  0  0  0  0  0  0  0  0  0  0
  -11.0142    4.5512   20.6839 C   0  0  0  0  0  0  0  0  0  0  0  0
  -12.3996    4.4973   20.4125 C   0  0  0  0  0  0  0  0  0  0  0  0
   -9.4042    1.6763   27.8477 C   0  0  0  0  0  0  0  0  0  0  0  0
   -9.7428    0.2729   28.0318 C   0  0  0  0  0  0  0  0  0  0  0  0
  -10.5637   -0.4163   27.2605 C   0  0  0  0  0  0  0  0  0  0  0  0
  -11.0145    0.0659   26.0037 C   0  0  0  0  0  0  0  0  0  0  0  0
  -10.8979   -1.8207   27.6277 C   0  0  0  0  0  0  0  0  0  0  0  0
  -10.0801   -2.7571   27.7343 C   0  0  0  0  0  0  0  0  0  0  0  0
  -10.4208   -3.9667   28.2334 C   0  0  0  0  0  0  0  0  0  0  0  0
  -12.3013   -2.0463   27.8341 C   0  0  0  0  0  0  0  0  0  0  0  0
  -12.7063   -3.2877   28.2856 C   0  0  0  0  0  0  0  0  0  0  0  0
  -11.7518   -4.2554   28.4650 C   0  0  0  0  0  0  0  0  0  0  0  0
  2  7  1  0
 12 13  1  0
 21 23  1  0
  1  2  2  0
  2  3  1  0
  3  6  2  0
  6  5  1  0
  5  4  2  0
  4  1  1  0
 23 24  2  0
 24 25  1  0
 25 28  2  0
 28 27  1  0
 27 26  2  0
 26 23  1  0
  9 22  1  0
 22 21  2  0
 21 20  1  0
 20 19  2  0
 19  8  1  0
 13 14  2  0
 14 17  1  0
 17 18  2  0
 18 16  1  0
 16 15  2  0
 15 13  1  0
  7  8  2  0
  8  9  1  0
  9 10  2  0
 10 12  1  0
 12 11  2  0
 11  7  1  0
M  END
$$$$
