No_8356-complexes_sdf/6BKW-FPZ/2024-09-17-14-21-01/
     RDKit          3D

 22 23  0  0  0  0  0  0  0  0999 V2000
   -7.7129    4.2099   27.0854 C   0  0  0  0  0  0  0  0  0  0  0  0
   -8.9133    4.4736   27.0998 C   0  0  0  0  0  0  0  0  0  0  0  0
   -9.7937    3.7368   26.2091 C   0  0  0  0  0  0  0  0  0  0  0  0
   -6.8266    5.0441   28.0594 C   0  0  0  0  0  0  0  0  0  0  0  0
  -11.0884    4.1572   25.9278 C   0  0  0  0  0  0  0  0  0  0  0  0
  -11.8573    3.5481   24.9807 C   0  0  0  0  0  0  0  0  0  0  0  0
  -11.2980    2.5062   24.2454 C   0  0  0  0  0  0  0  0  0  0  0  0
  -10.0337    2.1019   24.4722 C   0  0  0  0  0  0  0  0  0  0  0  0
   -9.2188    2.7542   25.3939 C   0  0  0  0  0  0  0  0  0  0  0  0
   -9.4404    5.5388   27.8703 C   0  0  0  0  0  0  0  0  0  0  0  0
   -8.6695    6.4398   28.5977 C   0  0  0  0  0  0  0  0  0  0  0  0
   -7.3193    6.0211   28.6616 C   0  0  0  0  0  0  0  0  0  0  0  0
   -9.4408    0.9862   23.6790 C   0  0  0  0  0  0  0  0  0  0  0  0
   -8.2826    0.7313   23.7601 F   0  0  0  0  0  0  0  0  0  0  0  0
  -10.1344    0.4668   22.7409 F   0  0  0  0  0  0  0  0  0  0  0  0
  -13.2333    3.9703   24.7511 C   0  0  0  0  0  0  0  0  0  0  0  0
  -14.1185    3.1539   24.6288 O   0  0  0  0  0  0  0  0  0  0  0  0
  -14.1517    2.0767   25.0507 C   0  0  0  0  0  0  0  0  0  0  0  0
  -14.5709    1.9174   26.3385 C   0  0  0  0  0  0  0  0  0  0  0  0
  -14.3665    0.6990   27.0253 C   0  0  0  0  0  0  0  0  0  0  0  0
  -13.9286   -0.4124   26.3306 C   0  0  0  0  0  0  0  0  0  0  0  0
  -13.6804   -1.6118   26.9961 C   0  0  0  0  0  0  0  0  0  0  0  0
  2  3  1  0
  8 13  1  0
 13 14  1  0
 13 15  1  0
  6 16  1  0
 16 17  1  0
 17 18  1  0
 18 19  2  3
 19 20  1  0
 20 21  2  3
 21 22  1  0
  3  5  2  0
  5  6  1  0
  6  7  2  0
  7  8  1  0
  8  9  2  0
  9  3  1  0
  1  2  2  0
  2 10  1  0
 10 11  2  0
 11 12  1  0
 12  4  2  0
  4  1  1  0
M  END
$$$$
