No_8611-complexes_sdf/6BKW-FPZ/2024-09-17-14-21-01/
     RDKit          3D

 29 33  0  0  0  0  0  0  0  0999 V2000
   -7.9040    3.9820   27.1177 C   0  0  0  0  0  0  0  0  0  0  0  0
   -7.8663    4.8694   27.9238 C   0  0  0  0  0  0  0  0  0  0  0  0
   -7.4698    2.6989   27.4277 C   0  0  0  0  0  0  0  0  0  0  0  0
   -7.9683    1.5964   26.8266 C   0  0  0  0  0  0  0  0  0  0  0  0
   -8.9447    1.7923   25.8533 C   0  0  0  0  0  0  0  0  0  0  0  0
   -9.4405    2.9988   25.5757 C   0  0  0  0  0  0  0  0  0  0  0  0
   -8.9424    4.1117   26.2388 C   0  0  0  0  0  0  0  0  0  0  0  0
   -8.3103    6.1970   27.6444 N   0  0  0  0  0  0  0  0  0  0  0  0
   -9.1782    6.4963   26.6776 C   0  0  0  0  0  0  0  0  0  0  0  0
   -9.5449    5.3904   25.9238 C   0  0  0  0  0  0  0  0  0  0  0  0
   -7.2404    0.3342   27.1851 C   0  0  0  0  0  0  0  0  0  0  0  0
   -6.5223   -0.3302   26.4901 C   0  0  0  0  0  0  0  0  0  0  0  0
   -5.8501   -1.5353   26.9127 C   0  0  0  0  0  0  0  0  0  0  0  0
   -5.9519   -1.9528   28.2240 C   0  0  0  0  0  0  0  0  0  0  0  0
   -6.8276   -1.2138   29.0603 C   0  0  0  0  0  0  0  0  0  0  0  0
   -7.4687   -0.1150   28.6025 C   0  0  0  0  0  0  0  0  0  0  0  0
   -9.3264    0.6064   25.0509 C   0  0  0  0  0  0  0  0  0  0  0  0
  -10.3848   -0.0684   25.4411 C   0  0  0  0  0  0  0  0  0  0  0  0
   -8.6348    0.3296   23.8495 C   0  0  0  0  0  0  0  0  0  0  0  0
   -8.7992   -0.7404   23.1083 C   0  0  0  0  0  0  0  0  0  0  0  0
  -10.7007   -1.2611   24.6077 C   0  0  0  0  0  0  0  0  0  0  0  0
   -9.9472   -1.5258   23.4596 C   0  0  0  0  0  0  0  0  0  0  0  0
  -11.2295   -0.0355   26.8655 Cl  0  0  0  0  0  0  0  0  0  0  0  0
  -10.2571   -2.6013   22.6523 N   0  0  0  0  0  0  0  0  0  0  0  0
   -9.8775   -2.9451   21.5938 C   0  0  0  0  0  0  0  0  0  0  0  0
  -11.2956   -3.5596   23.1510 C   0  0  0  0  0  0  0  0  0  0  0  0
  -11.7283   -4.3695   22.3983 C   0  0  0  0  0  0  0  0  0  0  0  0
  -10.2760   -3.8224   20.6111 C   0  0  0  0  0  0  0  0  0  0  0  0
  -11.2441   -4.6512   21.1102 C   0  0  0  0  0  0  0  0  0  0  0  0
  4 11  1  0
  5 17  1  0
 18 23  1  0
 22 24  1  0
 24 25  1  0
 24 26  1  0
 27 29  1  0
 28 29  1  0
 25 28  1  0
 27 26  1  0
  1  2  2  0
  2  8  1  0
  8  9  2  0
  9 10  1  0
 10  7  2  0
 17 18  2  0
 18 21  1  0
 21 22  2  0
 22 20  1  0
 20 19  2  0
 19 17  1  0
  1  3  1  0
  3  4  2  0
  4  5  1  0
  5  6  2  0
  6  7  1  0
  7  1  1  0
 11 12  2  0
 12 13  1  0
 13 14  2  0
 14 15  1  0
 15 16  2  0
 16 11  1  0
M  END
$$$$
