No_8182-complexes_sdf/6BKW-FPZ/2024-09-17-14-21-01/
     RDKit          3D

 17 18  0  0  0  0  0  0  0  0999 V2000
   -7.9040    3.9820   27.1177 C   0  0  0  0  0  0  0  0  0  0  0  0
   -8.2057    2.8231   26.8733 C   0  0  0  0  0  0  0  0  0  0  0  0
   -9.2962    2.4021   26.1155 C   0  0  0  0  0  0  0  0  0  0  0  0
   -8.7358    5.0662   26.5917 C   0  0  0  0  0  0  0  0  0  0  0  0
   -9.7618    4.7023   25.7546 C   0  0  0  0  0  0  0  0  0  0  0  0
  -10.0066    3.4105   25.4922 C   0  0  0  0  0  0  0  0  0  0  0  0
   -8.3943    6.4760   26.8801 C   0  0  0  0  0  0  0  0  0  0  0  0
   -8.0785    6.8107   28.2034 C   0  0  0  0  0  0  0  0  0  0  0  0
   -8.5489    7.4483   25.8942 C   0  0  0  0  0  0  0  0  0  0  0  0
   -7.3611    1.6620   27.4798 C   0  0  0  0  0  0  0  0  0  0  0  0
   -6.7343    0.8619   26.9929 N   0  0  0  0  0  0  0  0  0  0  0  0
   -5.8574    0.0948   27.7244 C   0  0  0  0  0  0  0  0  0  0  0  0
   -5.7931   -1.2372   27.7195 C   0  0  0  0  0  0  0  0  0  0  0  0
   -4.9032   -1.9020   28.4864 C   0  0  0  0  0  0  0  0  0  0  0  0
   -4.7855    0.8263   28.4316 C   0  0  0  0  0  0  0  0  0  0  0  0
   -3.8624    0.1988   29.2019 C   0  0  0  0  0  0  0  0  0  0  0  0
   -3.8402   -1.1542   29.2687 C   0  0  0  0  0  0  0  0  0  0  0  0
  4  7  1  0
  7  8  2  0
  7  9  1  0
  2 10  1  0
 10 11  1  0
 11 12  1  0
 12 13  2  0
 13 14  1  0
 14 17  2  0
 17 16  1  0
 16 15  2  0
 15 12  1  0
  1  2  2  0
  2  3  1  0
  3  6  2  0
  6  5  1  0
  5  4  2  0
  4  1  1  0
M  END
$$$$
