No_8796-complexes_sdf/6BKW-FPZ/2024-09-17-14-21-01/
     RDKit          3D

 17 18  0  0  0  0  0  0  0  0999 V2000
   -7.9040    3.9820   27.1177 C   0  0  0  0  0  0  0  0  0  0  0  0
   -9.0711    4.3164   27.0630 C   0  0  0  0  0  0  0  0  0  0  0  0
   -9.9692    3.7224   26.1073 C   0  0  0  0  0  0  0  0  0  0  0  0
   -6.9787    4.6761   28.1003 C   0  0  0  0  0  0  0  0  0  0  0  0
   -9.4538    2.6801   25.3673 C   0  0  0  0  0  0  0  0  0  0  0  0
   -8.1927    2.1957   25.6621 C   0  0  0  0  0  0  0  0  0  0  0  0
   -7.4333    2.8255   26.6299 C   0  0  0  0  0  0  0  0  0  0  0  0
  -10.3066    1.9975   24.3777 C   0  0  2  0  0  0  0  0  0  0  0  0
  -10.6559    2.6408   23.2832 C   0  0  0  0  0  0  0  0  0  0  0  0
  -11.0505    2.5615   22.3427 C   0  0  0  0  0  0  0  0  0  0  0  0
  -11.3839    3.4889   21.1812 C   0  0  0  0  0  0  0  0  0  0  0  0
  -11.1888    4.8344   21.4978 C   0  0  0  0  0  0  0  0  0  0  0  0
  -10.7561    5.1615   22.7741 C   0  0  0  0  0  0  0  0  0  0  0  0
  -10.4152    4.2469   23.6966 C   0  0  0  0  0  0  0  0  0  0  0  0
  -11.4252    1.2741   25.0221 C   0  0  0  0  0  0  0  0  0  0  0  0
  -12.5074    1.7061   25.3723 C   0  0  0  0  0  0  0  0  0  0  0  0
  -13.5621    0.9685   25.9904 C   0  0  0  0  0  0  0  0  0  0  0  0
  1  4  1  0
  8  5  1  1
  8 15  1  0
 15 16  2  3
 16 17  1  0
  8  9  1  0
  9 10  2  0
 10 11  1  0
 11 12  2  0
 12 13  1  0
 13 14  2  0
 14  9  1  0
  1  2  2  0
  2  3  1  0
  3  5  2  0
  5  6  1  0
  6  7  2  0
  7  1  1  0
M  END
$$$$
