No_8190-complexes_sdf/6BKW-FPZ/2024-09-17-14-21-01/
     RDKit          3D

 16 18  0  0  0  0  0  0  0  0999 V2000
   -7.2496    3.8871   27.4508 C   0  0  0  0  0  0  0  0  0  0  0  0
   -7.6161    2.7143   27.1523 C   0  0  0  0  0  0  0  0  0  0  0  0
   -7.1618    1.8631   27.5233 C   0  0  0  0  0  0  0  0  0  0  0  0
   -6.0841    4.1113   28.0941 C   0  0  0  0  0  0  0  0  0  0  0  0
   -7.6550    0.4062   27.2322 C   0  0  0  0  0  0  0  0  0  0  0  0
   -5.2810    2.9639   28.2848 C   0  0  0  0  0  0  0  0  0  0  0  0
   -5.7997    1.7328   28.0422 C   0  0  0  0  0  0  0  0  0  0  0  0
   -6.9799   -0.6486   27.4210 C   0  0  0  0  0  0  0  0  0  0  0  0
   -5.6583   -0.5837   27.9365 C   0  0  0  0  0  0  0  0  0  0  0  0
   -5.0817    0.5706   28.2605 C   0  0  0  0  0  0  0  0  0  0  0  0
   -7.9405    5.2980   27.2396 C   0  0  0  0  0  0  0  0  0  0  0  0
   -7.6631    6.4671   27.9191 C   0  0  0  0  0  0  0  0  0  0  0  0
   -9.0200    5.3013   26.2601 C   0  0  0  0  0  0  0  0  0  0  0  0
   -8.3203    7.6097   27.4489 C   0  0  0  0  0  0  0  0  0  0  0  0
   -9.4028    6.4617   25.6596 C   0  0  0  0  0  0  0  0  0  0  0  0
   -9.1454    7.6345   26.3395 C   0  0  0  0  0  0  0  0  0  0  0  0
  1 11  1  0
  3  5  2  0
  5  8  1  0
  8  9  2  0
  9 10  1  0
 10  7  2  0
 11 12  2  0
 12 14  1  0
 14 16  2  0
 16 15  1  0
 15 13  2  0
 13 11  1  0
  1  2  2  0
  2  3  1  0
  3  7  1  0
  7  6  1  0
  6  4  2  0
  4  1  1  0
M  END
$$$$
