No_850-complexes_sdf/6BKW-FPZ/2024-09-17-14-21-01/
     RDKit          3D

 12 13  0  0  0  0  0  0  0  0999 V2000
   -7.2496    3.8871   27.4508 C   0  0  0  0  0  0  0  0  0  0  0  0
   -7.6161    2.7143   27.1523 C   0  0  0  0  0  0  0  0  0  0  0  0
   -7.1618    1.8631   27.5232 C   0  0  0  0  0  0  0  0  0  0  0  0
   -8.0384    5.0866   27.3232 C   0  0  0  0  0  0  0  0  0  0  0  0
   -9.1224    5.1097   26.4856 C   0  0  0  0  0  0  0  0  0  0  0  0
   -8.9382    2.7289   26.5134 C   0  0  0  0  0  0  0  0  0  0  0  0
   -9.6249    3.8520   26.1646 C   0  0  0  0  0  0  0  0  0  0  0  0
   -6.6346    0.7384   27.0010 C   0  0  0  0  0  0  0  0  0  0  0  0
   -5.8560   -0.2755   27.6309 C   0  0  0  0  0  0  0  0  0  0  0  0
   -5.1107    0.2019   28.6691 C   0  0  0  0  0  0  0  0  0  0  0  0
   -5.1108    1.5103   29.1299 C   0  0  0  0  0  0  0  0  0  0  0  0
   -5.9443    2.3011   28.5961 C   0  0  0  0  0  0  0  0  0  0  0  0
  2  3  1  0
  3  8  2  0
  8  9  1  0
  9 10  2  0
 10 11  1  0
 11 12  2  0
 12  3  1  0
  1  2  2  0
  2  6  1  0
  6  7  2  0
  7  5  1  0
  5  4  2  0
  4  1  1  0
M  END
$$$$
