No_837-complexes_sdf/6BKW-FPZ/2024-09-17-14-21-01/
     RDKit          3D

 23 26  0  0  0  0  0  0  0  0999 V2000
   -7.7129    4.2099   27.0854 C   0  0  0  0  0  0  0  0  0  0  0  0
   -7.7814    5.1722   27.8972 C   0  0  0  0  0  0  0  0  0  0  0  0
   -7.3155    2.9700   27.6145 C   0  0  0  0  0  0  0  0  0  0  0  0
   -7.6814    1.8188   26.9581 C   0  0  0  0  0  0  0  0  0  0  0  0
   -8.6377    1.9131   25.9324 C   0  0  0  0  0  0  0  0  0  0  0  0
   -9.1866    3.0673   25.6037 C   0  0  0  0  0  0  0  0  0  0  0  0
   -8.8394    4.1752   26.2513 C   0  0  0  0  0  0  0  0  0  0  0  0
   -8.2486    6.4747   27.5719 N   0  0  0  0  0  0  0  0  0  0  0  0
   -9.1525    6.6854   26.5919 C   0  0  0  0  0  0  0  0  0  0  0  0
   -9.4607    5.4864   25.8772 C   0  0  0  0  0  0  0  0  0  0  0  0
   -7.1592    0.4677   27.1702 C   0  0  0  0  0  0  0  0  0  0  0  0
   -7.7499   -0.6871   27.0482 C   0  0  0  0  0  0  0  0  0  0  0  0
   -7.2568   -1.8169   27.5903 C   0  0  0  0  0  0  0  0  0  0  0  0
   -6.0477   -1.8047   28.3050 C   0  0  0  0  0  0  0  0  0  0  0  0
   -5.3874   -0.6167   28.5384 C   0  0  0  0  0  0  0  0  0  0  0  0
   -5.9186    0.5564   28.0752 C   0  0  0  0  0  0  0  0  0  0  0  0
   -4.1256   -0.5613   29.3348 C   0  0  0  0  0  0  0  0  0  0  0  0
   -4.1613   -0.4407   30.5955 N   0  0  0  0  0  0  0  0  0  0  0  0
   -3.0582   -0.5991   31.4045 C   0  0  0  0  0  0  0  0  0  0  0  0
   -2.9166   -0.4175   28.6364 C   0  0  0  0  0  0  0  0  0  0  0  0
   -1.7011   -0.7431   29.3130 C   0  0  0  0  0  0  0  0  0  0  0  0
   -1.8370   -0.7057   30.7598 N   0  0  0  0  0  0  0  0  0  0  0  0
   -3.0816   -0.6065   32.6399 F   0  0  0  0  0  0  0  0  0  0  0  0
  4 11  1  0
 15 17  1  0
 19 23  1  0
 11 12  2  0
 12 13  1  0
 13 14  2  0
 14 15  1  0
 15 16  2  0
 16 11  1  0
  1  2  2  0
  2  8  1  0
  8  9  2  0
  9 10  1  0
 10  7  2  0
 17 18  2  0
 18 19  1  0
 19 22  2  0
 22 21  1  0
 21 20  2  0
 20 17  1  0
  1  3  1  0
  3  4  2  0
  4  5  1  0
  5  6  2  0
  6  7  1  0
  7  1  1  0
M  END
$$$$
