No_8302-complexes_sdf/6BKW-FPZ/2024-09-17-14-21-01/
     RDKit          3D

 17 19  0  0  0  0  0  0  0  0999 V2000
   -7.2496    3.8871   27.4508 C   0  0  0  0  0  0  0  0  0  0  0  0
   -7.6161    2.7143   27.1523 C   0  0  0  0  0  0  0  0  0  0  0  0
   -7.1618    1.8631   27.5232 C   0  0  0  0  0  0  0  0  0  0  0  0
   -8.0036    5.1085   27.2100 C   0  0  0  0  0  0  0  0  0  0  0  0
   -7.6739    6.3858   27.8565 C   0  0  0  0  0  0  0  0  0  0  0  0
   -9.1299    5.0820   26.3730 C   0  0  0  0  0  0  0  0  0  0  0  0
   -9.5383    3.9035   25.7505 C   0  0  0  0  0  0  0  0  0  0  0  0
   -8.8363    2.6722   26.2434 C   0  0  0  0  0  0  0  0  0  0  0  0
   -7.5682    0.4244   27.2762 C   0  0  0  0  0  0  0  0  0  0  0  0
   -8.7606    0.2739   26.6540 C   0  0  0  0  0  0  0  0  0  0  0  0
   -9.4112    1.4358   25.9448 C   0  0  0  0  0  0  0  0  0  0  0  0
  -10.5161    3.8559   24.7688 C   0  0  0  0  0  0  0  0  0  0  0  0
  -10.2564    4.2384   23.4783 C   0  0  0  0  0  0  0  0  0  0  0  0
  -11.2252    4.2625   22.4555 C   0  0  0  0  0  0  0  0  0  0  0  0
  -12.4922    3.7017   22.7671 C   0  0  0  0  0  0  0  0  0  0  0  0
  -11.7722    3.2487   25.0292 C   0  0  0  0  0  0  0  0  0  0  0  0
  -12.7779    3.2904   24.0637 C   0  0  0  0  0  0  0  0  0  0  0  0
  4  5  1  0
  7 12  1  0
  1  2  2  0
  8  7  2  0
  7  6  1  0
  6  4  2  0
  4  1  1  0
 12 13  2  0
 13 14  1  0
 14 15  2  0
 15 17  1  0
 17 16  2  0
 16 12  1  0
  2  3  1  0
  3  9  2  0
  9 10  1  0
 10 11  2  0
 11  8  1  0
  8  2  1  0
M  END
$$$$
