No_8215-complexes_sdf/6BKW-FPZ/2024-09-17-14-21-01/
     RDKit          3D

 30 34  0  0  0  0  0  0  0  0999 V2000
   -7.7129    4.2099   27.0854 C   0  0  0  0  0  0  0  0  0  0  0  0
   -7.7814    5.1722   27.8972 C   0  0  0  0  0  0  0  0  0  0  0  0
   -8.7889    3.2468   27.2220 C   0  0  0  0  0  0  0  0  0  0  0  0
   -8.5940    1.9755   26.6525 C   0  0  0  0  0  0  0  0  0  0  0  0
   -7.5537    1.2112   27.0910 C   0  0  0  0  0  0  0  0  0  0  0  0
   -8.9922    5.8883   28.1677 C   0  0  0  0  0  0  0  0  0  0  0  0
   -9.9703    3.6893   27.7341 C   0  0  0  0  0  0  0  0  0  0  0  0
  -10.0936    4.8252   28.0663 C   0  0  0  0  0  0  0  0  0  0  0  0
   -7.3514   -0.1158   26.6745 C   0  0  0  0  0  0  0  0  0  0  0  0
   -8.9463    1.5436   25.3559 C   0  0  0  0  0  0  0  0  0  0  0  0
   -8.7903    0.3877   24.7546 C   0  0  0  0  0  0  0  0  0  0  0  0
   -7.8682   -0.4603   25.4414 C   0  0  0  0  0  0  0  0  0  0  0  0
  -11.0860    2.7026   27.7376 C   0  0  0  0  0  0  0  0  0  0  0  0
  -11.2777    1.6977   27.8619 C   0  0  0  0  0  0  0  0  0  0  0  0
  -12.4284    0.8571   28.0442 C   0  0  0  0  0  0  0  0  0  0  0  0
  -13.5914    1.5275   27.9509 C   0  0  0  0  0  0  0  0  0  0  0  0
  -12.5837    3.2998   27.6991 C   0  0  0  0  0  0  0  0  0  0  0  0
  -13.6821    2.7819   27.7954 C   0  0  0  0  0  0  0  0  0  0  0  0
   -9.9188    2.5245   24.5807 C   0  0  0  0  0  0  0  0  0  0  0  0
  -11.0275    2.4268   24.2232 C   0  0  0  0  0  0  0  0  0  0  0  0
  -11.8017    3.3556   23.5519 C   0  0  0  0  0  0  0  0  0  0  0  0
  -11.1837    4.5797   23.2136 C   0  0  0  0  0  0  0  0  0  0  0  0
   -9.8946    4.8364   23.6942 C   0  0  0  0  0  0  0  0  0  0  0  0
   -9.2559    3.8993   24.3896 C   0  0  0  0  0  0  0  0  0  0  0  0
   -6.3967   -1.0099   27.4032 C   0  0  0  0  0  0  0  0  0  0  0  0
   -6.7977   -2.0923   27.8772 C   0  0  0  0  0  0  0  0  0  0  0  0
   -5.9480   -2.9186   28.7407 C   0  0  0  0  0  0  0  0  0  0  0  0
   -4.6528   -2.4629   29.0378 C   0  0  0  0  0  0  0  0  0  0  0  0
   -4.2358   -1.1877   28.5203 C   0  0  0  0  0  0  0  0  0  0  0  0
   -5.0935   -0.4140   27.7908 C   0  0  0  0  0  0  0  0  0  0  0  0
  3  4  1  0
  7 13  1  0
 10 19  1  0
  9 25  1  0
 25 26  2  0
 26 27  1  0
 27 28  2  0
 28 29  1  0
 29 30  2  0
 30 25  1  0
 19 20  2  0
 20 21  1  0
 21 22  2  0
 22 23  1  0
 23 24  2  0
 24 19  1  0
  1  2  2  0
  2  6  1  0
  6  8  2  0
  8  7  1  0
  7  3  2  0
  3  1  1  0
 13 14  2  0
 14 15  1  0
 15 16  2  0
 16 18  1  0
 18 17  2  0
 17 13  1  0
  4  5  2  0
  5  9  1  0
  9 12  2  0
 12 11  1  0
 11 10  2  0
 10  4  1  0
M  END
$$$$
