No_8828-complexes_sdf/6BKW-FPZ/2024-09-17-14-21-01/
     RDKit          3D

 22 24  0  0  0  0  0  0  0  0999 V2000
   -7.9040    3.9820   27.1177 C   0  0  0  0  0  0  0  0  0  0  0  0
   -7.8663    4.8694   27.9238 C   0  0  0  0  0  0  0  0  0  0  0  0
   -9.0501    3.8017   26.2617 C   0  0  0  0  0  0  0  0  0  0  0  0
   -9.1826    2.7026   25.3575 C   0  0  0  0  0  0  0  0  0  0  0  0
   -8.6940    6.0131   27.8614 C   0  0  0  0  0  0  0  0  0  0  0  0
   -9.7382    4.9916   26.1006 C   0  0  0  0  0  0  0  0  0  0  0  0
   -9.6356    6.0254   26.9506 C   0  0  0  0  0  0  0  0  0  0  0  0
  -10.1540    2.7476   24.3765 C   0  0  0  0  0  0  0  0  0  0  0  0
  -10.3442    3.8836   23.7371 C   0  0  0  0  0  0  0  0  0  0  0  0
  -10.5241    5.0034   24.8693 N   0  0  0  0  0  0  0  0  0  0  0  0
   -6.8846    2.5470   27.4276 Cl  0  0  0  0  0  0  0  0  0  0  0  0
  -10.2336    1.5714   23.4612 C   0  0  0  0  0  0  0  0  0  0  0  0
  -11.3452    0.9654   23.5486 C   0  0  0  0  0  0  0  0  0  0  0  0
  -12.2501    1.0718   24.3154 C   0  0  0  0  0  0  0  0  0  0  0  0
  -13.5126    0.3123   24.3092 C   0  0  0  0  0  0  0  0  0  0  0  0
  -13.6275   -0.5572   23.2597 C   0  0  0  0  0  0  0  0  0  0  0  0
  -12.6980   -0.7392   22.3165 C   0  0  0  0  0  0  0  0  0  0  0  0
  -11.5074   -0.0333   22.3659 C   0  0  0  0  0  0  0  0  0  0  0  0
   -9.1241    1.2132   22.8451 O   0  0  0  0  0  0  0  0  0  0  0  0
  -12.8829   -1.6873   21.2140 C   0  0  0  0  0  0  0  0  0  0  0  0
  -13.7925   -1.7056   20.4966 C   0  0  0  0  0  0  0  0  0  0  0  0
  -13.9419   -2.6652   19.3880 C   0  0  0  0  0  0  0  0  0  0  0  0
  1 11  1  0
  8 12  1  0
 12 13  1  0
 12 19  2  0
 17 20  1  0
 20 21  2  3
 21 22  1  0
 13 14  2  0
 14 15  1  0
 15 16  2  0
 16 17  1  0
 17 18  2  0
 18 13  1  0
  3  4  2  0
  4  8  1  0
  8  9  2  0
  9 10  1  0
 10  6  2  0
  1  2  2  0
  2  5  1  0
  5  7  2  0
  7  6  1  0
  6  3  1  0
  3  1  1  0
M  END
$$$$
