No_8593-complexes_sdf/6BKW-FPZ/2024-09-17-14-21-01/
     RDKit          3D

 30 34  0  0  0  0  0  0  0  0999 V2000
   -7.7129    4.2099   27.0854 C   0  0  0  0  0  0  0  0  0  0  0  0
   -8.2112    3.0637   26.9225 C   0  0  0  0  0  0  0  0  0  0  0  0
   -7.0021    4.5281   28.2396 C   0  0  0  0  0  0  0  0  0  0  0  0
   -7.5497    1.9016   27.4549 C   0  0  0  0  0  0  0  0  0  0  0  0
   -8.0700    0.6173   27.2932 C   0  0  0  0  0  0  0  0  0  0  0  0
   -9.3589    0.5577   26.6828 C   0  0  0  0  0  0  0  0  0  0  0  0
  -10.0040    1.6252   26.1809 C   0  0  0  0  0  0  0  0  0  0  0  0
   -9.4269    2.8857   26.2743 C   0  0  0  0  0  0  0  0  0  0  0  0
   -8.4271    5.3530   26.4842 C   0  0  0  0  0  0  0  0  0  0  0  0
   -8.1382    6.7251   26.9088 C   0  0  0  0  0  0  0  0  0  0  0  0
   -6.8242    5.9075   28.7180 C   0  0  0  0  0  0  0  0  0  0  0  0
   -7.3458    6.9116   28.0142 C   0  0  0  0  0  0  0  0  0  0  0  0
  -11.2960    1.4350   25.4800 C   0  0  2  0  0  0  0  0  0  0  0  0
  -11.3789    1.8603   24.2885 C   0  0  0  0  0  0  0  0  0  0  0  0
  -10.7792    2.2121   23.5156 C   0  0  0  0  0  0  0  0  0  0  0  0
  -10.6873    2.6442   22.2892 C   0  0  0  0  0  0  0  0  0  0  0  0
  -11.7160    2.8130   21.5248 C   0  0  0  0  0  0  0  0  0  0  0  0
  -12.9287    2.4499   22.2626 C   0  0  0  0  0  0  0  0  0  0  0  0
  -12.8075    2.0445   23.5614 C   0  0  0  0  0  0  0  0  0  0  0  0
  -12.3298    0.8582   26.2727 C   0  0  0  0  0  0  0  0  0  0  0  0
  -12.4032   -0.3971   26.3684 O   0  0  0  0  0  0  0  0  0  0  0  0
  -13.2141    1.6289   26.8577 O   0  0  0  0  0  0  0  0  0  0  0  0
   -7.4131   -0.5258   27.8568 C   0  0  0  0  0  0  0  0  0  0  0  0
   -6.0170   -0.5763   27.9077 C   0  0  0  0  0  0  0  0  0  0  0  0
   -5.2131   -1.1896   28.2985 C   0  0  0  0  0  0  0  0  0  0  0  0
   -3.7215   -0.9601   28.3465 C   0  0  0  0  0  0  0  0  0  0  0  0
   -3.2679    0.2468   27.7560 C   0  0  0  0  0  0  0  0  0  0  0  0
   -4.2261    1.0985   27.2674 C   0  0  0  0  0  0  0  0  0  0  0  0
   -5.5094    0.8420   27.3395 C   0  0  0  0  0  0  0  0  0  0  0  0
   -6.3854    1.8766   27.1436 N   0  0  0  0  0  0  0  0  0  0  0  0
  1  2  1  0
  7 13  1  0
 13 14  1  0
 13 20  1  1
 20 21  2  0
 20 22  1  0
  1  3  2  0
  3 11  1  0
 11 12  2  0
 12 10  1  0
 10  9  2  0
  9  1  1  0
 24 25  1  0
 25 26  2  0
 26 27  1  0
 27 28  2  0
 28 29  1  0
  5 23  1  0
 23 24  2  0
 24 29  1  0
 29 30  2  0
 30  4  1  0
 14 15  2  0
 15 16  1  0
 16 17  2  0
 17 18  1  0
 18 19  2  0
 19 14  1  0
  2  4  2  0
  4  5  1  0
  5  6  2  0
  6  7  1  0
  7  8  2  0
  8  2  1  0
M  END
$$$$
