No_8923-complexes_sdf/6BKW-FPZ/2024-09-17-14-21-01/
     RDKit          3D

 19 20  0  0  0  0  0  0  0  0999 V2000
   -7.7129    4.2099   27.0854 C   0  0  0  0  0  0  0  0  0  0  0  0
   -7.7814    5.1722   27.8972 C   0  0  0  0  0  0  0  0  0  0  0  0
   -8.8998    3.8713   26.3707 C   0  0  0  0  0  0  0  0  0  0  0  0
   -9.9938    4.6774   26.5446 C   0  0  0  0  0  0  0  0  0  0  0  0
   -8.7789    6.1536   27.9256 C   0  0  0  0  0  0  0  0  0  0  0  0
   -9.9428    5.8398   27.2296 C   0  0  0  0  0  0  0  0  0  0  0  0
   -8.7183    2.6009   25.5951 C   0  0  0  0  0  0  0  0  0  0  0  0
   -9.5264    2.5015   24.5160 C   0  0  0  0  0  0  0  0  0  0  0  0
   -9.5308    1.3094   23.7289 C   0  0  0  0  0  0  0  0  0  0  0  0
   -8.6121    0.2857   24.0936 C   0  0  0  0  0  0  0  0  0  0  0  0
   -7.8752    0.4100   25.2531 C   0  0  0  0  0  0  0  0  0  0  0  0
   -7.9307    1.5740   26.0425 C   0  0  0  0  0  0  0  0  0  0  0  0
  -10.2659    1.2202   22.4961 C   0  0  0  0  0  0  0  0  0  0  0  0
  -11.5671    0.5750   22.4724 Cl  0  0  0  0  0  0  0  0  0  0  0  0
  -10.2272    2.4306   21.8764 F   0  0  0  0  0  0  0  0  0  0  0  0
   -9.3902    0.5221   21.6022 F   0  0  0  0  0  0  0  0  0  0  0  0
   -6.6408    5.6000   28.5808 F   0  0  0  0  0  0  0  0  0  0  0  0
   -6.8446   -0.8594   25.7025 Cl  0  0  0  0  0  0  0  0  0  0  0  0
  -11.4224    4.2968   25.6535 Cl  0  0  0  0  0  0  0  0  0  0  0  0
  3  7  1  0
  9 13  1  0
 13 14  1  0
 13 15  1  0
 13 16  1  0
  2 17  1  0
 11 18  1  0
  4 19  1  0
  1  2  2  0
  2  5  1  0
  5  6  2  0
  6  4  1  0
  4  3  2  0
  3  1  1  0
  7  8  2  0
  8  9  1  0
  9 10  2  0
 10 11  1  0
 11 12  2  0
 12  7  1  0
M  END
$$$$
