No_8380-complexes_sdf/6BKW-FPZ/2024-09-17-14-21-01/
     RDKit          3D

 35 37  0  0  0  0  0  0  0  0999 V2000
   -7.2496    3.8871   27.4508 C   0  0  0  0  0  0  0  0  0  0  0  0
   -8.5096    4.0291   27.2770 C   0  0  0  0  0  0  0  0  0  0  0  0
   -9.3451    2.8786   26.9046 C   0  0  0  0  0  0  0  0  0  0  0  0
   -6.6065    2.5680   27.5073 C   0  0  0  0  0  0  0  0  0  0  0  0
   -7.3970    1.4834   27.2271 C   0  0  0  0  0  0  0  0  0  0  0  0
   -8.7029    1.6398   26.9934 C   0  0  0  0  0  0  0  0  0  0  0  0
   -9.2878    5.2595   27.2401 C   0  0  0  0  0  0  0  0  0  0  0  0
  -10.5400    5.5419   27.5456 C   0  0  0  0  0  0  0  0  0  0  0  0
   -8.4056    6.4618   26.9523 C   0  0  0  0  0  0  0  0  0  0  0  0
   -8.5815    7.7529   27.0746 C   0  0  0  0  0  0  0  0  0  0  0  0
   -5.3086    2.5022   27.7985 O   0  0  0  0  0  0  0  0  0  0  0  0
   -7.5377    8.6630   26.6949 C   0  0  0  0  0  0  0  0  0  0  0  0
   -6.8908    0.1193   27.2682 C   0  0  0  0  0  0  0  0  0  0  0  0
   -5.8197   -0.1958   27.7436 C   0  0  0  0  0  0  0  0  0  0  0  0
   -5.2791   -1.5316   27.7761 C   0  0  0  0  0  0  0  0  0  0  0  0
   -6.0772   -2.4699   27.1674 C   0  0  0  0  0  0  0  0  0  0  0  0
   -7.4943   -1.0189   26.7562 C   0  0  0  0  0  0  0  0  0  0  0  0
   -7.1703   -2.2209   26.6581 C   0  0  0  0  0  0  0  0  0  0  0  0
   -6.5680    9.1478   26.9538 N   0  0  0  0  0  0  0  0  0  0  0  0
   -3.7577   -1.8646   28.5590 Cl  0  0  0  0  0  0  0  0  0  0  0  0
   -7.9977   -3.2498   26.0327 C   0  0  0  0  0  0  0  0  0  0  0  0
   -7.7062   -4.2661   25.9565 O   0  0  0  0  0  0  0  0  0  0  0  0
   -9.0387   -2.7774   25.2353 O   0  0  0  0  0  0  0  0  0  0  0  0
   -9.9324   -3.5574   24.7180 C   0  0  0  0  0  0  0  0  0  0  0  0
  -10.7722   -3.0319   24.0201 C   0  0  0  0  0  0  0  0  0  0  0  0
  -10.9729   -1.7154   23.8317 C   0  0  0  0  0  0  0  0  0  0  0  0
  -11.1069   -0.8822   23.1448 C   0  0  0  0  0  0  0  0  0  0  0  0
  -11.2481    0.6098   23.2374 C   0  0  0  0  0  0  0  0  0  0  0  0
  -10.7842    1.5410   22.3535 C   0  0  0  0  0  0  0  0  0  0  0  0
  -10.3807    0.9942   21.0594 C   0  0  0  0  0  0  0  0  0  0  0  0
  -10.1854   -0.3518   20.9378 C   0  0  0  0  0  0  0  0  0  0  0  0
  -10.4374   -1.1939   21.9632 C   0  0  0  0  0  0  0  0  0  0  0  0
  -11.0567    2.9773   22.4190 C   0  0  0  0  0  0  0  0  0  0  0  0
  -10.2873    3.5531   23.3608 C   0  0  0  0  0  0  0  0  0  0  0  0
  -10.4242    5.0267   23.6433 C   0  0  0  0  0  0  0  0  0  0  0  0
  2  7  1  0
  7  8  2  0
  7  9  1  0
  9 10  2  3
  4 11  1  0
 10 12  1  0
  5 13  1  0
 12 19  3  0
 15 20  1  0
 18 21  1  0
 21 22  2  0
 21 23  1  0
 23 24  1  0
 24 25  1  0
 25 26  1  0
 29 33  1  0
 33 34  3  0
 34 35  1  0
 26 27  1  0
 27 28  2  0
 28 29  1  0
 29 30  2  0
 30 31  1  0
 31 32  2  0
 32 27  1  0
  1  2  2  0
  2  3  1  0
  3  6  2  0
  6  5  1  0
  5  4  2  0
  4  1  1  0
 13 14  2  0
 14 15  1  0
 15 16  2  0
 16 18  1  0
 18 17  2  0
 17 13  1  0
M  END
$$$$
