No_8910-complexes_sdf/6BKW-FPZ/2024-09-17-14-21-01/
     RDKit          3D

 16 17  0  0  0  0  0  0  0  0999 V2000
   -7.9040    3.9820   27.1177 C   0  0  0  0  0  0  0  0  0  0  0  0
   -7.8663    4.8694   27.9238 C   0  0  0  0  0  0  0  0  0  0  0  0
   -9.0806    3.1428   27.1220 C   0  0  0  0  0  0  0  0  0  0  0  0
  -10.0909    3.4892   26.5180 C   0  0  0  0  0  0  0  0  0  0  0  0
   -9.0818    5.8025   27.6063 C   0  0  0  0  0  0  0  0  0  0  0  0
  -10.3119    5.0061   27.2645 C   0  0  0  0  0  0  0  0  0  0  0  0
   -8.9334    1.6545   27.3558 C   0  0  0  0  0  0  0  0  0  0  0  0
   -7.6862    1.0391   27.2191 C   0  0  0  0  0  0  0  0  0  0  0  0
   -7.4874   -0.3002   27.5068 C   0  0  0  0  0  0  0  0  0  0  0  0
   -8.5997   -1.0145   27.9172 C   0  0  0  0  0  0  0  0  0  0  0  0
   -9.9647    0.8446   27.7693 C   0  0  0  0  0  0  0  0  0  0  0  0
   -9.8568   -0.4345   28.0777 C   0  0  0  0  0  0  0  0  0  0  0  0
   -6.8608    5.6115   28.6213 C   0  0  0  0  0  0  0  0  0  0  0  0
   -8.6455   -2.4194   28.3326 C   0  0  0  0  0  0  0  0  0  0  0  0
   -9.5573   -3.0141   28.7575 C   0  0  0  0  0  0  0  0  0  0  0  0
  -10.5142   -2.7400   29.0210 C   0  0  0  0  0  0  0  0  0  0  0  0
  3  7  1  0
  2 13  1  0
 10 14  1  0
 14 15  2  3
 15 16  1  0
  7  8  2  0
  8  9  1  0
  9 10  2  0
 10 12  1  0
 12 11  2  0
 11  7  1  0
  1  2  2  0
  2  5  1  0
  5  6  2  0
  6  4  1  0
  4  3  2  0
  3  1  1  0
M  END
$$$$
