No_8172-complexes_sdf/6BKW-FPZ/2024-09-17-14-21-01/
     RDKit          3D

 39 44  0  0  0  0  0  0  0  0999 V2000
   -7.9040    3.9820   27.1177 C   0  0  0  0  0  0  0  0  0  0  0  0
   -8.2057    2.8231   26.8733 C   0  0  0  0  0  0  0  0  0  0  0  0
   -8.7463    4.9537   27.6708 C   0  0  0  0  0  0  0  0  0  0  0  0
  -10.0901    4.5164   28.0293 C   0  0  0  0  0  0  0  0  0  0  0  0
   -9.5729    2.3483   27.2382 C   0  0  0  0  0  0  0  0  0  0  0  0
  -10.4170    3.2421   27.8237 C   0  0  0  0  0  0  0  0  0  0  0  0
   -8.2984    6.3439   27.8789 C   0  0  0  0  0  0  0  0  0  0  0  0
   -9.8553    0.9095   27.0177 C   0  0  0  0  0  0  0  0  0  0  0  0
   -9.0064    0.0729   27.0321 N   0  0  0  0  0  0  0  0  0  0  0  0
   -9.1571   -1.2326   27.2526 C   0  0  0  0  0  0  0  0  0  0  0  0
  -11.0679    0.3434   26.5411 C   0  0  0  0  0  0  0  0  0  0  0  0
  -11.4661   -0.8590   26.9411 C   0  0  0  0  0  0  0  0  0  0  0  0
  -10.3921   -1.7748   27.1067 C   0  0  0  0  0  0  0  0  0  0  0  0
   -7.0691    6.4120   28.1529 F   0  0  0  0  0  0  0  0  0  0  0  0
   -8.8461    7.0712   27.3190 F   0  0  0  0  0  0  0  0  0  0  0  0
  -11.6353    2.8410   28.2322 O   0  0  0  0  0  0  0  0  0  0  0  0
  -12.5396    3.7811   28.5926 C   0  0  0  0  0  0  0  0  0  0  0  0
  -13.4170    3.3594   29.7163 C   0  0  0  0  0  0  0  0  0  0  0  0
  -14.3730    4.2339   30.2219 C   0  0  0  0  0  0  0  0  0  0  0  0
  -14.8145    5.2872   29.3953 C   0  0  0  0  0  0  0  0  0  0  0  0
  -14.0533    5.5511   28.1847 C   0  0  0  0  0  0  0  0  0  0  0  0
  -12.9908    4.7768   27.8128 C   0  0  0  0  0  0  0  0  0  0  0  0
  -15.1043    3.8447   31.4381 C   0  0  0  0  0  0  0  0  0  0  0  0
  -14.9165    2.6996   31.9610 C   0  0  0  0  0  0  0  0  0  0  0  0
  -13.0807    2.2193   30.3753 C   0  0  0  0  0  0  0  0  0  0  0  0
  -13.8018    1.8677   31.6106 C   0  0  0  0  0  0  0  0  0  0  0  0
   -8.0694   -2.0792   27.5323 N   0  0  0  0  0  0  0  0  0  0  0  0
   -6.8498   -1.5090   27.5229 C   0  0  0  0  0  0  0  0  0  0  0  0
   -6.1953   -1.3200   26.3752 C   0  0  0  0  0  0  0  0  0  0  0  0
   -6.4734   -1.4589   25.2299 C   0  0  0  0  0  0  0  0  0  0  0  0
   -5.7084   -1.0093   24.0962 C   0  0  0  0  0  0  0  0  0  0  0  0
   -6.2755   -0.9600   22.9001 N   0  0  0  0  0  0  0  0  0  0  0  0
   -7.5811   -1.0797   22.7437 C   0  0  0  0  0  0  0  0  0  0  0  0
   -8.3841   -1.4603   23.7356 C   0  0  0  0  0  0  0  0  0  0  0  0
   -7.8566   -1.4828   25.0518 C   0  0  0  0  0  0  0  0  0  0  0  0
   -8.2763   -2.5132   25.5576 C   0  0  2  0  0  0  0  0  0  0  0  0
   -8.1187   -3.0827   26.4748 C   0  0  0  0  0  0  0  0  0  0  0  0
   -9.2114   -3.4882   24.6179 C   0  0  0  0  0  0  0  0  0  0  0  0
   -9.4081   -4.7507   24.8182 C   0  0  0  0  0  0  0  0  0  0  0  0
  3  7  1  0
  5  8  1  0
  7 14  1  0
  7 15  1  0
  6 16  1  0
 16 17  1  0
 10 27  1  0
 27 28  1  0
 28 29  2  0
 29 30  1  0
 35 36  1  0
 27 37  1  0
 36 37  1  0
 36 38  1  6
 38 39  2  0
  8  9  2  0
  9 10  1  0
 10 13  2  0
 13 12  1  0
 12 11  2  0
 11  8  1  0
 30 31  2  0
 31 32  1  0
 32 33  2  0
 33 34  1  0
 34 35  2  0
 35 30  1  0
 19 23  1  0
 23 24  2  0
 24 26  1  0
 26 25  2  0
 25 18  1  0
 17 18  2  0
 18 19  1  0
 19 20  2  0
 20 21  1  0
 21 22  2  0
 22 17  1  0
  1  2  2  0
  2  5  1  0
  5  6  2  0
  6  4  1  0
  4  3  2  0
  3  1  1  0
M  END
$$$$
