No_8284-complexes_sdf/6BKW-FPZ/2024-09-17-14-21-01/
     RDKit          3D

 25 28  0  0  0  0  0  0  0  0999 V2000
   -7.9040    3.9820   27.1177 C   0  0  0  0  0  0  0  0  0  0  0  0
   -9.0711    4.3164   27.0630 C   0  0  0  0  0  0  0  0  0  0  0  0
   -9.5294    5.4517   27.7215 C   0  0  0  0  0  0  0  0  0  0  0  0
   -7.4336    2.7132   26.5681 C   0  0  0  0  0  0  0  0  0  0  0  0
   -8.3353    1.8569   26.0442 C   0  0  1  0  0  0  0  0  0  0  0  0
   -9.6477    2.2853   25.9146 C   0  0  0  0  0  0  0  0  0  0  0  0
  -10.0128    3.4491   26.3321 C   0  0  0  0  0  0  0  0  0  0  0  0
   -7.6789    0.6349   25.6000 C   0  0  0  0  0  0  0  0  0  0  0  0
   -6.9874   -0.1016   26.4269 N   0  0  0  0  0  0  0  0  0  0  0  0
   -6.8263    0.2324   27.6195 C   0  0  0  0  0  0  0  0  0  0  0  0
   -6.4346   -1.3122   25.9272 C   0  0  0  0  0  0  0  0  0  0  0  0
   -5.5143   -0.2117   28.2085 C   0  0  0  0  0  0  0  0  0  0  0  0
   -5.3516   -1.4414   28.2785 C   0  0  0  0  0  0  0  0  0  0  0  0
   -5.3710   -1.9061   26.7566 C   0  0  0  0  0  0  0  0  0  0  0  0
   -8.2417    0.1368   24.5665 O   0  0  0  0  0  0  0  0  0  0  0  0
   -6.8870    4.7487   27.9818 C   0  0  0  0  0  0  0  0  0  0  0  0
   -7.3387    5.9235   28.4885 N   0  0  0  0  0  0  0  0  0  0  0  0
   -8.6526    6.2997   28.3248 C   0  0  0  0  0  0  0  0  0  0  0  0
  -11.3973    3.8953   26.0803 C   0  0  0  0  0  0  0  0  0  0  0  0
  -12.3183    3.7285   27.1401 C   0  0  0  0  0  0  0  0  0  0  0  0
  -13.6340    4.1544   26.9665 C   0  0  0  0  0  0  0  0  0  0  0  0
  -14.0403    4.5204   25.6519 C   0  0  0  0  0  0  0  0  0  0  0  0
  -13.0915    4.5977   24.6158 C   0  0  0  0  0  0  0  0  0  0  0  0
  -11.7424    4.2771   24.8409 C   0  0  0  0  0  0  0  0  0  0  0  0
  -10.6745    4.3933   23.5747 Cl  0  0  0  0  0  0  0  0  0  0  0  0
  1  4  1  0
  4  5  1  0
  5  6  1  0
  2  7  1  0
  6  7  1  0
  5  8  1  6
  8  9  1  0
  9 10  1  0
  9 11  1  0
 12 13  1  0
 11 14  1  0
 13 14  1  0
  8 15  2  0
  7 19  1  0
 24 25  1  0
 10 12  1  0
 19 20  2  0
 20 21  1  0
 21 22  2  0
 22 23  1  0
 23 24  2  0
 24 19  1  0
  1  2  1  0
  2  3  2  0
  3 18  1  0
 18 17  2  0
 17 16  1  0
 16  1  2  0
M  END
$$$$
