No_8620-complexes_sdf/6BKW-FPZ/2024-09-17-14-21-01/
     RDKit          3D

 17 19  0  0  0  0  0  0  0  0999 V2000
   -7.9040    3.9820   27.1177 C   0  0  0  0  0  0  0  0  0  0  0  0
   -8.2057    2.8231   26.8733 C   0  0  0  0  0  0  0  0  0  0  0  0
   -7.0130    4.3706   28.1140 C   0  0  0  0  0  0  0  0  0  0  0  0
   -7.4093    1.7370   27.3857 C   0  0  0  0  0  0  0  0  0  0  0  0
   -6.1712    2.1248   28.0064 C   0  0  0  0  0  0  0  0  0  0  0  0
   -5.9967    3.4283   28.2944 N   0  0  0  0  0  0  0  0  0  0  0  0
   -8.7889    5.2710   26.8233 C   0  0  0  0  0  0  0  0  0  0  0  0
   -8.3412    6.5543   26.9117 C   0  0  0  0  0  0  0  0  0  0  0  0
   -9.1641    7.5729   26.4548 C   0  0  0  0  0  0  0  0  0  0  0  0
   -5.2875    1.2153   28.3748 N   0  0  0  0  0  0  0  0  0  0  0  0
   -5.4373   -0.1254   28.3148 C   0  0  0  0  0  0  0  0  0  0  0  0
   -4.4067   -0.9320   28.8730 C   0  0  0  0  0  0  0  0  0  0  0  0
   -4.5321   -2.1972   29.1024 C   0  0  0  0  0  0  0  0  0  0  0  0
   -5.7014   -2.8224   28.5895 C   0  0  0  0  0  0  0  0  0  0  0  0
   -6.7144   -2.1068   28.0002 C   0  0  0  0  0  0  0  0  0  0  0  0
   -6.5950   -0.7202   27.9583 C   0  0  0  0  0  0  0  0  0  0  0  0
   -7.6273    0.3140   27.2349 C   0  0  0  0  0  0  0  0  0  0  0  0
  1  7  1  0
  7  8  2  3
  8  9  1  0
  5 10  1  0
 10 11  1  0
  4 17  1  0
 16 17  1  0
  1  2  2  0
  2  4  1  0
  4  5  2  0
  5  6  1  0
  6  3  2  0
  3  1  1  0
 11 12  2  0
 12 13  1  0
 13 14  2  0
 14 15  1  0
 15 16  2  0
 16 11  1  0
M  END
$$$$
