No_8197-complexes_sdf/6BKW-FPZ/2024-09-17-14-21-01/
     RDKit          3D

 33 37  0  0  0  0  0  0  0  0999 V2000
   -7.9040    3.9820   27.1177 C   0  0  0  0  0  0  0  0  0  0  0  0
   -8.2057    2.8231   26.8733 C   0  0  0  0  0  0  0  0  0  0  0  0
   -8.7695    5.0740   26.7916 C   0  0  0  0  0  0  0  0  0  0  0  0
   -8.4785    6.4289   27.2922 C   0  0  0  0  0  0  0  0  0  0  0  0
   -9.2529    2.3917   26.0668 C   0  0  0  0  0  0  0  0  0  0  0  0
  -10.1277    3.4333   25.7287 C   0  0  0  0  0  0  0  0  0  0  0  0
   -9.9101    4.7626   26.0802 C   0  0  0  0  0  0  0  0  0  0  0  0
   -7.1891    1.6728   27.2777 C   0  0  0  0  0  0  0  0  0  0  0  0
   -5.9425    2.0656   27.8511 C   0  0  0  0  0  0  0  0  0  0  0  0
   -5.0627    1.0049   28.2583 C   0  0  0  0  0  0  0  0  0  0  0  0
   -5.4464   -0.2936   28.2066 C   0  0  0  0  0  0  0  0  0  0  0  0
   -7.5777    0.3249   27.1944 C   0  0  0  0  0  0  0  0  0  0  0  0
   -6.6846   -0.6019   27.7134 C   0  0  0  0  0  0  0  0  0  0  0  0
   -7.6950    7.3416   26.5066 C   0  0  0  0  0  0  0  0  0  0  0  0
   -4.5449   -1.3343   28.7545 C   0  0  0  0  0  0  0  0  0  0  0  0
   -4.7556   -1.8093   29.9445 C   0  0  0  0  0  0  0  0  0  0  0  0
   -3.8594   -2.6030   30.5701 C   0  0  0  0  0  0  0  0  0  0  0  0
   -2.6886   -2.9825   29.8513 C   0  0  0  0  0  0  0  0  0  0  0  0
   -2.4409   -2.4610   28.6340 C   0  0  0  0  0  0  0  0  0  0  0  0
   -3.3348   -1.4868   28.0436 C   0  0  0  0  0  0  0  0  0  0  0  0
  -11.2916    3.1128   24.8693 C   0  0  0  0  0  0  0  0  0  0  0  0
  -11.1620    2.5142   23.8524 N   0  0  0  0  0  0  0  0  0  0  0  0
  -10.7435    1.4344   23.7122 C   0  0  0  0  0  0  0  0  0  0  0  0
  -10.3623    0.9376   22.3512 C   0  0  0  0  0  0  0  0  0  0  0  0
  -11.4109    3.2004   22.5322 C   0  0  0  0  0  0  0  0  0  0  0  0
  -11.0861    2.8657   21.3294 C   0  0  0  0  0  0  0  0  0  0  0  0
   -9.7971   -0.4721   22.2866 C   0  0  0  0  0  0  0  0  0  0  0  0
  -10.5121    1.6217   21.1965 C   0  0  0  0  0  0  0  0  0  0  0  0
  -10.4992   -1.4618   22.8231 C   0  0  0  0  0  0  0  0  0  0  0  0
   -9.9739   -2.7824   22.7747 C   0  0  0  0  0  0  0  0  0  0  0  0
   -8.7406   -3.0141   22.1755 C   0  0  0  0  0  0  0  0  0  0  0  0
   -7.9931   -1.9925   21.6198 C   0  0  0  0  0  0  0  0  0  0  0  0
   -8.4724   -0.7039   21.6624 C   0  0  0  0  0  0  0  0  0  0  0  0
  3  4  1  0
  2  8  1  0
  4 14  1  0
 11 15  1  0
  6 21  1  0
 21 22  1  0
 22 23  1  0
 22 25  1  0
 24 27  1  0
 24 28  1  0
 26 28  1  0
 23 24  1  0
 26 25  1  0
 15 16  2  0
 16 17  1  0
 17 18  2  0
 18 19  1  0
 19 20  2  0
 20 15  1  0
  1  2  2  0
  2  5  1  0
  5  6  2  0
  6  7  1  0
  7  3  2  0
  3  1  1  0
 27 29  2  0
 29 30  1  0
 30 31  2  0
 31 32  1  0
 32 33  2  0
 33 27  1  0
  8  9  2  0
  9 10  1  0
 10 11  2  0
 11 13  1  0
 13 12  2  0
 12  8  1  0
M  END
$$$$
