No_867-complexes_sdf/6BKW-FPZ/2024-09-17-14-21-01/
     RDKit          3D

 12 12  0  0  0  0  0  0  0  0999 V2000
   -7.9040    3.9820   27.1177 C   0  0  0  0  0  0  0  0  0  0  0  0
   -9.0711    4.3164   27.0630 C   0  0  0  0  0  0  0  0  0  0  0  0
   -9.9692    3.7224   26.1073 C   0  0  0  0  0  0  0  0  0  0  0  0
   -7.4776    2.6994   26.6283 C   0  0  0  0  0  0  0  0  0  0  0  0
   -8.4406    1.9440   25.9776 C   0  0  0  0  0  0  0  0  0  0  0  0
   -9.6379    2.5001   25.6881 C   0  0  0  0  0  0  0  0  0  0  0  0
   -6.9822    4.6399   27.9629 N   0  0  0  0  0  0  0  0  0  0  0  0
  -10.6051    1.7409   24.8368 C   0  0  0  0  0  0  0  0  0  0  0  0
  -10.7228    1.7381   23.6975 C   0  0  0  0  0  0  0  0  0  0  0  0
   -9.7878    2.6830   22.8860 C   0  0  0  0  0  0  0  0  0  0  0  0
   -9.8846    2.7510   21.4493 C   0  0  0  0  0  0  0  0  0  0  0  0
   -9.2284    3.7547   20.8001 C   0  0  0  0  0  0  0  0  0  0  0  0
  1  7  1  0
  6  8  1  0
  8  9  2  3
  9 10  1  0
 10 11  2  3
 11 12  1  0
  1  2  2  0
  2  3  1  0
  3  6  2  0
  6  5  1  0
  5  4  2  0
  4  1  1  0
M  END
$$$$
