No_8067-complexes_sdf/6BKW-FPZ/2024-09-17-14-21-01/
     RDKit          3D

 22 25  0  0  0  0  0  0  0  0999 V2000
   -7.9040    3.9820   27.1177 C   0  0  0  0  0  0  0  0  0  0  0  0
   -9.0711    4.3164   27.0630 C   0  0  0  0  0  0  0  0  0  0  0  0
   -9.8698    3.9665   25.9494 C   0  0  2  0  0  0  0  0  0  0  0  0
   -7.0332    4.5030   28.2025 C   0  0  0  0  0  0  0  0  0  0  0  0
  -10.9909    4.7237   25.5958 C   0  0  0  0  0  0  0  0  0  0  0  0
   -7.4989    5.5572   28.9524 C   0  0  0  0  0  0  0  0  0  0  0  0
  -11.8373    4.3183   26.1862 C   0  0  0  0  0  0  0  0  0  0  0  0
  -13.1774    4.9311   26.0302 C   0  0  0  0  0  0  0  0  0  0  0  0
   -8.8129    6.0246   28.6368 C   0  0  0  0  0  0  0  0  0  0  0  0
   -9.6095    5.4588   27.7409 C   0  0  0  0  0  0  0  0  0  0  0  0
  -14.2657    4.6495   26.9989 C   0  0  0  0  0  0  0  0  0  0  0  0
  -13.9368    3.9138   28.1181 C   0  0  0  0  0  0  0  0  0  0  0  0
  -12.7143    3.4389   28.4008 C   0  0  0  0  0  0  0  0  0  0  0  0
  -11.6908    3.6519   27.5829 C   0  0  0  0  0  0  0  0  0  0  0  0
  -10.2849    2.4596   26.0385 C   0  0  1  0  0  0  0  0  0  0  0  0
  -10.6349    2.6392   27.5819 C   0  0  0  0  0  0  0  0  0  0  0  0
  -11.1377    1.8935   25.1361 C   0  0  0  0  0  0  0  0  0  0  0  0
  -10.7592    0.8340   24.6333 C   0  0  0  0  0  0  0  0  0  0  0  0
  -11.5644    0.2072   23.5631 C   0  0  0  0  0  0  0  0  0  0  0  0
  -12.7247    0.8557   23.2309 C   0  0  0  0  0  0  0  0  0  0  0  0
  -13.1291    2.0400   23.8457 C   0  0  0  0  0  0  0  0  0  0  0  0
  -12.3027    2.5754   24.7848 C   0  0  0  0  0  0  0  0  0  0  0  0
  3  5  1  0
  5  7  1  0
  3 15  1  0
 14 16  1  0
 15 16  1  0
 15 17  1  6
  3  2  1  1
 17 18  2  0
 18 19  1  0
 19 20  2  0
 20 21  1  0
 21 22  2  0
 22 17  1  0
  7  8  2  0
  8 11  1  0
 11 12  2  0
 12 13  1  0
 13 14  2  0
 14  7  1  0
  1  2  2  0
  2 10  1  0
 10  9  2  0
  9  6  1  0
  6  4  2  0
  4  1  1  0
M  END
$$$$
