No_8842-complexes_sdf/6BKW-FPZ/2024-09-17-14-21-01/
     RDKit          3D

 19 20  0  0  0  0  0  0  0  0999 V2000
   -7.2496    3.8871   27.4508 C   0  0  0  0  0  0  0  0  0  0  0  0
   -7.9379    4.9063   27.8518 C   0  0  0  0  0  0  0  0  0  0  0  0
   -8.7729    5.5444   27.0168 C   0  0  0  0  0  0  0  0  0  0  0  0
   -7.7708    3.0049   26.4155 C   0  0  0  0  0  0  0  0  0  0  0  0
   -9.4150    4.8195   25.9760 C   0  0  0  0  0  0  0  0  0  0  0  0
   -8.8843    3.5312   25.7385 C   0  0  0  0  0  0  0  0  0  0  0  0
   -9.5441    2.6833   24.4268 Cl  0  0  0  0  0  0  0  0  0  0  0  0
   -6.2179    3.3238   28.1573 O   0  0  0  0  0  0  0  0  0  0  0  0
   -5.6501    2.1486   27.8792 C   0  0  0  0  0  0  0  0  0  0  0  0
   -6.3133    0.9555   27.8760 C   0  0  0  0  0  0  0  0  0  0  0  0
   -5.6534   -0.2480   27.7194 C   0  0  0  0  0  0  0  0  0  0  0  0
   -4.2401   -0.2188   27.7226 C   0  0  0  0  0  0  0  0  0  0  0  0
   -3.5219    0.9516   27.7478 C   0  0  0  0  0  0  0  0  0  0  0  0
   -4.2151    2.1316   27.8446 C   0  0  0  0  0  0  0  0  0  0  0  0
   -3.5057   -1.5220   27.5999 C   0  0  0  0  0  0  0  0  0  0  0  0
   -3.1437   -1.7600   26.4330 F   0  0  0  0  0  0  0  0  0  0  0  0
   -4.3174   -2.5540   27.9951 F   0  0  0  0  0  0  0  0  0  0  0  0
   -2.7470   -1.6722   28.7473 F   0  0  0  0  0  0  0  0  0  0  0  0
   -7.3278    5.7204   28.8452 O   0  0  0  0  0  0  0  0  0  0  0  0
  6  7  1  0
  1  8  1  0
  8  9  1  0
 12 15  1  0
 15 16  1  0
 15 17  1  0
 15 18  1  0
  2 19  1  0
  1  2  2  0
  2  3  1  0
  3  5  2  0
  5  6  1  0
  6  4  2  0
  4  1  1  0
  9 10  2  0
 10 11  1  0
 11 12  2  0
 12 13  1  0
 13 14  2  0
 14  9  1  0
M  END
$$$$
