No_8711-complexes_sdf/6BKW-FPZ/2024-09-17-14-21-01/
     RDKit          3D

 12 13  0  0  0  0  0  0  0  0999 V2000
   -7.2496    3.8871   27.4508 C   0  0  0  0  0  0  0  0  0  0  0  0
   -7.6161    2.7143   27.1523 C   0  0  0  0  0  0  0  0  0  0  0  0
   -6.9719    1.5838   27.5324 C   0  0  0  0  0  0  0  0  0  0  0  0
   -7.4590    0.2827   27.2615 C   0  0  0  0  0  0  0  0  0  0  0  0
   -8.6787    2.5578   26.1663 C   0  0  0  0  0  0  0  0  0  0  0  0
   -9.4717    3.6665   25.8354 C   0  0  0  0  0  0  0  0  0  0  0  0
   -8.0188    5.1137   27.1696 C   0  0  0  0  0  0  0  0  0  0  0  0
   -9.0768    4.9942   26.2941 C   0  0  0  0  0  0  0  0  0  0  0  0
   -6.7387   -0.7986   27.7127 C   0  0  0  0  0  0  0  0  0  0  0  0
   -5.5054   -0.6072   28.3393 C   0  0  0  0  0  0  0  0  0  0  0  0
   -4.9492    0.6611   28.4818 C   0  0  0  0  0  0  0  0  0  0  0  0
   -5.6499    1.7104   28.1128 C   0  0  0  0  0  0  0  0  0  0  0  0
  2  3  1  0
  3  4  2  0
  4  9  1  0
  9 10  2  0
 10 11  1  0
 11 12  2  0
 12  3  1  0
  1  2  2  0
  2  5  1  0
  5  6  2  0
  6  8  1  0
  8  7  2  0
  7  1  1  0
M  END
$$$$
