No_8227-complexes_sdf/6BKW-FPZ/2024-09-17-14-21-01/
     RDKit          3D

 31 33  0  0  0  0  0  0  0  0999 V2000
   -7.7129    4.2099   27.0854 C   0  0  0  0  0  0  0  0  0  0  0  0
   -8.2112    3.0637   26.9225 C   0  0  0  0  0  0  0  0  0  0  0  0
   -9.4446    2.8304   26.1868 C   0  0  0  0  0  0  0  0  0  0  0  0
   -8.4697    5.3956   26.7238 C   0  0  0  0  0  0  0  0  0  0  0  0
   -9.6172    5.2111   25.9513 C   0  0  0  0  0  0  0  0  0  0  0  0
  -10.0424    3.9782   25.6873 C   0  0  0  0  0  0  0  0  0  0  0  0
   -7.9172    6.7181   27.0124 C   0  0  0  0  0  0  0  0  0  0  0  0
   -7.2016    6.7379   28.0490 F   0  0  0  0  0  0  0  0  0  0  0  0
   -8.2251    7.7471   26.4593 F   0  0  0  0  0  0  0  0  0  0  0  0
   -7.4943    1.8021   27.3769 C   0  0  0  0  0  0  0  0  0  0  0  0
   -6.1158    1.8414   27.6945 C   0  0  0  0  0  0  0  0  0  0  0  0
   -5.4343    0.7075   28.1695 C   0  0  0  0  0  0  0  0  0  0  0  0
   -6.1138   -0.4945   28.1467 C   0  0  0  0  0  0  0  0  0  0  0  0
   -8.0603    0.5299   27.3771 C   0  0  0  0  0  0  0  0  0  0  0  0
   -7.4456   -0.5406   27.8066 C   0  0  0  0  0  0  0  0  0  0  0  0
   -4.0164    0.8417   28.5361 C   0  0  1  0  0  0  0  0  0  0  0  0
   -3.1721    1.1365   27.8160 N   0  0  0  0  0  0  0  0  0  0  0  0
   -3.6938    0.7658   29.9106 N   0  0  0  0  0  0  0  0  0  0  0  0
   -3.3360   -0.3754   30.6983 C   0  0  0  0  0  0  0  0  0  0  0  0
   -4.2372   -0.9924   31.4211 C   0  0  0  0  0  0  0  0  0  0  0  0
   -4.1331   -2.1967   31.7696 C   0  0  0  0  0  0  0  0  0  0  0  0
   -5.2016   -2.9295   32.4433 C   0  0  0  0  0  0  0  0  0  0  0  0
   -6.4253   -2.1989   32.7379 C   0  0  0  0  0  0  0  0  0  0  0  0
   -6.4805   -0.8924   32.3829 C   0  0  0  0  0  0  0  0  0  0  0  0
   -5.3915   -0.2472   31.8092 C   0  0  0  0  0  0  0  0  0  0  0  0
   -2.1348   -0.7835   30.5110 O   0  0  0  0  0  0  0  0  0  0  0  0
   -7.6719   -2.9676   33.6004 Cl  0  0  0  0  0  0  0  0  0  0  0  0
  -11.2592    3.8348   24.8605 C   0  0  0  0  0  0  0  0  0  0  0  0
  -11.3338    2.6342   24.3983 F   0  0  0  0  0  0  0  0  0  0  0  0
  -12.3589    4.1143   25.6038 F   0  0  0  0  0  0  0  0  0  0  0  0
  -11.1883    4.6895   23.8168 F   0  0  0  0  0  0  0  0  0  0  0  0
  4  7  1  0
  7  8  1  0
  7  9  1  0
  2 10  1  0
 12 16  1  0
 16 17  1  1
 16 18  1  0
 18 19  1  0
 19 20  1  0
 19 26  2  0
 23 27  1  0
  6 28  1  0
 28 29  1  0
 28 30  1  0
 28 31  1  0
  1  2  2  0
  2  3  1  0
  3  6  2  0
  6  5  1  0
  5  4  2  0
  4  1  1  0
 10 11  2  0
 11 12  1  0
 12 13  2  0
 13 15  1  0
 15 14  2  0
 14 10  1  0
 20 21  2  0
 21 22  1  0
 22 23  2  0
 23 24  1  0
 24 25  2  0
 25 20  1  0
M  END
$$$$
