No_827-complexes_sdf/6BKW-FPZ/2024-09-17-14-21-01/
     RDKit          3D

 19 21  0  0  0  0  0  0  0  0999 V2000
   -7.2496    3.8871   27.4508 C   0  0  0  0  0  0  0  0  0  0  0  0
   -7.6161    2.7143   27.1523 C   0  0  0  0  0  0  0  0  0  0  0  0
   -6.9719    1.5838   27.5324 C   0  0  0  0  0  0  0  0  0  0  0  0
   -5.6316    1.7305   27.9933 C   0  0  0  0  0  0  0  0  0  0  0  0
   -4.9339    0.6009   28.3654 N   0  0  0  0  0  0  0  0  0  0  0  0
   -8.0227    5.0822   27.1346 C   0  0  0  0  0  0  0  0  0  0  0  0
   -9.1657    4.9883   26.3702 C   0  0  0  0  0  0  0  0  0  0  0  0
   -8.9821    2.5210   26.6553 C   0  0  0  0  0  0  0  0  0  0  0  0
   -9.6894    3.6611   26.2096 C   0  0  0  0  0  0  0  0  0  0  0  0
   -5.4566   -0.5570   28.5601 C   0  0  0  0  0  0  0  0  0  0  0  0
   -6.7792   -0.7435   28.1196 C   0  0  0  0  0  0  0  0  0  0  0  0
   -7.5160    0.3081   27.6371 C   0  0  0  0  0  0  0  0  0  0  0  0
  -10.9271    3.4971   25.4642 C   0  0  0  0  0  0  0  0  0  0  0  0
  -10.8941    3.6889   24.0961 C   0  0  0  0  0  0  0  0  0  0  0  0
   -9.9711    4.1499   23.4166 C   0  0  0  0  0  0  0  0  0  0  0  0
  -12.2180    3.3767   23.4408 C   0  0  0  0  0  0  0  0  0  0  0  0
  -10.1019    4.4385   22.0214 C   0  0  0  0  0  0  0  0  0  0  0  0
  -12.3852    3.6335   22.0829 C   0  0  0  0  0  0  0  0  0  0  0  0
  -11.2645    4.1713   21.3646 C   0  0  0  0  0  0  0  0  0  0  0  0
  2  3  1  0
  9 13  1  0
 13 14  1  0
  3  4  2  0
  4  5  1  0
  5 10  2  0
 10 11  1  0
 11 12  2  0
 12  3  1  0
 14 15  2  0
 15 17  1  0
 17 19  2  0
 19 18  1  0
 18 16  2  0
 16 14  1  0
  1  2  2  0
  2  8  1  0
  8  9  2  0
  9  7  1  0
  7  6  2  0
  6  1  1  0
M  END
$$$$
