No_8916-complexes_sdf/6BKW-FPZ/2024-09-17-14-21-01/
     RDKit          3D

 32 36  0  0  0  0  0  0  0  0999 V2000
   -7.2496    3.8871   27.4508 C   0  0  0  0  0  0  0  0  0  0  0  0
   -7.9379    4.9063   27.8518 C   0  0  0  0  0  0  0  0  0  0  0  0
   -9.3460    4.8223   27.8695 C   0  0  0  0  0  0  0  0  0  0  0  0
   -7.8628    2.6163   27.1065 C   0  0  0  0  0  0  0  0  0  0  0  0
   -9.2787    2.5744   27.1970 C   0  0  0  0  0  0  0  0  0  0  0  0
  -10.0108    3.6770   27.6340 C   0  0  0  0  0  0  0  0  0  0  0  0
  -11.4486    3.3729   27.7139 C   0  0  0  0  0  0  0  0  0  0  0  0
  -12.3457    4.0577   27.9549 C   0  0  0  0  0  0  0  0  0  0  0  0
  -13.7388    3.8000   28.1272 C   0  0  0  0  0  0  0  0  0  0  0  0
  -14.0890    2.5168   27.8621 C   0  0  0  0  0  0  0  0  0  0  0  0
  -12.0979    2.0060   27.6137 C   0  0  0  0  0  0  0  0  0  0  0  0
  -13.2497    1.6197   27.7038 C   0  0  0  0  0  0  0  0  0  0  0  0
   -7.2492    1.3907   26.8135 C   0  0  0  0  0  0  0  0  0  0  0  0
   -7.7843    0.4674   25.9465 C   0  0  0  0  0  0  0  0  0  0  0  0
   -7.1942   -0.7477   25.7676 C   0  0  0  0  0  0  0  0  0  0  0  0
   -5.9500   -1.0267   26.3972 C   0  0  0  0  0  0  0  0  0  0  0  0
   -5.3671   -0.1125   27.2534 C   0  0  0  0  0  0  0  0  0  0  0  0
   -6.0009    1.0809   27.5244 C   0  0  0  0  0  0  0  0  0  0  0  0
   -7.1824    6.4181   28.1921 Cl  0  0  0  0  0  0  0  0  0  0  0  0
   -4.0987   -0.4176   27.9703 C   0  0  2  0  0  0  0  0  0  0  0  0
   -4.0831   -0.4668   29.3277 C   0  0  0  0  0  0  0  0  0  0  0  0
   -4.0684   -1.5192   30.0807 C   0  0  0  0  0  0  0  0  0  0  0  0
   -4.1226   -1.4104   31.5680 C   0  0  0  0  0  0  0  0  0  0  0  0
   -4.0819   -0.1674   32.1296 C   0  0  0  0  0  0  0  0  0  0  0  0
   -3.9582    0.9186   31.3035 C   0  0  0  0  0  0  0  0  0  0  0  0
   -3.9719    0.8641   30.0025 C   0  0  0  0  0  0  0  0  0  0  0  0
   -2.9592    0.3978   27.3721 C   0  0  0  0  0  0  0  0  0  0  0  0
   -3.6921   -1.9099   27.4708 C   0  0  1  0  0  0  0  0  0  0  0  0
   -2.4914   -2.2895   27.7291 C   0  0  0  0  0  0  0  0  0  0  0  0
   -4.8227   -2.8110   27.7855 C   0  0  0  0  0  0  0  0  0  0  0  0
   -4.5216   -4.1147   28.1153 C   0  0  0  0  0  0  0  0  0  0  0  0
   -6.1573   -2.4577   27.2830 C   0  0  0  0  0  0  0  0  0  0  0  0
  6  7  1  0
  4 13  1  0
  2 19  1  0
 17 20  1  0
 20 21  1  0
 20 27  1  6
 20 28  1  0
 28 29  1  1
 28 30  1  0
 30 31  2  0
 16 32  1  0
 30 32  1  0
  1  2  2  0
  2  3  1  0
  3  6  2  0
  6  5  1  0
  5  4  2  0
  4  1  1  0
  7  8  2  0
  8  9  1  0
  9 10  2  0
 10 12  1  0
 12 11  2  0
 11  7  1  0
 13 14  2  0
 14 15  1  0
 15 16  2  0
 16 17  1  0
 17 18  2  0
 18 13  1  0
 21 22  2  0
 22 23  1  0
 23 24  2  0
 24 25  1  0
 25 26  2  0
 26 21  1  0
M  END
$$$$
