No_8033-complexes_sdf/6BKW-FPZ/2024-09-17-14-21-01/
     RDKit          3D

 19 21  0  0  0  0  0  0  0  0999 V2000
   -7.9040    3.9820   27.1177 C   0  0  0  0  0  0  0  0  0  0  0  0
   -9.0711    4.3164   27.0630 C   0  0  0  0  0  0  0  0  0  0  0  0
   -9.5294    5.4517   27.7215 C   0  0  0  0  0  0  0  0  0  0  0  0
   -7.4336    2.7132   26.5681 C   0  0  0  0  0  0  0  0  0  0  0  0
   -8.3353    1.8569   26.0442 C   0  0  0  0  0  0  0  0  0  0  0  0
   -9.6477    2.2853   25.9146 C   0  0  0  0  0  0  0  0  0  0  0  0
  -10.0346    3.4497   26.4483 C   0  0  2  0  0  0  0  0  0  0  0  0
   -7.8750    0.5509   25.5918 C   0  0  0  0  0  0  0  0  0  0  0  0
   -6.9702    0.0164   26.1017 O   0  0  0  0  0  0  0  0  0  0  0  0
   -8.4198    0.1206   24.4520 O   0  0  0  0  0  0  0  0  0  0  0  0
   -6.8200    4.5525   27.7959 N   0  0  0  0  0  0  0  0  0  0  0  0
   -7.0485    5.6442   28.5482 C   0  0  0  0  0  0  0  0  0  0  0  0
   -8.4279    6.1771   28.3853 N   0  0  0  0  0  0  0  0  0  0  0  0
  -11.4228    3.8972   26.1962 C   0  0  0  0  0  0  0  0  0  0  0  0
  -12.2802    3.7617   27.3058 C   0  0  0  0  0  0  0  0  0  0  0  0
  -13.5600    4.2145   27.3218 C   0  0  0  0  0  0  0  0  0  0  0  0
  -14.0710    4.6052   26.0226 C   0  0  0  0  0  0  0  0  0  0  0  0
  -13.2214    4.6503   24.9082 C   0  0  0  0  0  0  0  0  0  0  0  0
  -11.8597    4.3138   25.0188 C   0  0  0  0  0  0  0  0  0  0  0  0
  1  4  1  0
  4  5  1  0
  5  6  1  0
  2  7  1  0
  6  7  1  0
  5  8  1  0
  8  9  2  0
  8 10  1  0
  7 14  1  6
 14 15  2  0
 15 16  1  0
 16 17  2  0
 17 18  1  0
 18 19  2  0
 19 14  1  0
  1  2  1  0
  2  3  2  0
  3 13  1  0
 13 12  2  0
 12 11  1  0
 11  1  2  0
M  END
$$$$
