No_8250-complexes_sdf/6BKW-FPZ/2024-09-17-14-21-01/
     RDKit          3D

 23 25  0  0  0  0  0  0  0  0999 V2000
   -7.2496    3.8871   27.4508 C   0  0  0  0  0  0  0  0  0  0  0  0
   -8.5096    4.0291   27.2770 C   0  0  0  0  0  0  0  0  0  0  0  0
   -9.3451    2.8786   26.9046 C   0  0  0  0  0  0  0  0  0  0  0  0
   -6.7783    2.5578   27.6995 C   0  0  0  0  0  0  0  0  0  0  0  0
   -7.4875    1.4567   27.3411 C   0  0  0  0  0  0  0  0  0  0  0  0
   -8.8257    1.6633   27.0321 C   0  0  0  0  0  0  0  0  0  0  0  0
   -8.9109    5.4959   27.1478 C   0  0  0  0  0  0  0  0  0  0  0  0
   -8.4696    6.3466   28.0497 C   0  0  0  0  0  0  0  0  0  0  0  0
   -6.9403    0.1176   27.4401 C   0  0  0  0  0  0  0  0  0  0  0  0
   -6.5045   -0.3947   26.6212 C   0  0  0  0  0  0  0  0  0  0  0  0
   -5.8490   -1.7096   26.6921 C   0  0  0  0  0  0  0  0  0  0  0  0
   -5.7326   -2.3106   27.9243 C   0  0  0  0  0  0  0  0  0  0  0  0
   -6.2510   -1.6257   29.0126 C   0  0  0  0  0  0  0  0  0  0  0  0
   -6.8322   -0.3594   28.8435 C   0  0  0  0  0  0  0  0  0  0  0  0
   -8.6126    7.7687   27.6018 C   0  0  0  0  0  0  0  0  0  0  0  0
   -9.7945    0.6068   26.7883 C   0  0  1  0  0  0  0  0  0  0  0  0
   -9.9127   -0.0136   25.6677 C   0  0  0  0  0  0  0  0  0  0  0  0
  -10.5492    0.1234   27.9643 C   0  0  0  0  0  0  0  0  0  0  0  0
   -9.6861    0.6038   24.4722 C   0  0  0  0  0  0  0  0  0  0  0  0
   -9.6838    0.0023   23.2057 C   0  0  0  0  0  0  0  0  0  0  0  0
   -9.8902   -1.3094   23.1291 C   0  0  0  0  0  0  0  0  0  0  0  0
  -10.3940   -1.3738   25.5081 C   0  0  0  0  0  0  0  0  0  0  0  0
  -10.2865   -2.0241   24.2558 C   0  0  0  0  0  0  0  0  0  0  0  0
  2  7  1  0
  7  8  2  3
  5  9  1  0
  8 15  1  0
  6 16  1  0
 16 17  1  0
 16 18  1  1
 17 19  2  0
 19 20  1  0
 20 21  2  0
 21 23  1  0
 23 22  2  0
 22 17  1  0
  1  2  2  0
  2  3  1  0
  3  6  2  0
  6  5  1  0
  5  4  2  0
  4  1  1  0
  9 10  2  0
 10 11  1  0
 11 12  2  0
 12 13  1  0
 13 14  2  0
 14  9  1  0
M  END
$$$$
