No_8351-complexes_sdf/6BKW-FPZ/2024-09-17-14-21-01/
     RDKit          3D

 37 42  0  0  0  0  0  0  0  0999 V2000
   -7.2496    3.8871   27.4508 C   0  0  0  0  0  0  0  0  0  0  0  0
   -8.5096    4.0291   27.2770 C   0  0  0  0  0  0  0  0  0  0  0  0
   -9.3451    2.8786   26.9046 C   0  0  0  0  0  0  0  0  0  0  0  0
   -6.6065    2.5680   27.5073 C   0  0  0  0  0  0  0  0  0  0  0  0
   -7.4233    1.4858   27.2402 C   0  0  0  0  0  0  0  0  0  0  0  0
   -8.7362    1.6525   26.9989 C   0  0  0  0  0  0  0  0  0  0  0  0
   -9.0996    5.3741   27.2135 C   0  0  0  0  0  0  0  0  0  0  0  0
  -10.3490    5.6282   27.4643 N   0  0  0  0  0  0  0  0  0  0  0  0
   -8.3214    6.3882   26.9972 O   0  0  0  0  0  0  0  0  0  0  0  0
   -6.7894    0.1774   27.2521 C   0  0  0  0  0  0  0  0  0  0  0  0
   -7.4089   -0.9122   27.2704 C   0  0  0  0  0  0  0  0  0  0  0  0
   -8.8832   -0.8008   27.3924 C   0  0  0  0  0  0  0  0  0  0  0  0
   -9.5513    0.4517   27.1472 C   0  0  1  0  0  0  0  0  0  0  0  0
  -10.9996    0.5280   27.2085 C   0  0  0  0  0  0  0  0  0  0  0  0
  -11.6687   -0.1898   27.9723 C   0  0  0  0  0  0  0  0  0  0  0  0
  -13.0949   -0.1780   28.0442 C   0  0  0  0  0  0  0  0  0  0  0  0
  -13.7168    0.7972   27.2965 C   0  0  0  0  0  0  0  0  0  0  0  0
  -13.0425    1.5687   26.6496 C   0  0  0  0  0  0  0  0  0  0  0  0
  -11.6734    1.5674   26.5099 C   0  0  0  0  0  0  0  0  0  0  0  0
   -6.8886   -2.2184   27.4309 C   0  0  0  0  0  0  0  0  0  0  0  0
   -5.7321   -2.3766   27.5748 C   0  0  0  0  0  0  0  0  0  0  0  0
   -4.8043   -1.1949   27.4285 C   0  0  0  0  0  0  0  0  0  0  0  0
   -5.3016    0.0787   27.2884 C   0  0  0  0  0  0  0  0  0  0  0  0
   -3.2949   -1.3042   27.4940 C   0  0  0  0  0  0  0  0  0  0  0  0
   -2.6292   -0.7102   28.4552 C   0  0  0  0  0  0  0  0  0  0  0  0
   -3.1706    0.4055   29.0274 C   0  0  0  0  0  0  0  0  0  0  0  0
   -3.1885    0.6429   30.3952 C   0  0  0  0  0  0  0  0  0  0  0  0
   -2.5384   -0.4087   31.2362 C   0  0  0  0  0  0  0  0  0  0  0  0
   -1.8924   -1.4798   30.6369 C   0  0  0  0  0  0  0  0  0  0  0  0
   -1.9158   -1.7039   29.2788 C   0  0  0  0  0  0  0  0  0  0  0  0
   -2.4340   -0.0784   32.5082 F   0  0  0  0  0  0  0  0  0  0  0  0
   -5.0118   -3.6651   27.7022 C   0  0  0  0  0  0  0  0  0  0  0  0
   -5.5342   -4.4002   28.6441 C   0  0  0  0  0  0  0  0  0  0  0  0
   -5.0131   -5.6919   28.8013 C   0  0  0  0  0  0  0  0  0  0  0  0
   -4.0266   -4.1173   26.9327 C   0  0  0  0  0  0  0  0  0  0  0  0
   -3.4456   -5.3558   27.0594 C   0  0  0  0  0  0  0  0  0  0  0  0
   -3.9838   -6.1565   28.0481 C   0  0  0  0  0  0  0  0  0  0  0  0
  2  7  1  0
  7  8  1  0
  7  9  2  0
  5 10  1  0
 11 12  1  0
  6 13  1  0
 12 13  1  0
 13 14  1  1
 22 24  1  0
 24 25  1  0
 28 31  1  0
 21 32  1  0
 25 26  2  0
 26 27  1  0
 27 28  2  0
 28 29  1  0
 29 30  2  0
 30 25  1  0
  1  2  2  0
  2  3  1  0
  3  6  2  0
  6  5  1  0
  5  4  2  0
  4  1  1  0
 10 11  2  0
 11 20  1  0
 20 21  2  0
 21 22  1  0
 22 23  2  0
 23 10  1  0
 14 15  2  0
 15 16  1  0
 16 17  2  0
 17 18  1  0
 18 19  2  0
 19 14  1  0
 32 33  2  0
 33 34  1  0
 34 37  2  0
 37 36  1  0
 36 35  2  0
 35 32  1  0
M  END
$$$$
