No_8008-complexes_sdf/6BKW-FPZ/2024-09-17-14-21-01/
     RDKit          3D

 24 26  0  0  0  0  0  0  0  0999 V2000
   -7.7129    4.2099   27.0854 C   0  0  0  0  0  0  0  0  0  0  0  0
   -8.2112    3.0637   26.9225 C   0  0  0  0  0  0  0  0  0  0  0  0
   -8.5108    5.3904   26.9436 C   0  0  0  0  0  0  0  0  0  0  0  0
   -9.7256    5.1955   26.3518 C   0  0  0  0  0  0  0  0  0  0  0  0
   -9.4995    2.8258   26.4878 C   0  0  0  0  0  0  0  0  0  0  0  0
  -10.2542    3.9691   26.2055 C   0  0  0  0  0  0  0  0  0  0  0  0
   -8.1384    6.6884   27.2087 N   0  0  0  0  0  0  0  0  0  0  0  0
   -7.3500    1.8403   27.2478 C   0  0  0  0  0  0  0  0  0  0  0  0
   -7.7598    0.5418   27.0763 C   0  0  0  0  0  0  0  0  0  0  0  0
   -6.8500   -0.4434   27.2887 C   0  0  0  0  0  0  0  0  0  0  0  0
   -5.5688   -0.1588   27.8161 C   0  0  0  0  0  0  0  0  0  0  0  0
   -5.1947    1.1614   28.0419 C   0  0  0  0  0  0  0  0  0  0  0  0
   -5.9884    2.1407   27.7425 C   0  0  0  0  0  0  0  0  0  0  0  0
   -8.3410    7.7705   26.4674 C   0  0  0  0  0  0  0  0  0  0  0  0
   -4.6323   -1.2774   28.1558 C   0  0  0  0  0  0  0  0  0  0  0  0
   -4.8277   -2.0400   29.1080 C   0  0  0  0  0  0  0  0  0  0  0  0
   -5.6467   -1.8180   30.1078 C   0  0  0  0  0  0  0  0  0  0  0  0
   -5.7771   -2.6604   31.3421 C   0  0  0  0  0  0  0  0  0  0  0  0
   -6.3004   -2.0802   32.4428 C   0  0  0  0  0  0  0  0  0  0  0  0
   -5.8796   -1.0054   33.0316 C   0  0  0  0  0  0  0  0  0  0  0  0
   -5.1945   -0.0597   32.1288 C   0  0  0  0  0  0  0  0  0  0  0  0
   -4.9279   -0.5326   30.7849 C   0  0  0  0  0  0  0  0  0  0  0  0
   -3.5339   -1.2643   27.1874 C   0  0  0  0  0  0  0  0  0  0  0  0
   -3.2956   -2.1863   26.3615 C   0  0  0  0  0  0  0  0  0  0  0  0
  3  7  1  0
  2  8  1  0
  7 14  1  0
 11 15  1  0
 15 16  1  0
 16 17  2  3
 17 18  1  0
 18 19  1  0
 19 20  1  0
 20 21  1  0
 17 22  1  0
 21 22  1  0
 15 23  1  0
 23 24  1  0
  8  9  2  0
  9 10  1  0
 10 11  2  0
 11 12  1  0
 12 13  2  0
 13  8  1  0
  1  2  2  0
  2  5  1  0
  5  6  2  0
  6  4  1  0
  4  3  2  0
  3  1  1  0
M  END
$$$$
