No_8798-complexes_sdf/6BKW-FPZ/2024-09-17-14-21-01/
     RDKit          3D

 40 44  0  0  0  0  0  0  0  0999 V2000
   -7.9040    3.9820   27.1177 C   0  0  0  0  0  0  0  0  0  0  0  0
   -7.8663    4.8694   27.9238 C   0  0  0  0  0  0  0  0  0  0  0  0
   -9.0806    3.1428   27.1220 C   0  0  0  0  0  0  0  0  0  0  0  0
  -10.0970    3.3939   27.9555 C   0  0  0  0  0  0  0  0  0  0  0  0
   -8.9263    5.4490   28.6197 C   0  0  0  0  0  0  0  0  0  0  0  0
  -10.0741    4.6151   28.7290 C   0  0  0  0  0  0  0  0  0  0  0  0
   -9.0498    1.8603   26.3527 C   0  0  2  0  0  0  0  0  0  0  0  0
   -9.7668    1.8868   25.2009 C   0  0  0  0  0  0  0  0  0  0  0  0
   -9.7152    0.7298   24.3446 C   0  0  0  0  0  0  0  0  0  0  0  0
  -10.4046    0.7951   23.0639 C   0  0  0  0  0  0  0  0  0  0  0  0
  -11.0391    1.9989   22.6838 C   0  0  0  0  0  0  0  0  0  0  0  0
  -10.9902    3.1044   23.4838 C   0  0  0  0  0  0  0  0  0  0  0  0
  -10.2704    3.0703   24.7194 C   0  0  0  0  0  0  0  0  0  0  0  0
   -8.3595    0.7406   26.8876 C   0  0  0  0  0  0  0  0  0  0  0  0
   -8.4727   -0.0879   27.5149 C   0  0  0  0  0  0  0  0  0  0  0  0
   -7.5630   -1.1415   27.9655 C   0  0  0  0  0  0  0  0  0  0  0  0
   -6.2727   -1.0061   27.4680 C   0  0  0  0  0  0  0  0  0  0  0  0
   -5.9383    0.0143   26.6332 C   0  0  0  0  0  0  0  0  0  0  0  0
   -6.8548    0.9695   26.2906 C   0  0  0  0  0  0  0  0  0  0  0  0
  -11.1735    2.6892   28.0340 F   0  0  0  0  0  0  0  0  0  0  0  0
   -5.2380   -2.0024   27.9556 C   0  0  0  0  0  0  0  0  0  0  0  0
   -4.0805   -1.7548   27.7545 N   0  0  0  0  0  0  0  0  0  0  0  0
   -3.3789   -0.7359   28.2529 C   0  0  2  0  0  0  0  0  0  0  0  0
   -2.2557   -0.1970   27.6322 C   0  0  0  0  0  0  0  0  0  0  0  0
   -3.0136   -0.8796   29.7341 C   0  0  0  0  0  0  0  0  0  0  0  0
   -3.7363    0.2345   30.4679 C   0  0  0  0  0  0  0  0  0  0  0  0
   -3.4792    0.2033   31.9267 C   0  0  0  0  0  0  0  0  0  0  0  0
   -2.6011   -0.7990   32.5158 C   0  0  0  0  0  0  0  0  0  0  0  0
   -2.0290   -1.7592   31.6737 C   0  0  0  0  0  0  0  0  0  0  0  0
   -2.2218   -1.7313   30.3178 C   0  0  0  0  0  0  0  0  0  0  0  0
   -3.4211   -2.5356   26.7692 C   0  0  0  0  0  0  0  0  0  0  0  0
   -2.5296   -1.7774   25.7969 C   0  0  0  0  0  0  0  0  0  0  0  0
   -2.0722   -0.5586   26.4412 C   0  0  0  0  0  0  0  0  0  0  0  0
   -5.5201   -2.7208   28.9958 O   0  0  0  0  0  0  0  0  0  0  0  0
   -2.3616   -0.7543   33.9533 C   0  0  0  0  0  0  0  0  0  0  0  0
   -1.3502   -0.2592   34.3689 O   0  0  0  0  0  0  0  0  0  0  0  0
   -3.3595   -1.0842   34.7534 N   0  0  0  0  0  0  0  0  0  0  0  0
   -3.1960   -0.9568   36.2390 C   0  0  0  0  0  0  0  0  0  0  0  0
   -4.4690   -0.9127   36.8918 C   0  0  0  0  0  0  0  0  0  0  0  0
   -4.6411   -0.1914   38.0786 C   0  0  0  0  0  0  0  0  0  0  0  0
  7  3  1  1
  7 14  1  0
  4 20  1  0
 17 21  1  0
 21 22  1  0
 22 23  1  0
 23 25  1  1
 22 31  1  0
 31 32  1  0
 24 33  1  0
 32 33  1  0
 21 34  2  0
 28 35  1  0
 35 36  2  0
 35 37  1  0
 37 38  1  0
 38 39  2  3
 39 40  1  0
  7  8  1  0
 23 24  1  0
  1  2  2  0
  2  5  1  0
  5  6  2  0
  6  4  1  0
  4  3  2  0
  3  1  1  0
 25 26  2  0
 26 27  1  0
 27 28  2  0
 28 29  1  0
 29 30  2  0
 30 25  1  0
 14 15  2  0
 15 16  1  0
 16 17  2  0
 17 18  1  0
 18 19  2  0
 19 14  1  0
  8  9  2  0
  9 10  1  0
 10 11  2  0
 11 12  1  0
 12 13  2  0
 13  8  1  0
M  END
$$$$
