No_8937-complexes_sdf/6BKW-FPZ/2024-09-17-14-21-01/
     RDKit          3D

 21 22  0  0  0  0  0  0  0  0999 V2000
   -7.7129    4.2099   27.0854 C   0  0  0  0  0  0  0  0  0  0  0  0
   -8.9133    4.4736   27.0998 C   0  0  0  0  0  0  0  0  0  0  0  0
   -9.4643    5.5426   27.7628 C   0  0  0  0  0  0  0  0  0  0  0  0
   -7.2009    2.9448   26.6134 C   0  0  0  0  0  0  0  0  0  0  0  0
   -8.1365    1.9533   26.2981 C   0  0  0  0  0  0  0  0  0  0  0  0
   -9.4501    2.2651   26.2497 C   0  0  0  0  0  0  0  0  0  0  0  0
   -9.8615    3.4703   26.6763 C   0  0  0  0  0  0  0  0  0  0  0  0
   -7.5839    0.6450   25.9087 C   0  0  0  0  0  0  0  0  0  0  0  0
   -7.7259    0.2664   24.7999 O   0  0  0  0  0  0  0  0  0  0  0  0
   -6.9902   -0.0633   26.8497 O   0  0  0  0  0  0  0  0  0  0  0  0
   -6.3497   -1.1635   26.7545 C   0  0  0  0  0  0  0  0  0  0  0  0
   -5.6882   -1.6616   27.8558 C   0  0  0  0  0  0  0  0  0  0  0  0
   -4.7753   -1.5464   28.3079 C   0  0  0  0  0  0  0  0  0  0  0  0
   -4.2493   -1.9197   29.7134 C   0  0  0  0  0  0  0  0  0  0  0  0
   -5.1651   -2.5835   30.4967 C   0  0  0  0  0  0  0  0  0  0  0  0
   -6.7646   -2.2850   28.8794 C   0  0  0  0  0  0  0  0  0  0  0  0
   -6.4270   -2.7105   30.0947 C   0  0  0  0  0  0  0  0  0  0  0  0
   -3.6058   -0.8299   27.5788 C   0  0  0  0  0  0  0  0  0  0  0  0
   -3.5495    0.5998   27.8342 C   0  0  0  0  0  0  0  0  0  0  0  0
   -2.8988    1.3977   27.0385 O   0  0  0  0  0  0  0  0  0  0  0  0
   -4.1600    1.0978   28.8754 O   0  0  0  0  0  0  0  0  0  0  0  0
  1  2  1  0
  2  3  2  0
  1  4  1  0
  4  5  1  0
  5  6  1  0
  2  7  1  0
  6  7  1  0
  5  8  1  0
  8  9  2  0
  8 10  1  0
 10 11  1  0
 11 12  1  0
 13 18  1  0
 18 19  1  0
 19 20  2  0
 19 21  1  0
 12 13  2  0
 13 14  1  0
 14 15  2  0
 15 17  1  0
 17 16  2  0
 16 12  1  0
M  END
$$$$
