No_8809-complexes_sdf/6BKW-FPZ/2024-09-17-14-21-01/
     RDKit          3D

 25 28  0  0  0  0  0  0  0  0999 V2000
   -7.9040    3.9820   27.1177 C   0  0  0  0  0  0  0  0  0  0  0  0
   -7.8663    4.8694   27.9238 C   0  0  0  0  0  0  0  0  0  0  0  0
   -9.0953    3.1697   27.0532 C   0  0  0  0  0  0  0  0  0  0  0  0
  -10.1313    3.4052   27.8871 C   0  0  0  0  0  0  0  0  0  0  0  0
  -10.1178    4.5885   28.6885 C   0  0  0  0  0  0  0  0  0  0  0  0
   -8.9412    5.2994   28.7548 C   0  0  0  0  0  0  0  0  0  0  0  0
   -9.0691    1.9565   26.1695 C   0  0  0  0  0  0  0  0  0  0  0  0
   -9.4570    2.1430   24.8640 C   0  0  0  0  0  0  0  0  0  0  0  0
  -10.4377    1.9125   24.4010 C   0  0  0  0  0  0  0  0  0  0  0  0
  -10.8159    2.2016   22.9480 C   0  0  0  0  0  0  0  0  0  0  0  0
  -10.0231    3.0499   22.3242 C   0  0  0  0  0  0  0  0  0  0  0  0
   -9.0382    3.7262   22.9576 C   0  0  0  0  0  0  0  0  0  0  0  0
   -8.6619    3.3580   24.2569 C   0  0  0  0  0  0  0  0  0  0  0  0
  -11.3293    2.5638   27.8918 C   0  0  0  0  0  0  0  0  0  0  0  0
  -12.5136    2.8852   27.4025 C   0  0  0  0  0  0  0  0  0  0  0  0
  -13.6282    2.1018   27.3859 C   0  0  0  0  0  0  0  0  0  0  0  0
  -11.5611    1.7118   29.0433 C   0  0  0  0  0  0  0  0  0  0  0  0
  -12.5657    0.7973   29.1401 C   0  0  0  0  0  0  0  0  0  0  0  0
  -13.6808    1.0755   28.3406 C   0  0  0  0  0  0  0  0  0  0  0  0
   -8.6471    0.6858   26.6172 C   0  0  0  0  0  0  0  0  0  0  0  0
   -7.4542    0.4838   27.2410 C   0  0  0  0  0  0  0  0  0  0  0  0
   -7.0236   -0.7602   27.6960 C   0  0  0  0  0  0  0  0  0  0  0  0
   -9.2447   -0.4785   26.0785 C   0  0  0  0  0  0  0  0  0  0  0  0
   -8.9043   -1.7456   26.5156 C   0  0  0  0  0  0  0  0  0  0  0  0
   -7.7794   -1.8669   27.3598 C   0  0  0  0  0  0  0  0  0  0  0  0
  3  7  1  0
  7  8  1  0
  4 14  1  0
  7 20  1  0
  1  2  2  0
  2  6  1  0
  6  5  2  0
  5  4  1  0
  4  3  2  0
  3  1  1  0
  8  9  2  0
  9 10  1  0
 10 11  2  0
 11 12  1  0
 12 13  2  0
 13  8  1  0
 14 15  2  0
 15 16  1  0
 16 19  2  0
 19 18  1  0
 18 17  2  0
 17 14  1  0
 20 21  2  0
 21 22  1  0
 22 25  2  0
 25 24  1  0
 24 23  2  0
 23 20  1  0
M  END
$$$$
