No_868-complexes_sdf/6BKW-FPZ/2024-09-17-14-21-01/
     RDKit          3D

 10 11  0  0  0  0  0  0  0  0999 V2000
   -7.2496    3.8871   27.4508 C   0  0  0  0  0  0  0  0  0  0  0  0
   -7.9379    4.9063   27.8518 C   0  0  0  0  0  0  0  0  0  0  0  0
   -9.3376    4.8647   27.7795 C   0  0  0  0  0  0  0  0  0  0  0  0
   -7.8544    2.6294   27.0414 C   0  0  0  0  0  0  0  0  0  0  0  0
   -7.1614    1.5016   26.7557 C   0  0  0  0  0  0  0  0  0  0  0  0
   -9.2736    2.6261   27.0257 C   0  0  0  0  0  0  0  0  0  0  0  0
   -9.9171    1.4176   26.6579 C   0  0  0  0  0  0  0  0  0  0  0  0
  -10.0017    3.7336   27.4384 C   0  0  0  0  0  0  0  0  0  0  0  0
   -9.2078    0.3051   26.3935 C   0  0  0  0  0  0  0  0  0  0  0  0
   -7.7883    0.3323   26.4554 C   0  0  0  0  0  0  0  0  0  0  0  0
  4  5  2  0
  5 10  1  0
 10  9  2  0
  9  7  1  0
  7  6  2  0
  1  2  2  0
  2  3  1  0
  3  8  2  0
  8  6  1  0
  6  4  1  0
  4  1  1  0
M  END
$$$$
