No_8371-complexes_sdf/6BKW-FPZ/2024-09-17-14-21-01/
     RDKit          3D

 34 37  0  0  0  0  0  0  0  0999 V2000
   -7.7129    4.2099   27.0854 C   0  0  0  0  0  0  0  0  0  0  0  0
   -8.2112    3.0637   26.9225 C   0  0  0  0  0  0  0  0  0  0  0  0
   -7.0021    4.5281   28.2396 C   0  0  0  0  0  0  0  0  0  0  0  0
   -9.4237    2.7810   26.2714 C   0  0  0  0  0  0  0  0  0  0  0  0
   -9.9782    1.4391   26.2525 C   0  0  0  0  0  0  0  0  0  0  0  0
  -11.2118    1.2242   25.6766 C   0  0  0  0  0  0  0  0  0  0  0  0
  -11.8702    2.3218   25.1283 C   0  0  0  0  0  0  0  0  0  0  0  0
  -11.3400    3.5742   25.0895 C   0  0  0  0  0  0  0  0  0  0  0  0
  -10.0352    3.7962   25.6803 C   0  0  0  0  0  0  0  0  0  0  0  0
   -7.2857    1.9485   27.2242 C   0  0  0  0  0  0  0  0  0  0  0  0
   -6.0499    2.2975   27.9048 C   0  0  0  0  0  0  0  0  0  0  0  0
   -5.8639    3.5987   28.3528 C   0  0  0  0  0  0  0  0  0  0  0  0
   -4.9662    1.0556   28.3468 Cl  0  0  0  0  0  0  0  0  0  0  0  0
  -13.0873    2.1261   24.5774 F   0  0  0  0  0  0  0  0  0  0  0  0
   -6.8422    5.8780   28.6884 C   0  0  0  0  0  0  0  0  0  0  0  0
  -11.8026    0.0787   25.6835 F   0  0  0  0  0  0  0  0  0  0  0  0
   -9.5173    5.0345   25.5679 O   0  0  0  0  0  0  0  0  0  0  0  0
  -10.2819    6.1469   26.0692 C   0  0  2  0  0  0  0  0  0  0  0  0
   -9.3624    6.7608   27.2356 C   0  0  0  0  0  0  0  0  0  0  0  0
   -7.9950    6.7702   27.2675 C   0  0  0  0  0  0  0  0  0  0  0  0
   -6.9521    6.5724   27.7204 C   0  0  0  0  0  0  0  0  0  0  0  0
   -7.6769    6.9285   25.8566 O   0  0  0  0  0  0  0  0  0  0  0  0
  -11.2217    5.4586   26.7219 F   0  0  0  0  0  0  0  0  0  0  0  0
   -7.5999    8.6162   25.6453 P   0  0  0  0  0  0  0  0  0  0  0  0
   -7.8564    9.0748   26.5230 O   0  0  0  0  0  0  0  0  0  0  0  0
   -6.2628    8.4752   25.1036 O   0  0  0  0  0  0  0  0  0  0  0  0
   -8.6041    8.6314   24.5102 O   0  0  0  0  0  0  0  0  0  0  0  0
   -7.4844    0.7279   26.8958 O   0  0  0  0  0  0  0  0  0  0  0  0
   -6.5407   -0.2310   26.6295 C   0  0  0  0  0  0  0  0  0  0  0  0
   -7.1136   -1.4540   26.3825 C   0  0  0  0  0  0  0  0  0  0  0  0
   -6.4357   -2.3565   25.8938 C   0  0  0  0  0  0  0  0  0  0  0  0
   -5.0995   -2.0903   25.6268 C   0  0  0  0  0  0  0  0  0  0  0  0
   -4.5316   -0.8679   25.7459 C   0  0  0  0  0  0  0  0  0  0  0  0
   -5.3021    0.1064   26.2011 C   0  0  0  0  0  0  0  0  0  0  0  0
  2  4  1  0
 11 13  1  0
  7 14  1  0
  3 15  1  0
  6 16  1  0
  9 17  1  0
 17 18  1  0
 18 19  1  0
 19 20  1  0
 15 21  2  0
 20 21  2  0
 20 22  1  0
 18 23  1  1
 22 24  1  0
 24 25  1  0
 24 26  2  0
 24 27  1  0
 10 28  1  0
 28 29  1  0
 29 30  2  0
 30 31  1  0
 31 32  2  0
 32 33  1  0
 33 34  2  0
 34 29  1  0
  1  2  2  0
  2 10  1  0
 10 11  2  0
 11 12  1  0
 12  3  2  0
  3  1  1  0
  4  5  2  0
  5  6  1  0
  6  7  2  0
  7  8  1  0
  8  9  2  0
  9  4  1  0
M  END
$$$$
