No_8974-complexes_sdf/6BKW-FPZ/2024-09-17-14-21-01/
     RDKit          3D

 20 22  0  0  0  0  0  0  0  0999 V2000
   -7.7129    4.2099   27.0854 C   0  0  0  0  0  0  0  0  0  0  0  0
   -7.7814    5.1722   27.8972 C   0  0  0  0  0  0  0  0  0  0  0  0
   -8.8776    3.8408   26.3416 C   0  0  0  0  0  0  0  0  0  0  0  0
   -8.9136    2.6330   25.5655 C   0  0  0  0  0  0  0  0  0  0  0  0
   -8.8361    6.1389   27.9032 C   0  0  0  0  0  0  0  0  0  0  0  0
  -10.0140    4.6007   26.4589 C   0  0  0  0  0  0  0  0  0  0  0  0
   -9.9695    5.8024   27.1801 C   0  0  0  0  0  0  0  0  0  0  0  0
   -8.2958    1.4920   26.1485 C   0  0  0  0  0  0  0  0  0  0  0  0
   -8.3016    0.2692   25.5053 C   0  0  0  0  0  0  0  0  0  0  0  0
   -8.9023    0.2639   24.2269 C   0  0  0  0  0  0  0  0  0  0  0  0
   -9.4575    2.4536   24.3505 C   0  0  0  0  0  0  0  0  0  0  0  0
   -9.4491    1.3393   23.6710 C   0  0  0  0  0  0  0  0  0  0  0  0
   -9.9812    1.0784   22.3475 C   0  0  0  0  0  0  0  0  0  0  0  0
  -11.2310    0.9186   22.2194 C   0  0  0  0  0  0  0  0  0  0  0  0
  -12.0502    0.9471   22.8288 C   0  0  0  0  0  0  0  0  0  0  0  0
  -13.5120    0.6754   22.4591 C   0  0  0  0  0  0  0  0  0  0  0  0
  -13.7109    0.3387   21.1540 C   0  0  0  0  0  0  0  0  0  0  0  0
  -11.5699    0.5309   20.6848 C   0  0  0  0  0  0  0  0  0  0  0  0
  -12.7630    0.2557   20.2841 C   0  0  0  0  0  0  0  0  0  0  0  0
   -8.9662    0.8560   21.5380 O   0  0  0  0  0  0  0  0  0  0  0  0
  3  4  1  0
 12 13  1  0
 13 14  1  0
 13 20  2  0
  4  8  2  0
  8  9  1  0
  9 10  2  0
 10 12  1  0
 12 11  2  0
 11  4  1  0
 14 15  2  0
 15 16  1  0
 16 17  2  0
 17 19  1  0
 19 18  2  0
 18 14  1  0
  1  2  2  0
  2  5  1  0
  5  7  2  0
  7  6  1  0
  6  3  2  0
  3  1  1  0
M  END
$$$$
