No_8756-complexes_sdf/6BKW-FPZ/2024-09-17-14-21-01/
     RDKit          3D

 40 44  0  0  0  0  0  0  0  0999 V2000
   -7.9040    3.9820   27.1177 C   0  0  0  0  0  0  0  0  0  0  0  0
   -9.0711    4.3164   27.0630 C   0  0  0  0  0  0  0  0  0  0  0  0
   -9.9692    3.7224   26.1073 C   0  0  0  0  0  0  0  0  0  0  0  0
   -6.9787    4.6761   28.1003 C   0  0  0  0  0  0  0  0  0  0  0  0
  -11.1978    4.2793   25.7845 C   0  0  0  0  0  0  0  0  0  0  0  0
  -11.9722    3.7671   24.7671 C   0  0  0  0  0  0  0  0  0  0  0  0
  -11.4321    2.7931   23.9433 C   0  0  0  0  0  0  0  0  0  0  0  0
  -10.2070    2.2970   24.1835 C   0  0  0  0  0  0  0  0  0  0  0  0
   -9.3944    2.8078   25.1975 C   0  0  0  0  0  0  0  0  0  0  0  0
   -7.5140    5.6743   28.8888 C   0  0  0  0  0  0  0  0  0  0  0  0
   -9.4880    5.3919   27.8970 C   0  0  0  0  0  0  0  0  0  0  0  0
   -8.7156    6.0546   28.7129 N   0  0  0  0  0  0  0  0  0  0  0  0
   -9.8878    1.2190   23.2275 C   0  0  2  0  0  0  0  0  0  0  0  0
  -10.4534    0.4185   22.8285 Cl  0  0  0  0  0  0  0  0  0  0  0  0
   -8.4535    1.2367   23.0926 F   0  0  0  0  0  0  0  0  0  0  0  0
   -5.7122    4.2073   28.2296 O   0  0  0  0  0  0  0  0  0  0  0  0
  -13.5316    4.4072   24.5384 Cl  0  0  0  0  0  0  0  0  0  0  0  0
  -10.7953    5.8888   27.7802 N   0  0  0  0  0  0  0  0  0  0  0  0
  -11.6648    5.3263   26.8405 C   0  0  0  0  0  0  0  0  0  0  0  0
   -5.3756    3.1043   27.4786 C   0  0  0  0  0  0  0  0  0  0  0  0
   -4.2411    2.4241   28.2382 C   0  0  0  0  0  0  0  0  0  0  0  0
   -3.9359    1.0464   27.6578 C   0  0  1  0  0  0  0  0  0  0  0  0
   -4.9896    0.1300   27.9122 C   0  0  0  0  0  0  0  0  0  0  0  0
   -5.3913   -0.3340   28.8570 C   0  0  0  0  0  0  0  0  0  0  0  0
   -6.4289   -1.3426   29.0513 C   0  0  0  0  0  0  0  0  0  0  0  0
   -7.2426   -1.5831   27.9252 C   0  0  0  0  0  0  0  0  0  0  0  0
   -6.9289   -0.9261   26.7191 C   0  0  0  0  0  0  0  0  0  0  0  0
   -5.8568   -0.0755   26.6634 C   0  0  0  0  0  0  0  0  0  0  0  0
   -8.3523   -2.5323   27.9886 C   0  0  0  0  0  0  0  0  0  0  0  0
   -9.2279   -2.6017   27.2043 O   0  0  0  0  0  0  0  0  0  0  0  0
   -8.2982   -3.5500   28.9057 O   0  0  0  0  0  0  0  0  0  0  0  0
   -3.3482    1.0267   26.3458 N   0  0  0  0  0  0  0  0  0  0  0  0
   -9.2601   -3.7579   29.6578 C   0  0  0  0  0  0  0  0  0  0  0  0
  -10.4073   -3.4469   29.6115 C   0  0  0  0  0  0  0  0  0  0  0  0
  -11.1844   -3.1918   30.2333 C   0  0  0  0  0  0  0  0  0  0  0  0
  -11.0373   -3.6083   31.7111 C   0  0  0  0  0  0  0  0  0  0  0  0
   -9.7783   -4.0843   32.0072 C   0  0  0  0  0  0  0  0  0  0  0  0
   -8.8253   -4.0252   31.0984 C   0  0  0  0  0  0  0  0  0  0  0  0
  -12.3538   -3.5026   32.8505 Cl  0  0  0  0  0  0  0  0  0  0  0  0
   -9.4985   -4.4492   33.4716 C   0  0  0  0  0  0  0  0  0  0  0  0
  8 13  1  0
 13 14  1  0
 13 15  1  1
  4 16  1  0
  6 17  1  0
 16 20  1  0
 20 21  1  0
 21 22  1  0
 22 23  1  0
 26 29  1  0
 29 30  2  0
 29 31  1  0
 22 32  1  6
 31 33  1  0
 36 39  1  0
 37 40  1  0
 23 24  2  0
 24 25  1  0
 25 26  2  0
 26 27  1  0
 27 28  2  0
 28 23  1  0
  5  6  2  0
  6  7  1  0
  7  8  2  0
  8  9  1  0
  9  3  2  0
  2  3  1  0
  3  5  1  0
  5 19  1  0
 19 18  2  0
 18 11  1  0
  1  2  2  0
  2 11  1  0
 11 12  2  0
 12 10  1  0
 10  4  2  0
  4  1  1  0
 33 34  2  0
 34 35  1  0
 35 36  2  0
 36 37  1  0
 37 38  2  0
 38 33  1  0
M  END
$$$$
