No_8925-complexes_sdf/6BKW-FPZ/2024-09-17-14-21-01/
     RDKit          3D

 20 20  0  0  0  0  0  0  0  0999 V2000
   -7.2496    3.8871   27.4508 C   0  0  0  0  0  0  0  0  0  0  0  0
   -8.5096    4.0291   27.2770 C   0  0  0  0  0  0  0  0  0  0  0  0
   -9.3502    2.8685   26.8763 C   0  0  0  0  0  0  0  0  0  0  0  0
   -6.6288    2.5513   27.4938 C   0  0  0  0  0  0  0  0  0  0  0  0
   -7.4365    1.4714   27.2032 C   0  0  0  0  0  0  0  0  0  0  0  0
   -8.8457    1.8086   26.8840 C   0  0  0  0  0  0  0  0  0  0  0  0
   -9.0825    5.4030   27.2628 C   0  0  0  0  0  0  0  0  0  0  0  0
   -8.4385    6.3571   26.8756 O   0  0  0  0  0  0  0  0  0  0  0  0
  -10.3462    5.5349   27.6408 O   0  0  0  0  0  0  0  0  0  0  0  0
   -6.8501    0.1785   27.1448 C   0  0  0  0  0  0  0  0  0  0  0  0
   -7.4844   -0.8926   26.9911 C   0  0  0  0  0  0  0  0  0  0  0  0
   -6.8647   -2.1892   26.9957 C   0  0  0  0  0  0  0  0  0  0  0  0
   -5.4633    0.0905   26.8561 C   0  0  0  0  0  0  0  0  0  0  0  0
   -4.7471   -1.1115   26.7836 C   0  0  0  0  0  0  0  0  0  0  0  0
   -5.5042   -2.2468   26.8285 C   0  0  0  0  0  0  0  0  0  0  0  0
   -3.2909   -1.0740   26.6675 C   0  0  0  0  0  0  0  0  0  0  0  0
   -4.7300   -0.8105   25.6543 Cl  0  0  0  0  0  0  0  0  0  0  0  0
   -4.8682   -3.5726   26.6910 C   0  0  0  0  0  0  0  0  0  0  0  0
   -5.0658   -2.9744   27.5664 C   0  0  0  0  0  0  0  0  0  0  0  0
   -5.4754   -2.7167   25.9373 C   0  0  0  0  0  0  0  0  0  0  0  0
  2  7  1  0
  7  8  2  0
  7  9  1  0
  5 10  1  0
 10 11  2  3
 11 12  1  0
 10 13  1  0
 13 14  2  3
 12 15  2  3
 14 16  1  0
 14 17  1  0
 15 18  1  0
 18 19  1  0
 18 20  1  0
  1  2  2  0
  2  3  1  0
  3  6  2  0
  6  5  1  0
  5  4  2  0
  4  1  1  0
M  END
$$$$
