No_8176-complexes_sdf/6BKW-FPZ/2024-09-17-14-21-01/
     RDKit          3D

 12 12  0  0  0  0  0  0  0  0999 V2000
   -7.2496    3.8871   27.4508 C   0  0  0  0  0  0  0  0  0  0  0  0
   -8.5096    4.0291   27.2770 C   0  0  0  0  0  0  0  0  0  0  0  0
   -9.2669    5.1645   27.5845 C   0  0  0  0  0  0  0  0  0  0  0  0
  -10.6621    5.2321   27.4284 C   0  0  0  0  0  0  0  0  0  0  0  0
   -9.2831    2.8719   26.7564 C   0  0  0  0  0  0  0  0  0  0  0  0
   -8.5831    1.7059   26.4529 C   0  0  0  0  0  0  0  0  0  0  0  0
   -6.5333    2.6750   27.3698 C   0  0  0  0  0  0  0  0  0  0  0  0
   -7.2063    1.6347   26.8580 C   0  0  0  0  0  0  0  0  0  0  0  0
   -8.6004    6.4624   27.0457 C   0  0  0  0  0  0  0  0  0  0  0  0
   -6.5096    0.3405   26.6629 C   0  0  0  0  0  0  0  0  0  0  0  0
   -5.4486    0.1250   27.2423 O   0  0  0  0  0  0  0  0  0  0  0  0
   -7.0999   -0.6144   26.0127 O   0  0  0  0  0  0  0  0  0  0  0  0
  2  3  1  0
  3  4  1  0
  3  9  1  0
  8 10  1  0
 10 11  2  0
 10 12  1  0
  1  2  2  0
  2  5  1  0
  5  6  2  0
  6  8  1  0
  8  7  2  0
  7  1  1  0
M  END
$$$$
