No_8835-complexes_sdf/6BKW-FPZ/2024-09-17-14-21-01/
     RDKit          3D

 27 30  0  0  0  0  0  0  0  0999 V2000
   -7.9040    3.9820   27.1177 C   0  0  0  0  0  0  0  0  0  0  0  0
   -9.0711    4.3164   27.0630 C   0  0  0  0  0  0  0  0  0  0  0  0
   -9.9692    3.7224   26.1073 C   0  0  0  0  0  0  0  0  0  0  0  0
   -6.9787    4.6761   28.1003 C   0  0  0  0  0  0  0  0  0  0  0  0
   -9.4538    2.6801   25.3673 C   0  0  0  0  0  0  0  0  0  0  0  0
   -8.1927    2.1957   25.6621 C   0  0  0  0  0  0  0  0  0  0  0  0
   -7.4333    2.8255   26.6299 C   0  0  0  0  0  0  0  0  0  0  0  0
  -10.3181    2.0008   24.3846 C   0  0  2  0  0  0  0  0  0  0  0  0
   -9.7961    1.2803   23.5369 N   0  0  0  0  0  0  0  0  0  0  0  0
  -10.1774    1.0582   22.2767 C   0  0  0  0  0  0  0  0  0  0  0  0
   -9.4821    0.1672   21.4363 C   0  0  0  0  0  0  0  0  0  0  0  0
   -8.8813   -0.8174   22.0108 C   0  0  2  0  0  0  0  0  0  0  0  0
   -8.3640   -0.7876   23.3092 C   0  0  0  0  0  0  0  0  0  0  0  0
   -8.8658    0.2039   24.1120 C   0  0  1  0  0  0  0  0  0  0  0  0
  -11.8885    2.4356   24.2195 Cl  0  0  0  0  0  0  0  0  0  0  0  0
   -7.4753    5.8046   28.6634 N   0  0  0  0  0  0  0  0  0  0  0  0
   -5.8059    4.3249   28.2864 O   0  0  0  0  0  0  0  0  0  0  0  0
   -7.8739    0.9908   25.0304 N   0  0  0  0  0  0  0  0  0  0  0  0
   -8.2937   -1.9853   21.2932 C   0  0  0  0  0  0  0  0  0  0  0  0
   -8.5757   -2.3383   20.2381 N   0  0  0  0  0  0  0  0  0  0  0  0
   -7.8645   -3.1496   19.3663 C   0  0  0  0  0  0  0  0  0  0  0  0
   -7.2271   -2.5847   21.7915 O   0  0  0  0  0  0  0  0  0  0  0  0
   -8.0121   -2.8919   17.9843 C   0  0  0  0  0  0  0  0  0  0  0  0
   -6.9384   -3.0135   17.1348 C   0  0  0  0  0  0  0  0  0  0  0  0
   -5.7455   -3.6755   17.6498 C   0  0  0  0  0  0  0  0  0  0  0  0
   -5.6263   -3.9299   18.9937 C   0  0  0  0  0  0  0  0  0  0  0  0
   -6.6000   -3.5274   19.7945 C   0  0  0  0  0  0  0  0  0  0  0  0
  1  4  1  0
  5  8  1  0
  8  9  1  0
  9 10  1  0
 11 12  1  0
  9 14  1  0
 14 13  1  6
  8 15  1  6
  4 16  2  0
  4 17  1  0
  6 18  1  0
 14 18  1  0
 12 19  1  6
 19 20  1  0
 20 21  1  0
 19 22  2  0
 10 11  1  0
 12 13  1  0
 21 23  2  0
 23 24  1  0
 24 25  2  0
 25 26  1  0
 26 27  2  0
 27 21  1  0
  1  2  2  0
  2  3  1  0
  3  5  2  0
  5  6  1  0
  6  7  2  0
  7  1  1  0
M  END
$$$$
