No_8559-complexes_sdf/6BKW-FPZ/2024-09-17-14-21-01/
     RDKit          3D

 27 29  0  0  0  0  0  0  0  0999 V2000
   -7.2496    3.8871   27.4508 C   0  0  0  0  0  0  0  0  0  0  0  0
   -7.9379    4.9063   27.8518 C   0  0  0  0  0  0  0  0  0  0  0  0
   -9.3376    4.8647   27.7795 C   0  0  0  0  0  0  0  0  0  0  0  0
   -7.8544    2.6294   27.0414 C   0  0  0  0  0  0  0  0  0  0  0  0
   -9.2665    2.6175   27.0340 C   0  0  0  0  0  0  0  0  0  0  0  0
   -9.9836    3.7042   27.4150 C   0  0  0  0  0  0  0  0  0  0  0  0
   -6.9190    1.5828   26.8057 C   0  0  0  0  0  0  0  0  0  0  0  0
   -5.9474    1.4115   27.6672 O   0  0  0  0  0  0  0  0  0  0  0  0
   -7.2543    0.5861   26.0409 N   0  0  0  0  0  0  0  0  0  0  0  0
   -6.4879   -0.6210   25.7954 C   0  0  0  0  0  0  0  0  0  0  0  0
  -11.4598    3.6347   27.4022 C   0  0  0  0  0  0  0  0  0  0  0  0
  -12.0521    3.9364   26.2219 C   0  0  0  0  0  0  0  0  0  0  0  0
  -13.4564    4.0305   26.1323 C   0  0  0  0  0  0  0  0  0  0  0  0
  -14.2347    3.9506   27.3270 C   0  0  0  0  0  0  0  0  0  0  0  0
  -12.2031    3.3638   28.6180 C   0  0  0  0  0  0  0  0  0  0  0  0
  -13.5937    3.5722   28.6062 C   0  0  0  0  0  0  0  0  0  0  0  0
   -7.1231    6.3759   28.3243 Cl  0  0  0  0  0  0  0  0  0  0  0  0
  -14.4219    3.3752   29.8033 C   0  0  0  0  0  0  0  0  0  0  0  0
  -15.1635    4.1806   30.1496 C   0  0  0  0  0  0  0  0  0  0  0  0
  -15.6790    4.5632   31.1824 C   0  0  0  0  0  0  0  0  0  0  0  0
  -16.6185    5.6747   31.4664 C   0  0  0  0  0  0  0  0  0  0  0  0
  -16.8890    6.4465   30.3164 C   0  0  0  0  0  0  0  0  0  0  0  0
  -16.2893    6.1812   29.1375 C   0  0  0  0  0  0  0  0  0  0  0  0
  -15.3985    5.1920   28.9948 C   0  0  0  0  0  0  0  0  0  0  0  0
  -14.8355    4.9761   27.6841 C   0  0  0  0  0  0  0  0  0  0  0  0
  -15.8005    5.7407   26.7380 C   0  0  0  0  0  0  0  0  0  0  0  0
  -13.9861    6.2096   27.5907 O   0  0  0  0  0  0  0  0  0  0  0  0
  4  7  1  0
  7  8  2  0
  7  9  1  0
  9 10  1  0
  6 11  1  0
  2 17  1  0
 16 18  1  0
 24 25  1  0
 25 26  2  0
 25 27  1  0
 18 19  1  0
  1  2  2  0
  2  3  1  0
  3  6  2  0
  6  5  1  0
  5  4  2  0
  4  1  1  0
 19 20  2  0
 20 21  1  0
 21 22  2  0
 22 23  1  0
 23 24  2  0
 24 19  1  0
 11 12  2  0
 12 13  1  0
 13 14  2  0
 14 16  1  0
 16 15  2  0
 15 11  1  0
M  END
$$$$
