No_8012-complexes_sdf/6BKW-FPZ/2024-09-17-14-21-01/
     RDKit          3D

 33 36  0  0  0  0  0  0  0  0999 V2000
   -7.7129    4.2099   27.0854 C   0  0  0  0  0  0  0  0  0  0  0  0
   -7.7814    5.1722   27.8972 C   0  0  0  0  0  0  0  0  0  0  0  0
   -8.8776    3.8408   26.3416 C   0  0  0  0  0  0  0  0  0  0  0  0
   -8.9136    2.6330   25.5655 C   0  0  0  0  0  0  0  0  0  0  0  0
   -8.8361    6.1389   27.9032 C   0  0  0  0  0  0  0  0  0  0  0  0
   -9.9718    4.7048   26.3433 C   0  0  0  0  0  0  0  0  0  0  0  0
   -9.9205    5.8499   27.1013 C   0  0  0  0  0  0  0  0  0  0  0  0
   -9.8101    2.4220   24.5651 C   0  0  0  0  0  0  0  0  0  0  0  0
   -9.8538    1.2446   23.8750 C   0  0  0  0  0  0  0  0  0  0  0  0
   -8.8579    0.2429   24.1576 C   0  0  0  0  0  0  0  0  0  0  0  0
   -7.9822    0.4204   25.1893 C   0  0  0  0  0  0  0  0  0  0  0  0
   -7.9676    1.5954   25.9341 C   0  0  0  0  0  0  0  0  0  0  0  0
   -6.7077    5.5685   28.6730 O   0  0  0  0  0  0  0  0  0  0  0  0
   -7.0348   -0.6432   25.5418 C   0  0  0  0  0  0  0  0  0  0  0  0
   -6.3160   -1.1116   24.7059 O   0  0  0  0  0  0  0  0  0  0  0  0
   -6.6215   -0.7469   26.8124 O   0  0  0  0  0  0  0  0  0  0  0  0
   -5.9013   -1.7111   27.3249 C   0  0  1  0  0  0  0  0  0  0  0  0
   -4.6975   -1.4122   27.4917 C   0  0  0  0  0  0  0  0  0  0  0  0
   -4.2165   -0.0238   27.7172 C   0  0  0  0  0  0  0  0  0  0  0  0
   -2.8514    0.3845   27.8024 C   0  0  0  0  0  0  0  0  0  0  0  0
   -1.9008   -0.6655   27.9199 C   0  0  0  0  0  0  0  0  0  0  0  0
   -2.2477   -1.9346   27.7548 C   0  0  0  0  0  0  0  0  0  0  0  0
   -3.5555   -2.2977   27.5449 C   0  0  0  0  0  0  0  0  0  0  0  0
   -6.6143   -1.9960   28.7300 C   0  0  0  0  0  0  0  0  0  0  0  0
   -7.6925   -2.8652   28.7981 C   0  0  0  0  0  0  0  0  0  0  0  0
   -8.1731   -3.0932   29.6645 C   0  0  0  0  0  0  0  0  0  0  0  0
   -7.6674   -2.8240   31.0747 C   0  0  0  0  0  0  0  0  0  0  0  0
   -6.4901   -2.0713   31.0571 C   0  0  0  0  0  0  0  0  0  0  0  0
   -5.9268   -1.7179   29.9500 C   0  0  0  0  0  0  0  0  0  0  0  0
   -5.8732   -1.7263   32.4005 C   0  0  0  0  0  0  0  0  0  0  0  0
   -5.2026   -0.6039   32.4927 N   0  0  0  0  0  0  0  0  0  0  0  0
   -6.1211   -2.4057   33.4407 O   0  0  0  0  0  0  0  0  0  0  0  0
   -4.6402    0.1275   31.4312 C   0  0  0  0  0  0  0  0  0  0  0  0
  3  4  1  0
  2 13  1  0
 11 14  1  0
 14 15  2  0
 14 16  1  0
 17 16  1  1
 17 24  1  0
 28 30  1  0
 30 31  1  0
 30 32  2  0
 31 33  1  0
 17 18  1  0
  4  8  2  0
  8  9  1  0
  9 10  2  0
 10 11  1  0
 11 12  2  0
 12  4  1  0
 24 25  2  0
 25 26  1  0
 26 27  2  0
 27 28  1  0
 28 29  2  0
 29 24  1  0
 18 19  2  0
 19 20  1  0
 20 21  2  0
 21 22  1  0
 22 23  2  0
 23 18  1  0
  1  2  2  0
  2  5  1  0
  5  7  2  0
  7  6  1  0
  6  3  2  0
  3  1  1  0
M  END
$$$$
