No_804-complexes_sdf/6BKW-FPZ/2024-09-17-14-21-01/
     RDKit          3D

 29 32  0  0  0  0  0  0  0  0999 V2000
   -7.2496    3.8871   27.4508 C   0  0  0  0  0  0  0  0  0  0  0  0
   -7.6161    2.7143   27.1523 C   0  0  0  0  0  0  0  0  0  0  0  0
   -8.6212    2.2239   26.4074 C   0  0  0  0  0  0  0  0  0  0  0  0
   -8.2540    4.9237   27.1711 C   0  0  0  0  0  0  0  0  0  0  0  0
   -9.3729    4.5806   26.4433 C   0  0  0  0  0  0  0  0  0  0  0  0
   -9.5830    3.2969   26.1026 C   0  0  0  0  0  0  0  0  0  0  0  0
   -7.7347    6.2661   27.5915 C   0  0  0  0  0  0  0  0  0  0  0  0
   -8.8887    0.8897   26.0616 C   0  0  0  0  0  0  0  0  0  0  0  0
   -9.3467    0.0234   26.9487 C   0  0  0  0  0  0  0  0  0  0  0  0
   -9.6794    0.5057   28.3383 C   0  0  0  0  0  0  0  0  0  0  0  0
   -9.5772   -1.3835   26.6982 C   0  0  0  0  0  0  0  0  0  0  0  0
   -8.6598    7.2739   27.2418 N   0  0  0  0  0  0  0  0  0  0  0  0
   -9.1461   -1.9257   25.8684 C   0  0  0  0  0  0  0  0  0  0  0  0
   -8.5145   -1.0626   24.7503 C   0  0  0  0  0  0  0  0  0  0  0  0
   -8.3319    0.3192   24.8628 C   0  0  0  0  0  0  0  0  0  0  0  0
   -6.7736    6.4970   28.1736 O   0  0  0  0  0  0  0  0  0  0  0  0
  -10.7476    3.0295   25.2379 C   0  0  0  0  0  0  0  0  0  0  0  0
  -10.7701    3.4614   23.9881 C   0  0  0  0  0  0  0  0  0  0  0  0
  -11.8343    3.2341   23.0904 C   0  0  0  0  0  0  0  0  0  0  0  0
  -11.7068    3.7125   21.8123 C   0  0  0  0  0  0  0  0  0  0  0  0
  -10.6042    4.5607   21.4211 C   0  0  0  0  0  0  0  0  0  0  0  0
   -9.7283    4.9304   22.3910 C   0  0  0  0  0  0  0  0  0  0  0  0
   -9.7576    4.4532   23.5773 C   0  0  0  0  0  0  0  0  0  0  0  0
  -12.0083    3.3122   26.0349 C   0  0  0  0  0  0  0  0  0  0  0  0
  -12.1241    4.1790   27.0009 C   0  0  0  0  0  0  0  0  0  0  0  0
  -13.3296    4.3470   27.7889 C   0  0  0  0  0  0  0  0  0  0  0  0
  -14.4820    3.8592   27.3783 C   0  0  0  0  0  0  0  0  0  0  0  0
  -14.4142    2.9651   26.2686 C   0  0  0  0  0  0  0  0  0  0  0  0
  -13.2441    2.6636   25.6205 C   0  0  0  0  0  0  0  0  0  0  0  0
  4  7  1  0
  3  8  1  0
  9 10  1  0
  7 12  1  0
  7 16  2  0
  6 17  1  0
 17 24  1  0
 17 18  1  0
 18 19  2  0
 19 20  1  0
 20 21  2  0
 21 22  1  0
 22 23  2  0
 23 18  1  0
 24 25  2  0
 25 26  1  0
 26 27  2  0
 27 28  1  0
 28 29  2  0
 29 24  1  0
  1  2  2  0
  2  3  1  0
  3  6  2  0
  6  5  1  0
  5  4  2  0
  4  1  1  0
  8  9  2  0
  9 11  1  0
 11 13  2  0
 13 14  1  0
 14 15  2  0
 15  8  1  0
M  END
$$$$
