No_8540-complexes_sdf/6BKW-FPZ/2024-09-17-14-21-01/
     RDKit          3D

 25 28  0  0  0  0  0  0  0  0999 V2000
   -7.2496    3.8871   27.4508 C   0  0  1  0  0  0  0  0  0  0  0  0
   -8.5096    4.0291   27.2770 C   0  0  0  0  0  0  0  0  0  0  0  0
   -9.2677    5.1714   27.5773 C   0  0  0  0  0  0  0  0  0  0  0  0
   -6.5711    2.6400   27.2842 C   0  0  0  0  0  0  0  0  0  0  0  0
   -7.2939    1.5094   27.0532 C   0  0  1  0  0  0  0  0  0  0  0  0
   -8.6122    1.6580   26.7575 C   0  0  0  0  0  0  0  0  0  0  0  0
   -9.2984    2.8495   26.9904 C   0  0  0  0  0  0  0  0  0  0  0  0
   -8.5439    6.4004   27.5644 C   0  0  0  0  0  0  0  0  0  0  0  0
  -10.6456    5.1416   27.8945 C   0  0  0  0  0  0  0  0  0  0  0  0
   -6.5903    0.2717   26.8533 C   0  0  0  0  0  0  0  0  0  0  0  0
   -6.6340   -0.3148   25.8862 O   0  0  0  0  0  0  0  0  0  0  0  0
   -5.8120   -0.1374   28.0010 N   0  0  0  0  0  0  0  0  0  0  0  0
   -5.1226   -0.9865   28.2400 C   0  0  0  0  0  0  0  0  0  0  0  0
   -4.0264   -1.0933   28.3131 C   0  0  0  0  0  0  0  0  0  0  0  0
   -5.9907   -2.1903   28.5943 C   0  0  0  0  0  0  0  0  0  0  0  0
   -3.0896    0.1101   28.2300 C   0  0  0  0  0  0  0  0  0  0  0  0
   -5.3445   -3.3240   28.8639 C   0  0  0  0  0  0  0  0  0  0  0  0
   -3.9722   -3.3503   28.9660 C   0  0  0  0  0  0  0  0  0  0  0  0
   -3.1752   -2.2516   28.7491 C   0  0  0  0  0  0  0  0  0  0  0  0
   -3.4322    1.2000   28.7001 O   0  0  0  0  0  0  0  0  0  0  0  0
   -1.9835    0.0746   27.4350 N   0  0  0  0  0  0  0  0  0  0  0  0
   -7.2188    6.4469   27.2533 C   0  0  0  0  0  0  0  0  0  0  0  0
   -6.5198    5.1773   27.4085 C   0  0  0  0  0  0  0  0  0  0  0  0
  -11.4769    3.9726   27.9026 C   0  0  0  0  0  0  0  0  0  0  0  0
  -10.6989    2.7400   27.4472 C   0  0  0  0  0  0  0  0  0  0  0  0
  1  2  1  0
  2  3  2  0
  1  4  1  6
  4  5  1  0
  5  6  1  0
  2  7  1  0
  6  7  2  0
  3  8  1  0
  3  9  1  0
  5 10  1  6
 10 11  2  0
 10 12  1  0
 12 13  1  0
 13 14  2  0
 13 15  1  0
 14 16  1  0
 15 17  2  0
 17 18  1  0
 14 19  1  0
 18 19  1  0
 16 20  2  0
 16 21  1  0
  8 22  2  0
  1 23  1  0
 22 23  1  0
  9 24  2  0
  7 25  1  0
 24 25  1  0
M  END
$$$$
