No_8492-complexes_sdf/6BKW-FPZ/2024-09-17-14-21-01/
     RDKit          3D

 19 21  0  0  0  0  0  0  0  0999 V2000
   -7.7129    4.2099   27.0854 C   0  0  0  0  0  0  0  0  0  0  0  0
   -8.2112    3.0637   26.9225 C   0  0  0  0  0  0  0  0  0  0  0  0
   -7.0021    4.5281   28.2396 C   0  0  0  0  0  0  0  0  0  0  0  0
   -7.5497    1.9016   27.4549 C   0  0  0  0  0  0  0  0  0  0  0  0
   -6.3013    2.1806   28.1305 C   0  0  0  0  0  0  0  0  0  0  0  0
   -5.4780    1.1390   28.4052 N   0  0  0  0  0  0  0  0  0  0  0  0
   -5.9714    3.5308   28.4334 C   0  0  0  0  0  0  0  0  0  0  0  0
   -4.1645    1.2016   28.7799 C   0  0  0  0  0  0  0  0  0  0  0  0
   -5.8663   -0.1900   27.8613 C   0  0  1  0  0  0  0  0  0  0  0  0
   -8.7217    5.4097   26.7126 C   0  0  0  0  0  0  0  0  0  0  0  0
   -8.4891    6.5248   27.2767 F   0  0  0  0  0  0  0  0  0  0  0  0
  -10.0463    4.9970   26.7793 F   0  0  0  0  0  0  0  0  0  0  0  0
   -8.6743    5.5633   25.3075 F   0  0  0  0  0  0  0  0  0  0  0  0
   -5.5762   -1.1326   28.4114 C   0  0  0  0  0  0  0  0  0  0  0  0
   -3.5661    0.0397   29.4229 C   0  0  0  0  0  0  0  0  0  0  0  0
   -4.0868   -1.2290   29.0687 C   0  0  2  0  0  0  0  0  0  0  0  0
   -7.5662    0.5944   26.9338 C   0  0  0  0  0  0  0  0  0  0  0  0
   -7.0002   -0.2170   27.1100 C   0  0  0  0  0  0  0  0  0  0  0  0
   -3.1932   -1.9731   28.1336 C   0  0  0  0  0  0  0  0  0  0  0  0
  5  6  1  0
  6  8  1  0
  6  9  1  0
  1 10  1  0
 10 11  1  0
 10 12  1  0
 10 13  1  0
  8 15  1  0
 14 16  1  0
  4 17  1  0
  9 18  1  1
 16 19  1  6
 17 18  1  0
 15 16  1  0
 14  9  1  0
  1  2  2  0
  2  4  1  0
  4  5  2  0
  5  7  1  0
  7  3  2  0
  3  1  1  0
M  END
$$$$
