No_8754-complexes_sdf/6BKW-FPZ/2024-09-17-14-21-01/
     RDKit          3D

 15 16  0  0  0  0  0  0  0  0999 V2000
   -7.7129    4.2099   27.0854 C   0  0  0  0  0  0  0  0  0  0  0  0
   -7.7814    5.1722   27.8972 C   0  0  0  0  0  0  0  0  0  0  0  0
   -8.8255    3.2789   27.1191 C   0  0  0  0  0  0  0  0  0  0  0  0
   -9.8308    3.5345   27.5808 C   0  0  0  0  0  0  0  0  0  0  0  0
  -11.0074    2.6047   27.7037 C   0  0  0  0  0  0  0  0  0  0  0  0
   -9.0379    5.6520   28.4371 C   0  0  0  0  0  0  0  0  0  0  0  0
  -10.0573    4.7282   28.3727 C   0  0  0  0  0  0  0  0  0  0  0  0
  -11.7585    2.5435   26.6929 C   0  0  0  0  0  0  0  0  0  0  0  0
  -12.8839    1.5578   26.7095 C   0  0  0  0  0  0  0  0  0  0  0  0
  -13.0666    0.7765   27.8433 C   0  0  0  0  0  0  0  0  0  0  0  0
  -12.1844    0.8465   28.9071 C   0  0  0  0  0  0  0  0  0  0  0  0
  -11.1429    1.7490   28.9025 C   0  0  0  0  0  0  0  0  0  0  0  0
   -8.5564    2.0128   26.3229 C   0  0  0  0  0  0  0  0  0  0  0  0
   -8.9627    1.7340   25.0398 C   0  0  0  0  0  0  0  0  0  0  0  0
   -8.6976    0.6251   24.3552 C   0  0  0  0  0  0  0  0  0  0  0  0
  4  5  1  0
  3 13  1  0
 13 14  2  3
 14 15  1  0
  5  8  2  0
  8  9  1  0
  9 10  2  0
 10 11  1  0
 11 12  2  0
 12  5  1  0
  1  2  2  0
  2  6  1  0
  6  7  2  0
  7  4  1  0
  4  3  2  0
  3  1  1  0
M  END
$$$$
