No_8791-complexes_sdf/6BKW-FPZ/2024-09-17-14-21-01/
     RDKit          3D

 36 40  0  0  0  0  0  0  0  0999 V2000
   -7.9040    3.9820   27.1177 C   0  0  0  0  0  0  0  0  0  0  0  0
   -8.2057    2.8231   26.8733 C   0  0  0  0  0  0  0  0  0  0  0  0
   -8.7695    5.0740   26.7916 C   0  0  0  0  0  0  0  0  0  0  0  0
   -8.4337    6.4678   27.0913 C   0  0  0  0  0  0  0  0  0  0  0  0
   -9.3742    2.4311   26.2346 C   0  0  0  0  0  0  0  0  0  0  0  0
  -10.2395    3.4267   25.8887 C   0  0  0  0  0  0  0  0  0  0  0  0
  -10.0317    4.6684   26.0971 C   0  0  0  0  0  0  0  0  0  0  0  0
   -8.8734    7.4215   26.4440 N   0  0  0  0  0  0  0  0  0  0  0  0
   -7.4531    6.5981   28.0100 N   0  0  0  0  0  0  0  0  0  0  0  0
   -7.2452    1.6748   27.2796 C   0  0  0  0  0  0  0  0  0  0  0  0
   -6.1347    1.9985   27.8389 O   0  0  0  0  0  0  0  0  0  0  0  0
   -7.5767    0.4097   27.2251 N   0  0  0  0  0  0  0  0  0  0  0  0
   -6.7224   -0.6794   27.6849 C   0  0  0  0  0  0  0  0  0  0  0  0
   -7.3257   -1.6985   28.2711 C   0  0  0  0  0  0  0  0  0  0  0  0
   -8.6102   -1.6033   28.5736 C   0  0  0  0  0  0  0  0  0  0  0  0
   -9.5135   -0.6194   28.0503 C   0  0  0  0  0  0  0  0  0  0  0  0
   -8.9208    0.2051   27.3497 C   0  0  2  0  0  0  0  0  0  0  0  0
   -9.7990    1.0218   26.4368 C   0  0  2  0  0  0  0  0  0  0  0  0
  -10.0755    0.1157   25.2492 C   0  0  0  0  0  0  0  0  0  0  0  0
  -11.4123    0.1460   25.0287 C   0  0  0  0  0  0  0  0  0  0  0  0
   -9.1840   -0.4216   24.4442 C   0  0  0  0  0  0  0  0  0  0  0  0
   -9.3315   -1.2500   23.5217 C   0  0  0  0  0  0  0  0  0  0  0  0
  -11.7813   -0.7998   23.9498 C   0  0  0  0  0  0  0  0  0  0  0  0
  -10.7857   -1.3998   23.1917 C   0  0  0  0  0  0  0  0  0  0  0  0
  -11.0577    1.0926   27.1979 O   0  0  0  0  0  0  0  0  0  0  0  0
  -11.0211    2.0126   28.1937 C   0  0  0  0  0  0  0  0  0  0  0  0
  -12.4289    2.5270   28.6413 C   0  0  0  0  0  0  0  0  0  0  0  0
  -13.3206    1.8134   28.6679 C   0  0  0  0  0  0  0  0  0  0  0  0
  -14.6043    2.2758   29.0951 C   0  0  0  0  0  0  0  0  0  0  0  0
  -14.7349    3.6469   29.5176 C   0  0  0  0  0  0  0  0  0  0  0  0
  -13.6121    4.4516   29.4421 C   0  0  0  0  0  0  0  0  0  0  0  0
  -12.3840    3.9083   29.0588 C   0  0  0  0  0  0  0  0  0  0  0  0
  -11.2020   -2.3299   22.1375 C   0  0  0  0  0  0  0  0  0  0  0  0
  -11.0070   -3.4325   21.9840 O   0  0  0  0  0  0  0  0  0  0  0  0
  -11.7782   -1.5967   21.0083 N   0  0  0  0  0  0  0  0  0  0  0  0
  -12.1550   -2.2624   19.8200 C   0  0  0  0  0  0  0  0  0  0  0  0
  3  4  1  0
  4  8  2  0
  4  9  1  0
  2 10  1  0
 10 11  2  0
 10 12  1  0
 12 13  1  0
 13 14  1  0
 15 16  1  0
 12 17  1  0
  5 18  1  0
 17 18  1  0
 18 19  1  0
 18 25  1  1
 25 26  1  0
 26 27  1  0
 24 33  1  0
 33 34  2  0
 33 35  1  0
 35 36  1  0
 14 15  1  0
 17 16  1  6
  1  2  2  0
  2  5  1  0
  5  6  2  0
  6  7  1  0
  7  3  2  0
  3  1  1  0
 19 20  2  0
 20 23  1  0
 23 24  2  0
 24 22  1  0
 22 21  2  0
 21 19  1  0
 27 28  2  0
 28 29  1  0
 29 30  2  0
 30 31  1  0
 31 32  2  0
 32 27  1  0
M  END
$$$$
