No_8102-complexes_sdf/6BKW-FPZ/2024-09-17-14-21-01/
     RDKit          3D

 23 26  0  0  0  0  0  0  0  0999 V2000
   -7.2496    3.8871   27.4508 C   0  0  0  0  0  0  0  0  0  0  0  0
   -7.6161    2.7143   27.1523 C   0  0  0  0  0  0  0  0  0  0  0  0
   -8.6212    2.2239   26.4073 C   0  0  0  0  0  0  0  0  0  0  0  0
   -8.2540    4.9237   27.1711 C   0  0  0  0  0  0  0  0  0  0  0  0
   -9.3729    4.5806   26.4433 C   0  0  0  0  0  0  0  0  0  0  0  0
   -9.5830    3.2969   26.1026 C   0  0  0  0  0  0  0  0  0  0  0  0
   -7.9303    6.3207   27.5389 C   0  0  0  0  0  0  0  0  0  0  0  0
   -6.9019    6.6335   28.0776 N   0  0  0  0  0  0  0  0  0  0  0  0
   -8.6590    7.3466   26.8285 C   0  0  0  0  0  0  0  0  0  0  0  0
   -8.7037    0.8024   26.1319 C   0  0  0  0  0  0  0  0  0  0  0  0
   -9.4714    0.2977   25.3915 C   0  0  0  0  0  0  0  0  0  0  0  0
  -10.4381    1.1462   24.6347 C   0  0  0  0  0  0  0  0  0  0  0  0
  -11.3729    0.6637   23.6769 C   0  0  0  0  0  0  0  0  0  0  0  0
  -12.1754    1.5070   22.9909 C   0  0  0  0  0  0  0  0  0  0  0  0
  -10.4578    2.5910   24.8981 C   0  0  0  0  0  0  0  0  0  0  0  0
  -12.0486    2.9266   23.3122 C   0  0  0  0  0  0  0  0  0  0  0  0
  -11.2850    3.5273   24.2717 C   0  0  0  0  0  0  0  0  0  0  0  0
   -9.5066   -1.1142   24.9905 C   0  0  0  0  0  0  0  0  0  0  0  0
  -10.2562   -1.8749   25.8398 C   0  0  0  0  0  0  0  0  0  0  0  0
  -10.6208   -3.0957   25.5756 C   0  0  0  0  0  0  0  0  0  0  0  0
  -10.0891   -3.6450   24.3807 C   0  0  0  0  0  0  0  0  0  0  0  0
   -8.9630   -1.5816   23.8570 C   0  0  0  0  0  0  0  0  0  0  0  0
   -9.2652   -2.9093   23.5339 C   0  0  0  0  0  0  0  0  0  0  0  0
  4  7  1  0
  7  8  2  0
  7  9  1  0
 11 18  1  0
  6 15  2  0
 12 11  2  0
 11 10  1  0
 10  3  2  0
 18 19  2  0
 19 20  1  0
 20 21  2  0
 21 23  1  0
 23 22  2  0
 22 18  1  0
 12 13  1  0
 13 14  2  0
 14 16  1  0
 16 17  2  0
 17 15  1  0
 15 12  1  0
  1  2  2  0
  2  3  1  0
  3  6  1  0
  6  5  1  0
  5  4  2  0
  4  1  1  0
M  END
$$$$
