No_8705-complexes_sdf/6BKW-FPZ/2024-09-17-14-21-01/
     RDKit          3D

 13 14  0  0  0  0  0  0  0  0999 V2000
   -7.2496    3.8871   27.4508 C   0  0  0  0  0  0  0  0  0  0  0  0
   -7.9379    4.9063   27.8518 C   0  0  0  0  0  0  0  0  0  0  0  0
   -9.3376    4.8647   27.7795 C   0  0  0  0  0  0  0  0  0  0  0  0
   -7.8544    2.6294   27.0414 C   0  0  0  0  0  0  0  0  0  0  0  0
   -9.2665    2.6175   27.0340 C   0  0  0  0  0  0  0  0  0  0  0  0
   -9.9836    3.7042   27.4150 C   0  0  0  0  0  0  0  0  0  0  0  0
   -7.1176    1.5788   26.7783 O   0  0  0  0  0  0  0  0  0  0  0  0
   -7.2777    0.3898   27.3583 C   0  0  0  0  0  0  0  0  0  0  0  0
   -8.3953   -0.2862   27.2302 C   0  0  0  0  0  0  0  0  0  0  0  0
   -6.0406   -0.2517   27.8938 C   0  0  0  0  0  0  0  0  0  0  0  0
   -6.1176   -1.4307   28.5486 C   0  0  0  0  0  0  0  0  0  0  0  0
   -8.4770   -1.5447   27.9401 C   0  0  0  0  0  0  0  0  0  0  0  0
   -7.3618   -2.0789   28.5640 C   0  0  0  0  0  0  0  0  0  0  0  0
  4  7  1  0
  7  8  1  0
  1  2  2  0
  2  3  1  0
  3  6  2  0
  6  5  1  0
  5  4  2  0
  4  1  1  0
  8  9  2  0
  9 12  1  0
 12 13  2  0
 13 11  1  0
 11 10  2  0
 10  8  1  0
M  END
$$$$
