No_8845-complexes_sdf/6BKW-FPZ/2024-09-17-14-21-01/
     RDKit          3D

 19 20  0  0  0  0  0  0  0  0999 V2000
   -7.9040    3.9820   27.1177 C   0  0  0  0  0  0  0  0  0  0  0  0
   -8.2057    2.8231   26.8733 C   0  0  0  0  0  0  0  0  0  0  0  0
   -9.2962    2.4021   26.1155 C   0  0  0  0  0  0  0  0  0  0  0  0
   -6.8682    4.5169   28.0704 C   0  0  0  0  0  0  0  0  0  0  0  0
  -10.0578    3.3688   25.5520 C   0  0  0  0  0  0  0  0  0  0  0  0
   -9.6997    4.7480   25.6981 C   0  0  0  0  0  0  0  0  0  0  0  0
   -8.6783    5.1111   26.5262 C   0  0  0  0  0  0  0  0  0  0  0  0
  -11.1704    3.0677   24.6150 C   0  0  0  0  0  0  0  0  0  0  0  0
  -11.2492    3.6669   23.4645 C   0  0  0  0  0  0  0  0  0  0  0  0
  -12.3144    3.4338   22.5189 C   0  0  0  0  0  0  0  0  0  0  0  0
  -12.2796    3.9154   21.2719 C   0  0  0  0  0  0  0  0  0  0  0  0
  -11.1831    4.7825   20.8215 C   0  0  0  0  0  0  0  0  0  0  0  0
  -10.1737    5.0387   21.7310 C   0  0  0  0  0  0  0  0  0  0  0  0
  -10.1242    4.5472   22.9338 C   0  0  0  0  0  0  0  0  0  0  0  0
   -5.7596    3.7482   28.1136 N   0  0  0  0  0  0  0  0  0  0  0  0
   -7.0052    5.9551   28.8671 Cl  0  0  0  0  0  0  0  0  0  0  0  0
  -12.0848    2.1100   25.0601 C   0  0  0  0  0  0  0  0  0  0  0  0
  -13.1911    2.0997   25.5806 C   0  0  0  0  0  0  0  0  0  0  0  0
  -13.9872    1.0200   25.9662 C   0  0  0  0  0  0  0  0  0  0  0  0
  1  4  1  0
  5  8  1  0
  4 15  2  0
  4 16  1  0
  8 17  1  0
 17 18  2  3
 18 19  1  0
  8  9  1  0
  9 10  2  0
 10 11  1  0
 11 12  2  0
 12 13  1  0
 13 14  2  0
 14  9  1  0
  1  2  2  0
  2  3  1  0
  3  5  2  0
  5  6  1  0
  6  7  2  0
  7  1  1  0
M  END
$$$$
