No_857-complexes_sdf/6BKW-FPZ/2024-09-17-14-21-01/
     RDKit          3D

 24 27  0  0  0  0  0  0  0  0999 V2000
   -7.7129    4.2099   27.0854 C   0  0  0  0  0  0  0  0  0  0  0  0
   -7.7814    5.1722   27.8972 C   0  0  0  0  0  0  0  0  0  0  0  0
   -8.8776    3.8408   26.3416 C   0  0  0  0  0  0  0  0  0  0  0  0
   -9.9844    4.6492   26.4743 C   0  0  0  0  0  0  0  0  0  0  0  0
   -8.8033    6.1375   27.8728 C   0  0  0  0  0  0  0  0  0  0  0  0
   -9.9554    5.8280   27.1737 C   0  0  0  0  0  0  0  0  0  0  0  0
   -8.8752    2.6155   25.5663 C   0  0  0  0  0  0  0  0  0  0  0  0
   -8.2641    1.5329   26.1081 N   0  0  0  0  0  0  0  0  0  0  0  0
   -8.1165    0.3525   25.4938 C   0  0  0  0  0  0  0  0  0  0  0  0
   -7.2053   -0.5534   26.0205 C   0  0  0  0  0  0  0  0  0  0  0  0
   -6.6767   -0.2697   26.9613 C   0  0  0  0  0  0  0  0  0  0  0  0
   -6.6199    0.9784   27.7487 C   0  0  0  0  0  0  0  0  0  0  0  0
   -7.4057    1.9179   27.1863 C   0  0  1  0  0  0  0  0  0  0  0  0
   -7.2901    3.1673   27.6216 N   0  0  0  0  0  0  0  0  0  0  0  0
   -9.5278    2.5811   24.5270 O   0  0  0  0  0  0  0  0  0  0  0  0
   -6.6861    5.6311   28.6069 O   0  0  0  0  0  0  0  0  0  0  0  0
   -5.7038   -1.3794   27.7076 C   0  0  0  0  0  0  0  0  0  0  0  0
   -5.0162   -1.1485   28.7725 C   0  0  0  0  0  0  0  0  0  0  0  0
   -4.3150   -2.1476   29.4796 C   0  0  0  0  0  0  0  0  0  0  0  0
   -3.6375   -1.7508   30.6945 C   0  0  0  0  0  0  0  0  0  0  0  0
   -3.5818   -0.4225   31.1762 C   0  0  0  0  0  0  0  0  0  0  0  0
   -4.1742    0.5537   30.3555 C   0  0  0  0  0  0  0  0  0  0  0  0
   -4.8355    0.2207   29.3306 C   0  0  0  0  0  0  0  0  0  0  0  0
   -5.6835    1.2201   28.6589 N   0  0  0  0  0  0  0  0  0  0  0  0
  3  7  1  0
  7  8  1  0
  8  9  1  0
 10 11  1  0
  8 13  1  0
 13 12  1  6
  1 14  1  0
 13 14  1  0
  7 15  2  0
  2 16  1  0
 11 17  1  0
 23 24  1  0
 17 18  1  0
  9 10  1  0
 11 12  1  0
 18 19  2  0
 19 20  1  0
 20 21  2  0
 21 22  1  0
 22 23  2  0
 23 18  1  0
  1  2  2  0
  2  5  1  0
  5  6  2  0
  6  4  1  0
  4  3  2  0
  3  1  1  0
M  END
$$$$
