No_8145-complexes_sdf/6BKW-FPZ/2024-09-17-14-21-01/
     RDKit          3D

 30 32  0  0  0  0  0  0  0  0999 V2000
   -7.7129    4.2099   27.0854 C   0  0  0  0  0  0  0  0  0  0  0  0
   -8.2112    3.0637   26.9225 C   0  0  0  0  0  0  0  0  0  0  0  0
   -7.5138    1.9223   27.4249 C   0  0  1  0  0  0  0  0  0  0  0  0
   -8.5309    5.4147   26.8151 C   0  0  0  0  0  0  0  0  0  0  0  0
   -9.6817    5.2393   26.1100 C   0  0  0  0  0  0  0  0  0  0  0  0
  -10.1032    3.9957   25.8534 C   0  0  0  0  0  0  0  0  0  0  0  0
   -9.4035    2.8430   26.2573 C   0  0  0  0  0  0  0  0  0  0  0  0
   -8.0069    0.6506   27.2927 N   0  0  0  0  0  0  0  0  0  0  0  0
   -7.2168   -0.4310   27.4917 C   0  0  0  0  0  0  0  0  0  0  0  0
   -7.8322   -1.6875   27.5259 C   0  0  0  0  0  0  0  0  0  0  0  0
   -6.1916    2.0005   27.7567 N   0  0  0  0  0  0  0  0  0  0  0  0
   -5.8441   -0.3001   27.7760 C   0  0  2  0  0  0  0  0  0  0  0  0
   -5.3582    1.0504   27.9132 C   0  0  1  0  0  0  0  0  0  0  0  0
   -7.9854    6.7654   27.1003 C   0  0  0  0  0  0  0  0  0  0  0  0
   -7.0555    6.8325   27.9291 O   0  0  0  0  0  0  0  0  0  0  0  0
   -8.6722    7.8412   26.8882 O   0  0  0  0  0  0  0  0  0  0  0  0
   -4.0625    1.3022   28.2720 N   0  0  0  0  0  0  0  0  0  0  0  0
   -7.8294   -2.3224   28.5429 C   0  0  0  0  0  0  0  0  0  0  0  0
   -8.2738   -2.9673   29.2270 C   0  0  0  0  0  0  0  0  0  0  0  0
   -7.5639   -3.5504   30.4216 C   0  0  0  0  0  0  0  0  0  0  0  0
   -6.3790   -3.0768   30.8403 C   0  0  0  0  0  0  0  0  0  0  0  0
   -5.7612   -2.1628   30.1043 C   0  0  0  0  0  0  0  0  0  0  0  0
   -6.3954   -1.7394   29.0509 C   0  0  0  0  0  0  0  0  0  0  0  0
   -5.4081   -1.3643   28.8371 Br  0  0  0  0  0  0  0  0  0  0  0  0
   -5.1379   -0.7242   26.3303 C   0  0  0  0  0  0  0  0  0  0  0  0
   -5.5101    0.5581   28.2031 C   0  0  1  0  0  0  0  0  0  0  0  0
   -5.8251    0.6691   29.7269 O   0  0  0  0  0  0  0  0  0  0  0  0
   -4.4146   -0.1136   28.3509 Br  0  0  0  0  0  0  0  0  0  0  0  0
   -6.8905    0.9698   29.0117 F   0  0  0  0  0  0  0  0  0  0  0  0
   -6.3832    0.9420   28.5055 Cl  0  0  0  0  0  0  0  0  0  0  0  0
  3  2  1  6
  3  8  1  0
  8  9  1  0
  9 10  2  3
  3 11  1  0
  9 12  1  0
 11 13  1  0
 12 13  1  0
  4 14  1  0
 14 15  1  0
 14 16  2  0
 13 17  1  1
 10 18  1  0
 23 24  1  0
 12 25  1  6
 13 26  1  0
 26 27  1  0
 12 28  1  0
 27 29  1  0
 26 30  1  6
 18 19  2  0
 19 20  1  0
 20 21  2  0
 21 22  1  0
 22 23  2  0
 23 18  1  0
  1  2  2  0
  2  7  1  0
  7  6  2  0
  6  5  1  0
  5  4  2  0
  4  1  1  0
M  END
$$$$
