No_8166-complexes_sdf/6BKW-FPZ/2024-09-17-14-21-01/
     RDKit          3D

 11 11  0  0  0  0  0  0  0  0999 V2000
   -7.9040    3.9820   27.1177 C   0  0  0  0  0  0  0  0  0  0  0  0
   -8.2057    2.8231   26.8733 C   0  0  0  0  0  0  0  0  0  0  0  0
   -7.4766    1.7477   27.4593 C   0  0  0  0  0  0  0  0  0  0  0  0
   -8.7468    5.1251   26.6967 C   0  0  0  0  0  0  0  0  0  0  0  0
   -8.4775    6.4967   27.1056 C   0  0  0  0  0  0  0  0  0  0  0  0
   -7.7864    0.3940   27.2703 C   0  0  0  0  0  0  0  0  0  0  0  0
   -7.0622   -0.5757   27.8989 C   0  0  0  0  0  0  0  0  0  0  0  0
   -5.8640   -0.2610   28.4925 C   0  0  0  0  0  0  0  0  0  0  0  0
   -5.3663    1.0745   28.4352 C   0  0  0  0  0  0  0  0  0  0  0  0
   -6.0859    2.0596   27.8945 C   0  0  0  0  0  0  0  0  0  0  0  0
   -9.2875    7.5171   26.6984 C   0  0  0  0  0  0  0  0  0  0  0  0
  1  2  2  3
  2  3  1  0
  1  4  1  0
  4  5  2  3
  5 11  1  0
  3  6  2  0
  6  7  1  0
  7  8  2  0
  8  9  1  0
  9 10  2  0
 10  3  1  0
M  END
$$$$
