No_8983-complexes_sdf/6BKW-FPZ/2024-09-17-14-21-01/
     RDKit          3D

 38 43  0  0  0  0  0  0  0  0999 V2000
   -7.2496    3.8871   27.4508 C   0  0  0  0  0  0  0  0  0  0  0  0
   -7.9379    4.9063   27.8518 C   0  0  0  0  0  0  0  0  0  0  0  0
   -7.5112    6.1898   27.6280 C   0  0  0  0  0  0  0  0  0  0  0  0
   -7.8078    2.6331   27.2522 C   0  0  2  0  0  0  0  0  0  0  0  0
   -9.1846    2.4724   27.5426 C   0  0  0  0  0  0  0  0  0  0  0  0
   -9.9168    3.5155   28.0405 C   0  0  0  0  0  0  0  0  0  0  0  0
   -9.3366    4.7963   28.1727 C   0  0  0  0  0  0  0  0  0  0  0  0
  -11.3251    3.2741   28.4031 C   0  0  0  0  0  0  0  0  0  0  0  0
  -12.1976    4.2617   28.5764 C   0  0  0  0  0  0  0  0  0  0  0  0
  -11.7283    1.9654   28.7646 C   0  0  0  0  0  0  0  0  0  0  0  0
  -13.5369    4.0796   28.9277 C   0  0  0  0  0  0  0  0  0  0  0  0
  -13.0416    1.7304   29.1737 C   0  0  0  0  0  0  0  0  0  0  0  0
  -13.4892    0.3855   29.4671 C   0  0  0  0  0  0  0  0  0  0  0  0
  -13.9147    2.7882   29.2516 C   0  0  0  0  0  0  0  0  0  0  0  0
   -7.0447    1.4419   26.8697 C   0  0  0  0  0  0  0  0  0  0  0  0
   -5.9655    0.9755   27.7224 C   0  0  0  0  0  0  0  0  0  0  0  0
   -5.2461   -0.1740   27.4622 C   0  0  0  0  0  0  0  0  0  0  0  0
   -5.6537   -0.9510   26.3960 C   0  0  0  0  0  0  0  0  0  0  0  0
   -7.4422    0.5132   25.9622 C   0  0  0  0  0  0  0  0  0  0  0  0
   -6.7648   -0.5897   25.6432 C   0  0  0  0  0  0  0  0  0  0  0  0
   -4.0570   -0.4965   28.2907 C   0  0  0  0  0  0  0  0  0  0  0  0
   -4.0312   -1.7811   28.7368 C   0  0  0  0  0  0  0  0  0  0  0  0
   -3.9912    0.4282   29.5242 C   0  0  0  0  0  0  0  0  0  0  0  0
   -2.7870   -0.1296   27.4454 C   0  0  0  0  0  0  0  0  0  0  0  0
  -13.7516    0.0314   30.5816 O   0  0  0  0  0  0  0  0  0  0  0  0
  -12.9286   -0.5799   28.5355 N   0  0  0  0  0  0  0  0  0  0  0  0
  -13.1223   -1.9663   28.7632 C   0  0  0  0  0  0  0  0  0  0  0  0
  -12.4167   -2.6468   28.0483 C   0  0  0  0  0  0  0  0  0  0  0  0
  -11.6739   -2.1167   26.9871 C   0  0  0  0  0  0  0  0  0  0  0  0
  -11.5144   -0.7921   26.7635 C   0  0  0  0  0  0  0  0  0  0  0  0
  -12.1147   -0.0338   27.5613 C   0  0  2  0  0  0  0  0  0  0  0  0
  -11.7683    1.3116   27.5995 N   0  0  0  0  0  0  0  0  0  0  0  0
   -1.8678   -0.2739   28.1243 F   0  0  0  0  0  0  0  0  0  0  0  0
   -2.8395    1.2014   27.0303 F   0  0  0  0  0  0  0  0  0  0  0  0
   -2.6579   -0.9114   26.3840 F   0  0  0  0  0  0  0  0  0  0  0  0
   -4.4771   -2.3637   29.5485 C   0  0  0  0  0  0  0  0  0  0  0  0
   -4.8215   -1.5629   30.8286 C   0  0  0  0  0  0  0  0  0  0  0  0
   -4.4945   -0.1213   30.7580 C   0  0  0  0  0  0  0  0  0  0  0  0
  1  2  1  0
  2  3  2  0
  1  4  1  0
  4  5  1  0
  5  6  1  0
  2  7  1  0
  6  7  1  0
  6  8  1  0
 12 13  1  0
  4 15  1  1
 17 21  1  0
 21 22  1  0
 21 23  1  0
 21 24  1  0
 13 25  2  0
 13 26  1  0
 26 27  1  0
 28 29  1  0
 29 30  1  0
 26 31  1  0
 10 32  1  0
 31 32  1  0
 24 33  1  0
 24 34  1  0
 24 35  1  0
 36 37  1  0
 27 28  1  0
 31 30  1  1
 22 36  1  0
 37 38  1  0
 38 23  1  0
  8  9  2  0
  9 11  1  0
 11 14  2  0
 14 12  1  0
 12 10  2  0
 10  8  1  0
 15 16  2  0
 16 17  1  0
 17 18  2  0
 18 20  1  0
 20 19  2  0
 19 15  1  0
M  END
$$$$
