No_8476-complexes_sdf/6BKW-FPZ/2024-09-17-14-21-01/
     RDKit          3D

 25 28  0  0  0  0  0  0  0  0999 V2000
   -7.9040    3.9820   27.1177 C   0  0  0  0  0  0  0  0  0  0  0  0
   -8.2057    2.8231   26.8733 C   0  0  0  0  0  0  0  0  0  0  0  0
   -9.2962    2.4021   26.1155 C   0  0  0  0  0  0  0  0  0  0  0  0
   -8.7358    5.0662   26.5917 C   0  0  0  0  0  0  0  0  0  0  0  0
   -9.7618    4.7023   25.7546 C   0  0  0  0  0  0  0  0  0  0  0  0
  -10.0066    3.4105   25.4922 C   0  0  0  0  0  0  0  0  0  0  0  0
   -8.3943    6.4760   26.8801 C   0  0  0  0  0  0  0  0  0  0  0  0
   -8.6590    7.3213   26.1280 F   0  0  0  0  0  0  0  0  0  0  0  0
   -7.0387    6.4908   27.1906 F   0  0  0  0  0  0  0  0  0  0  0  0
   -9.0767    6.6237   28.1752 F   0  0  0  0  0  0  0  0  0  0  0  0
   -7.3568    1.6625   27.4892 C   0  0  0  0  0  0  0  0  0  0  0  0
   -7.7332    0.3323   27.3948 C   0  0  0  0  0  0  0  0  0  0  0  0
   -6.8738   -0.6457   27.8687 C   0  0  0  0  0  0  0  0  0  0  0  0
   -7.3140   -1.9733   28.0178 C   0  0  0  0  0  0  0  0  0  0  0  0
   -8.6385   -2.2417   27.5953 C   0  0  0  0  0  0  0  0  0  0  0  0
   -9.4801   -1.2986   27.1544 C   0  0  0  0  0  0  0  0  0  0  0  0
   -9.0492    0.0274   27.1090 C   0  0  0  0  0  0  0  0  0  0  0  0
   -9.7581    1.0240   26.1465 C   0  0  0  0  0  0  0  0  0  0  0  0
   -5.4872   -0.3235   28.3726 C   0  0  0  0  0  0  0  0  0  0  0  0
   -4.5224   -0.7195   27.7501 C   0  0  0  0  0  0  0  0  0  0  0  0
   -3.1491   -0.2437   28.1355 C   0  0  0  0  0  0  0  0  0  0  0  0
   -3.0324    0.5913   29.2631 C   0  0  0  0  0  0  0  0  0  0  0  0
   -4.2079    0.9145   29.9872 C   0  0  0  0  0  0  0  0  0  0  0  0
   -5.3973    0.5116   29.5197 C   0  0  0  0  0  0  0  0  0  0  0  0
  -10.7848    0.6323   25.5307 O   0  0  0  0  0  0  0  0  0  0  0  0
  4  7  1  0
  7  8  1  0
  7  9  1  0
  7 10  1  0
  2 11  1  0
  3 18  1  0
 17 18  1  0
 13 19  1  0
 18 25  2  0
 11 12  1  0
 12 13  2  0
 13 14  1  0
 14 15  2  0
 15 16  1  0
 16 17  2  0
 17 12  1  0
  1  2  2  0
  2  3  1  0
  3  6  2  0
  6  5  1  0
  5  4  2  0
  4  1  1  0
 19 20  2  0
 20 21  1  0
 21 22  2  0
 22 23  1  0
 23 24  2  0
 24 19  1  0
M  END
$$$$
