No_8917-complexes_sdf/6BKW-FPZ/2024-09-17-14-21-01/
     RDKit          3D

 39 43  0  0  0  0  0  0  0  0999 V2000
   -7.7129    4.2099   27.0854 C   0  0  0  0  0  0  0  0  0  0  0  0
   -7.7814    5.1722   27.8972 C   0  0  0  0  0  0  0  0  0  0  0  0
   -8.8255    3.2789   27.1191 C   0  0  0  0  0  0  0  0  0  0  0  0
   -9.9209    3.4734   27.9101 C   0  0  0  0  0  0  0  0  0  0  0  0
  -10.0316    4.7089   28.6463 C   0  0  0  0  0  0  0  0  0  0  0  0
   -8.9258    5.5669   28.6427 C   0  0  0  0  0  0  0  0  0  0  0  0
   -8.6994    1.9948   26.3493 C   0  0  0  0  0  0  0  0  0  0  0  0
   -9.1697    1.9656   25.0734 C   0  0  0  0  0  0  0  0  0  0  0  0
   -9.8414    3.1330   24.5646 C   0  0  0  0  0  0  0  0  0  0  0  0
  -10.3216    3.2082   23.2530 C   0  0  0  0  0  0  0  0  0  0  0  0
  -10.0893    2.0859   22.4342 C   0  0  0  0  0  0  0  0  0  0  0  0
   -9.4269    0.9383   22.9138 C   0  0  0  0  0  0  0  0  0  0  0  0
   -8.9691    0.9206   24.2100 C   0  0  0  0  0  0  0  0  0  0  0  0
   -8.0545    0.8838   26.9599 C   0  0  0  0  0  0  0  0  0  0  0  0
   -8.1089    0.0129   27.4701 C   0  0  0  0  0  0  0  0  0  0  0  0
   -7.1485   -0.9268   28.0090 C   0  0  0  0  0  0  0  0  0  0  0  0
   -5.8241   -0.5609   27.8022 C   0  0  0  0  0  0  0  0  0  0  0  0
   -5.4871    0.5923   27.1548 C   0  0  0  0  0  0  0  0  0  0  0  0
   -6.4668    1.4445   26.7180 C   0  0  0  0  0  0  0  0  0  0  0  0
  -11.0548    2.5655   27.9584 C   0  0  0  0  0  0  0  0  0  0  0  0
  -12.0583    2.8439   28.8965 C   0  0  0  0  0  0  0  0  0  0  0  0
  -13.1624    1.9185   29.0545 C   0  0  0  0  0  0  0  0  0  0  0  0
  -14.2216    2.2042   29.8454 C   0  0  0  0  0  0  0  0  0  0  0  0
  -14.2778    3.2036   30.3146 C   0  0  0  0  0  0  0  0  0  0  0  0
  -13.3764    4.3156   30.2952 C   0  0  0  0  0  0  0  0  0  0  0  0
  -12.2907    4.1005   29.5439 C   0  0  0  0  0  0  0  0  0  0  0  0
   -4.0769    0.9939   27.0797 C   0  0  0  0  0  0  0  0  0  0  0  0
   -3.3855    0.5036   26.2278 O   0  0  0  0  0  0  0  0  0  0  0  0
   -3.6252    1.8487   28.0166 O   0  0  0  0  0  0  0  0  0  0  0  0
  -10.9999    4.3499   22.6955 C   0  0  0  0  0  0  0  0  0  0  0  0
  -10.7651    4.6546   21.6655 F   0  0  0  0  0  0  0  0  0  0  0  0
  -10.7244    5.4648   23.5768 F   0  0  0  0  0  0  0  0  0  0  0  0
  -12.3626    4.1774   22.9387 F   0  0  0  0  0  0  0  0  0  0  0  0
   -9.5482   -0.7246   27.7331 C   0  0  0  0  0  0  0  0  0  0  0  0
  -10.5958   -0.3596   27.2786 C   0  0  0  0  0  0  0  0  0  0  0  0
  -11.8253   -1.0145   27.4055 C   0  0  0  0  0  0  0  0  0  0  0  0
  -11.8632   -2.1020   28.2770 C   0  0  0  0  0  0  0  0  0  0  0  0
  -10.7021   -2.5879   28.8545 C   0  0  0  0  0  0  0  0  0  0  0  0
   -9.4907   -1.9551   28.6283 C   0  0  0  0  0  0  0  0  0  0  0  0
  3  7  1  0
  7 14  1  0
  4 20  1  0
 18 27  1  0
 27 28  2  0
 27 29  1  0
 10 30  1  0
 30 31  1  0
 30 32  1  0
 30 33  1  0
 15 34  1  0
  7  8  1  0
 20 21  1  0
 14 15  1  0
 15 16  2  0
 16 17  1  0
 17 18  2  0
 18 19  1  0
 19 14  2  0
  1  2  2  0
  2  6  1  0
  6  5  2  0
  5  4  1  0
  4  3  2  0
  3  1  1  0
 34 35  2  0
 35 36  1  0
 36 37  2  0
 37 38  1  0
 38 39  2  0
 39 34  1  0
  8  9  2  0
  9 10  1  0
 10 11  2  0
 11 12  1  0
 12 13  2  0
 13  8  1  0
 21 22  2  0
 22 23  1  0
 23 24  2  0
 24 25  1  0
 25 26  2  0
 26 21  1  0
M  END
$$$$
