No_8014-complexes_sdf/6BKW-FPZ/2024-09-17-14-21-01/
     RDKit          3D

 18 20  0  0  0  0  0  0  0  0999 V2000
   -7.7129    4.2099   27.0854 C   0  0  0  0  0  0  0  0  0  0  0  0
   -8.2112    3.0637   26.9225 C   0  0  0  0  0  0  0  0  0  0  0  0
   -8.4224    5.2106   27.8516 C   0  0  0  0  0  0  0  0  0  0  0  0
   -7.4917    1.9381   26.3986 C   0  0  0  0  0  0  0  0  0  0  0  0
   -9.7695    5.0306   28.1322 C   0  0  0  0  0  0  0  0  0  0  0  0
   -9.5934    2.8183   27.3258 C   0  0  0  0  0  0  0  0  0  0  0  0
  -10.1791    1.5404   27.0562 C   0  0  0  0  0  0  0  0  0  0  0  0
  -10.3195    3.8220   27.9187 C   0  0  0  0  0  0  0  0  0  0  0  0
   -9.3871    0.4607   26.7985 C   0  0  0  0  0  0  0  0  0  0  0  0
   -8.0738    0.6889   26.3020 C   0  0  0  0  0  0  0  0  0  0  0  0
  -11.6836    3.5647   28.4439 C   0  0  0  0  0  0  0  0  0  0  0  0
  -12.6530    4.4255   28.5705 C   0  0  0  0  0  0  0  0  0  0  0  0
  -13.9478    4.2286   28.9894 C   0  0  0  0  0  0  0  0  0  0  0  0
  -14.1887    2.9139   29.4756 C   0  0  0  0  0  0  0  0  0  0  0  0
  -13.2300    1.9098   29.4226 C   0  0  0  0  0  0  0  0  0  0  0  0
  -11.9771    2.2327   28.9524 C   0  0  0  0  0  0  0  0  0  0  0  0
   -7.2383   -0.4311   25.9076 C   0  0  0  0  0  0  0  0  0  0  0  0
   -6.8767   -0.4341   24.6432 N   0  0  0  0  0  0  0  0  0  0  0  0
  8 11  1  0
 10 17  1  0
 17 18  1  0
 11 12  2  0
 12 13  1  0
 13 14  2  0
 14 15  1  0
 15 16  2  0
 16 11  1  0
  2  4  1  0
  4 10  2  0
 10  9  1  0
  9  7  2  0
  7  6  1  0
  1  2  2  0
  2  6  1  0
  6  8  2  0
  8  5  1  0
  5  3  2  0
  3  1  1  0
M  END
$$$$
