No_8639-complexes_sdf/6BKW-FPZ/2024-09-17-14-21-01/
     RDKit          3D

 24 26  0  0  0  0  0  0  0  0999 V2000
   -7.9040    3.9820   27.1177 C   0  0  0  0  0  0  0  0  0  0  0  0
   -9.0711    4.3164   27.0630 C   0  0  0  0  0  0  0  0  0  0  0  0
   -9.5294    5.4517   27.7215 C   0  0  0  0  0  0  0  0  0  0  0  0
   -6.9328    4.7309   27.8881 C   0  0  0  0  0  0  0  0  0  0  0  0
   -7.3377    5.8421   28.5537 C   0  0  0  0  0  0  0  0  0  0  0  0
   -8.6411    6.2609   28.3972 C   0  0  0  0  0  0  0  0  0  0  0  0
  -10.0467    3.4917   26.2630 C   0  0  2  0  0  0  0  0  0  0  0  0
   -9.6689    2.3490   25.1723 Cl  0  0  0  0  0  0  0  0  0  0  0  0
  -11.4906    3.8396   26.3119 C   0  0  0  0  0  0  0  0  0  0  0  0
  -12.1000    3.7796   27.5214 C   0  0  0  0  0  0  0  0  0  0  0  0
  -13.3573    4.1818   27.7919 C   0  0  0  0  0  0  0  0  0  0  0  0
  -14.1248    4.5770   26.6583 C   0  0  0  0  0  0  0  0  0  0  0  0
  -13.5263    4.6279   25.3823 C   0  0  0  0  0  0  0  0  0  0  0  0
  -12.1802    4.2647   25.2131 C   0  0  0  0  0  0  0  0  0  0  0  0
   -5.6790    4.2114   28.0642 O   0  0  0  0  0  0  0  0  0  0  0  0
  -15.5427    4.9913   26.7793 C   0  0  0  0  0  0  0  0  0  0  0  0
  -16.3758    4.1190   26.9859 C   0  0  0  0  0  0  0  0  0  0  0  0
  -16.0172    2.7990   27.1964 C   0  0  0  0  0  0  0  0  0  0  0  0
  -17.0739    1.8048   27.4523 C   0  0  0  0  0  0  0  0  0  0  0  0
  -16.7136    0.4989   27.6905 C   0  0  0  0  0  0  0  0  0  0  0  0
  -15.3443    0.1242   27.6635 C   0  0  0  0  0  0  0  0  0  0  0  0
  -14.3577    1.0578   27.4144 C   0  0  0  0  0  0  0  0  0  0  0  0
  -14.6774    2.3209   27.2210 C   0  0  0  0  0  0  0  0  0  0  0  0
  -13.4581    5.1746   28.8255 N   0  0  0  0  0  0  0  0  0  0  0  0
  2  7  1  0
  7  8  1  6
  7  9  1  0
  4 15  1  0
 12 16  1  0
 16 17  2  3
 17 18  1  0
 11 24  1  0
 18 19  2  0
 19 20  1  0
 20 21  2  0
 21 22  1  0
 22 23  2  0
 23 18  1  0
  1  2  2  0
  2  3  1  0
  3  6  2  0
  6  5  1  0
  5  4  2  0
  4  1  1  0
  9 10  2  0
 10 11  1  0
 11 12  2  0
 12 13  1  0
 13 14  2  0
 14  9  1  0
M  END
$$$$
