No_8930-complexes_sdf/6BKW-FPZ/2024-09-17-14-21-01/
     RDKit          3D

 15 16  0  0  0  0  0  0  0  0999 V2000
   -7.7129    4.2099   27.0854 C   0  0  0  0  0  0  0  0  0  0  0  0
   -8.2112    3.0637   26.9225 C   0  0  0  0  0  0  0  0  0  0  0  0
   -9.4446    2.8304   26.1868 C   0  0  0  0  0  0  0  0  0  0  0  0
   -8.4697    5.3956   26.7238 C   0  0  0  0  0  0  0  0  0  0  0  0
   -9.6172    5.2111   25.9513 C   0  0  0  0  0  0  0  0  0  0  0  0
  -10.0424    3.9782   25.6873 C   0  0  0  0  0  0  0  0  0  0  0  0
   -7.8256    6.9333   27.0525 Cl  0  0  0  0  0  0  0  0  0  0  0  0
   -7.3569    1.6489   27.5045 Cl  0  0  0  0  0  0  0  0  0  0  0  0
  -11.2448    3.8108   24.8587 C   0  0  0  0  0  0  0  0  0  0  0  0
  -11.1941    4.0570   23.5098 C   0  0  0  0  0  0  0  0  0  0  0  0
  -12.3072    3.9385   22.6494 C   0  0  0  0  0  0  0  0  0  0  0  0
  -13.5095    3.5383   23.2548 C   0  0  0  0  0  0  0  0  0  0  0  0
  -12.4873    3.4845   25.3570 C   0  0  0  0  0  0  0  0  0  0  0  0
  -13.5943    3.4159   24.6250 C   0  0  0  0  0  0  0  0  0  0  0  0
   -6.3111    4.5417   28.1419 Cl  0  0  0  0  0  0  0  0  0  0  0  0
  4  7  1  0
  2  8  1  0
  6  9  1  0
  1 15  1  0
  1  2  2  0
  2  3  1  0
  3  6  2  0
  6  5  1  0
  5  4  2  0
  4  1  1  0
  9 10  2  0
 10 11  1  0
 11 12  2  0
 12 14  1  0
 14 13  2  0
 13  9  1  0
M  END
$$$$
