No_881-complexes_sdf/6BKW-FPZ/2024-09-17-14-21-01/
     RDKit          3D

 15 16  0  0  0  0  0  0  0  0999 V2000
   -7.2496    3.8871   27.4508 C   0  0  0  0  0  0  0  0  0  0  0  0
   -8.5096    4.0291   27.2770 C   0  0  2  0  0  0  0  0  0  0  0  0
   -9.3451    2.8786   26.9046 C   0  0  0  0  0  0  0  0  0  0  0  0
   -6.6893    2.5856   27.4759 N   0  0  0  0  0  0  0  0  0  0  0  0
   -7.4012    1.5331   27.2231 C   0  0  2  0  0  0  0  0  0  0  0  0
   -8.7264    1.6558   26.9999 C   0  0  0  0  0  0  0  0  0  0  0  0
   -9.0897    5.3805   27.2141 C   0  0  0  0  0  0  0  0  0  0  0  0
   -6.8071    0.3244   27.3632 N   0  0  0  0  0  0  0  0  0  0  0  0
  -10.2059    5.6895   27.1207 N   0  0  0  0  0  0  0  0  0  0  0  0
   -8.1820    6.4595   27.2383 N   0  0  0  0  0  0  0  0  0  0  0  0
   -5.4528    0.2370   27.7385 C   0  0  0  0  0  0  0  0  0  0  0  0
   -4.7677    1.1098   28.1192 C   0  0  0  0  0  0  0  0  0  0  0  0
   -5.4422    2.5511   27.9302 C   0  0  0  0  0  0  0  0  0  0  0  0
   -8.7092    7.7081   26.9967 C   0  0  0  0  0  0  0  0  0  0  0  0
  -11.1897    4.6384   27.2937 C   0  0  0  0  0  0  0  0  0  0  0  0
  2  1  1  6
  1  4  1  0
  4  5  1  0
  3  6  1  0
  5  6  1  1
  2  7  1  0
  5  8  1  0
  7  9  2  3
  7 10  1  0
  8 11  1  0
  4 13  1  0
 12 13  1  0
 10 14  1  0
  9 15  1  0
  2  3  1  0
 11 12  1  0
M  END
$$$$
