No_8760-complexes_sdf/6BKW-FPZ/2024-09-17-14-21-01/
     RDKit          3D

 22 25  0  0  0  0  0  0  0  0999 V2000
   -7.7129    4.2099   27.0854 C   0  0  0  0  0  0  0  0  0  0  0  0
   -8.9133    4.4736   27.0998 C   0  0  2  0  0  0  0  0  0  0  0  0
   -9.7135    3.9633   26.0300 C   0  0  0  0  0  0  0  0  0  0  0  0
   -6.8655    4.8824   28.1822 C   0  0  0  0  0  0  0  0  0  0  0  0
  -10.8856    4.5824   25.6430 C   0  0  0  0  0  0  0  0  0  0  0  0
   -7.6664    5.7849   28.7962 N   0  0  0  0  0  0  0  0  0  0  0  0
   -8.8934    5.5511   27.9459 C   0  0  0  0  0  0  0  0  0  0  0  0
  -11.7566    4.0566   24.6254 C   0  0  0  0  0  0  0  0  0  0  0  0
  -11.3129    2.8894   23.9740 C   0  0  0  0  0  0  0  0  0  0  0  0
  -10.1595    2.2702   24.3585 C   0  0  0  0  0  0  0  0  0  0  0  0
   -9.2169    2.7600   25.4831 C   0  0  0  0  0  0  0  0  0  0  0  0
   -9.7334    0.9802   23.7229 C   0  0  0  0  0  0  0  0  0  0  0  0
   -8.7572    0.4381   23.8742 O   0  0  0  0  0  0  0  0  0  0  0  0
  -10.5659    0.5744   22.6670 N   0  0  0  0  0  0  0  0  0  0  0  0
  -10.2647   -0.5840   21.8742 C   0  0  0  0  0  0  0  0  0  0  0  0
  -11.0694   -1.6692   22.3856 C   0  0  0  0  0  0  0  0  0  0  0  0
  -10.8200   -2.7626   21.8846 C   0  0  0  0  0  0  0  0  0  0  0  0
   -9.8699   -2.9935   20.7545 C   0  0  0  0  0  0  0  0  0  0  0  0
   -9.1486   -1.8914   20.3076 C   0  0  0  0  0  0  0  0  0  0  0  0
   -9.3142   -0.6028   20.9226 C   0  0  0  0  0  0  0  0  0  0  0  0
  -11.7694    1.3035   22.2288 C   0  0  0  0  0  0  0  0  0  0  0  0
  -12.0577    2.3946   22.9392 C   0  0  0  0  0  0  0  0  0  0  0  0
  1  2  1  0
  1  4  1  0
  4  6  2  0
  2  7  1  0
  6  7  1  0
 10 12  1  0
 12 13  2  0
 12 14  1  0
 14 15  1  0
 14 21  1  0
  9 22  1  0
  2  3  1  6
 22 21  1  0
 15 16  2  0
 16 17  1  0
 17 18  2  0
 18 19  1  0
 19 20  2  0
 20 15  1  0
  3  5  2  0
  5  8  1  0
  8  9  2  0
  9 10  1  0
 10 11  2  0
 11  3  1  0
M  END
$$$$
