No_8344-complexes_sdf/6BKW-FPZ/2024-09-17-14-21-01/
     RDKit          3D

 40 44  0  0  0  0  0  0  0  0999 V2000
   -7.7129    4.2099   27.0854 C   0  0  0  0  0  0  0  0  0  0  0  0
   -8.9133    4.4736   27.0998 C   0  0  0  0  0  0  0  0  0  0  0  0
   -9.4643    5.5426   27.7628 C   0  0  0  0  0  0  0  0  0  0  0  0
   -6.8373    4.9942   27.9785 C   0  0  0  0  0  0  0  0  0  0  0  0
   -7.3717    6.0428   28.6744 C   0  0  0  0  0  0  0  0  0  0  0  0
   -8.6869    6.3937   28.5345 C   0  0  0  0  0  0  0  0  0  0  0  0
   -9.8077    3.6185   26.2213 C   0  0  0  0  0  0  0  0  0  0  0  0
   -9.9184    4.0253   24.8835 C   0  0  0  0  0  0  0  0  0  0  0  0
  -10.6241    3.3348   23.9331 C   0  0  0  0  0  0  0  0  0  0  0  0
  -11.1761    2.1164   24.2285 C   0  0  0  0  0  0  0  0  0  0  0  0
  -10.3202    2.4125   26.5487 C   0  0  0  0  0  0  0  0  0  0  0  0
  -11.0334    1.6145   25.5906 C   0  0  0  0  0  0  0  0  0  0  0  0
  -10.5964    4.0104   22.6183 C   0  0  0  0  0  0  0  0  0  0  0  0
  -11.2924    5.2246   22.4747 C   0  0  0  0  0  0  0  0  0  0  0  0
  -10.1599    3.2379   21.5078 C   0  0  0  0  0  0  0  0  0  0  0  0
  -10.1671    1.8900   27.9371 C   0  0  0  0  0  0  0  0  0  0  0  0
  -10.1545    0.5225   28.1520 C   0  0  0  0  0  0  0  0  0  0  0  0
   -9.1117   -0.1962   27.6571 C   0  0  0  0  0  0  0  0  0  0  0  0
   -9.0073   -1.6079   27.9720 C   0  0  0  0  0  0  0  0  0  0  0  0
  -10.1002   -2.1249   28.7251 C   0  0  0  0  0  0  0  0  0  0  0  0
  -11.1608   -1.4209   29.1484 C   0  0  0  0  0  0  0  0  0  0  0  0
  -11.2038   -0.0531   28.9058 C   0  0  0  0  0  0  0  0  0  0  0  0
  -12.2442    0.6755   29.3266 O   0  0  0  0  0  0  0  0  0  0  0  0
  -13.4415    0.2322   29.6519 C   0  0  0  0  0  0  0  0  0  0  0  0
   -8.1050    0.3398   27.0006 F   0  0  0  0  0  0  0  0  0  0  0  0
  -10.1951    3.7759   20.2553 C   0  0  0  0  0  0  0  0  0  0  0  0
  -10.8038    5.0428   20.0730 C   0  0  0  0  0  0  0  0  0  0  0  0
  -11.3178    5.7435   21.1950 C   0  0  0  0  0  0  0  0  0  0  0  0
   -9.9853   -3.6184   29.0614 C   0  0  0  0  0  0  0  0  0  0  0  0
  -10.7686   -4.4192   29.9940 Cl  0  0  0  0  0  0  0  0  0  0  0  0
   -9.4885   -4.5479   27.6520 Cl  0  0  0  0  0  0  0  0  0  0  0  0
  -13.9636    0.8855   30.7036 C   0  0  0  0  0  0  0  0  0  0  0  0
  -14.8112    0.3469   31.5487 C   0  0  0  0  0  0  0  0  0  0  0  0
  -15.3709   -0.9004   31.1559 C   0  0  0  0  0  0  0  0  0  0  0  0
  -14.8412   -1.5809   30.0774 C   0  0  0  0  0  0  0  0  0  0  0  0
  -13.7898   -1.0096   29.3511 C   0  0  0  0  0  0  0  0  0  0  0  0
  -15.3679   -2.9208   29.7567 C   0  0  2  0  0  0  0  0  0  0  0  0
  -15.2073   -3.8753   30.5371 C   0  0  0  0  0  0  0  0  0  0  0  0
  -15.8725   -3.1156   28.4496 C   0  0  0  0  0  0  0  0  0  0  0  0
  -14.7889   -3.7228   31.7192 F   0  0  0  0  0  0  0  0  0  0  0  0
  2  7  1  0
  9 13  1  0
 11 16  1  0
 22 23  1  0
 23 24  1  0
 18 25  1  0
 20 29  1  0
 29 30  1  0
 29 31  1  0
 35 37  1  0
 37 38  1  0
 37 39  1  6
 38 40  1  0
 16 17  1  0
  1  2  2  0
  2  3  1  0
  3  6  2  0
  6  5  1  0
  5  4  2  0
  4  1  1  0
 17 18  2  0
 18 19  1  0
 19 20  2  0
 20 21  1  0
 21 22  2  0
 22 17  1  0
  7  8  2  0
  8  9  1  0
  9 10  2  0
 10 12  1  0
 12 11  2  0
 11  7  1  0
 24 32  2  0
 32 33  1  0
 33 34  2  0
 34 35  1  0
 35 36  2  0
 36 24  1  0
 13 14  2  0
 14 28  1  0
 28 27  2  0
 27 26  1  0
 26 15  2  0
 15 13  1  0
M  END
$$$$
