No_829-complexes_sdf/6BKW-FPZ/2024-09-17-14-21-01/
     RDKit          3D

 12 13  0  0  0  0  0  0  0  0999 V2000
   -7.9040    3.9820   27.1177 C   0  0  0  0  0  0  0  0  0  0  0  0
   -8.2057    2.8231   26.8733 C   0  0  0  0  0  0  0  0  0  0  0  0
   -8.7695    5.0740   26.7916 C   0  0  0  0  0  0  0  0  0  0  0  0
   -9.9618    4.7598   26.1630 C   0  0  0  0  0  0  0  0  0  0  0  0
   -7.3763    1.7038   27.3414 C   0  0  0  0  0  0  0  0  0  0  0  0
   -9.4134    2.4504   26.3004 C   0  0  0  0  0  0  0  0  0  0  0  0
  -10.2558    3.4522   25.9218 C   0  0  0  0  0  0  0  0  0  0  0  0
   -6.0833    1.9495   27.8845 C   0  0  0  0  0  0  0  0  0  0  0  0
   -5.2208    0.8744   28.2646 C   0  0  0  0  0  0  0  0  0  0  0  0
   -5.6605   -0.4094   28.1899 C   0  0  0  0  0  0  0  0  0  0  0  0
   -7.4706    0.2853   27.2905 C   0  0  0  0  0  0  0  0  0  0  0  0
   -6.8321   -0.6724   27.7451 C   0  0  0  0  0  0  0  0  0  0  0  0
  2  5  1  0
  1  2  2  0
  2  6  1  0
  6  7  2  0
  7  4  1  0
  4  3  2  0
  3  1  1  0
  5  8  2  0
  8  9  1  0
  9 10  2  0
 10 12  1  0
 12 11  2  0
 11  5  1  0
M  END
$$$$
