No_8110-complexes_sdf/6BKW-FPZ/2024-09-17-14-21-01/
     RDKit          3D

 29 32  0  0  0  0  0  0  0  0999 V2000
   -7.9040    3.9820   27.1177 C   0  0  0  0  0  0  0  0  0  0  0  0
   -8.2057    2.8231   26.8733 C   0  0  0  0  0  0  0  0  0  0  0  0
   -8.7695    5.0740   26.7916 C   0  0  0  0  0  0  0  0  0  0  0  0
   -9.9618    4.7598   26.1630 C   0  0  0  0  0  0  0  0  0  0  0  0
   -9.4200    2.4524   26.2850 C   0  0  0  0  0  0  0  0  0  0  0  0
  -10.2590    3.4815   25.9250 C   0  0  0  0  0  0  0  0  0  0  0  0
   -8.3837    6.4702   27.0872 C   0  0  0  0  0  0  0  0  0  0  0  0
   -8.3914    6.7863   28.2307 F   0  0  0  0  0  0  0  0  0  0  0  0
   -7.1442    6.7635   26.5141 F   0  0  0  0  0  0  0  0  0  0  0  0
   -9.2357    7.3478   26.4176 F   0  0  0  0  0  0  0  0  0  0  0  0
   -7.2820    1.6781   27.3295 C   0  0  0  0  0  0  0  0  0  0  0  0
   -6.5496    0.9520   26.6113 C   0  0  0  0  0  0  0  0  0  0  0  0
   -5.7013   -0.0467   27.2804 C   0  0  0  0  0  0  0  0  0  0  0  0
   -5.4758   -1.1909   26.9225 C   0  0  0  0  0  0  0  0  0  0  0  0
   -4.7094   -2.1115   27.6737 C   0  0  0  0  0  0  0  0  0  0  0  0
   -4.0890   -1.7344   28.8748 C   0  0  0  0  0  0  0  0  0  0  0  0
   -4.3708   -0.4165   29.3535 C   0  0  0  0  0  0  0  0  0  0  0  0
   -5.1378    0.4282   28.6312 C   0  0  0  0  0  0  0  0  0  0  0  0
   -3.8253    0.0356   30.6540 C   0  0  0  0  0  0  0  0  0  0  0  0
   -2.5746   -0.2363   30.9598 N   0  0  0  0  0  0  0  0  0  0  0  0
   -4.5767    0.5131   31.5552 O   0  0  0  0  0  0  0  0  0  0  0  0
  -11.5041    3.2117   25.1683 C   0  0  0  0  0  0  0  0  0  0  0  0
  -11.6279    2.0451   24.5143 C   0  0  0  0  0  0  0  0  0  0  0  0
  -12.7801    1.7537   23.7623 C   0  0  0  0  0  0  0  0  0  0  0  0
  -12.9102    0.5301   23.0856 C   0  0  0  0  0  0  0  0  0  0  0  0
  -11.8126   -0.3698   23.1448 C   0  0  0  0  0  0  0  0  0  0  0  0
  -10.6510   -0.0950   23.7901 C   0  0  0  0  0  0  0  0  0  0  0  0
  -10.5403    1.1650   24.4688 C   0  0  0  0  0  0  0  0  0  0  0  0
   -9.3485    1.3383   25.3551 C   0  0  0  0  0  0  0  0  0  0  0  0
  3  7  1  0
  7  8  1  0
  7  9  1  0
  7 10  1  0
  2 11  1  0
 11 12  2  3
 12 13  1  0
 17 19  1  0
 19 20  2  0
 19 21  1  0
 23 24  1  0
 24 25  2  0
 25 26  1  0
 26 27  2  0
 27 28  1  0
 13 14  2  0
 14 15  1  0
 15 16  2  0
 16 17  1  0
 17 18  2  0
 18 13  1  0
  1  2  2  0
  2  5  1  0
  6  4  1  0
  4  3  2  0
  3  1  1  0
  5  6  2  0
  6 22  1  0
 22 23  2  0
 23 28  1  0
 28 29  2  0
 29  5  1  0
M  END
$$$$
