No_8447-complexes_sdf/6BKW-FPZ/2024-09-17-14-21-01/
     RDKit          3D

 19 20  0  0  0  0  0  0  0  0999 V2000
   -7.7129    4.2099   27.0854 C   0  0  0  0  0  0  0  0  0  0  0  0
   -8.9133    4.4736   27.0998 C   0  0  0  0  0  0  0  0  0  0  0  0
   -9.7937    3.7368   26.2091 C   0  0  0  0  0  0  0  0  0  0  0  0
   -7.2496    2.8647   26.8496 C   0  0  0  0  0  0  0  0  0  0  0  0
   -8.1891    1.9790   26.3454 C   0  0  0  0  0  0  0  0  0  0  0  0
   -9.4252    2.4603   26.0121 C   0  0  0  0  0  0  0  0  0  0  0  0
   -9.3121    5.9663   27.2474 C   0  0  0  0  0  0  0  0  0  0  0  0
   -7.7466    0.5946   26.1401 C   0  0  0  0  0  0  0  0  0  0  0  0
   -7.9509    0.1236   25.0622 O   0  0  0  0  0  0  0  0  0  0  0  0
   -7.1092   -0.0488   27.1221 O   0  0  0  0  0  0  0  0  0  0  0  0
   -8.9047    6.8597   26.5117 F   0  0  0  0  0  0  0  0  0  0  0  0
   -8.8727    6.3300   28.6336 F   0  0  0  0  0  0  0  0  0  0  0  0
  -10.6862    5.9780   27.5445 F   0  0  0  0  0  0  0  0  0  0  0  0
   -6.9536   -1.3534   27.2473 C   0  0  0  0  0  0  0  0  0  0  0  0
   -5.7618   -1.8512   26.9996 C   0  0  0  0  0  0  0  0  0  0  0  0
   -5.5982   -2.9723   26.6404 C   0  0  0  0  0  0  0  0  0  0  0  0
   -8.0561   -2.0697   27.6257 C   0  0  0  0  0  0  0  0  0  0  0  0
   -7.9240   -3.4777   27.4984 C   0  0  0  0  0  0  0  0  0  0  0  0
   -6.6550   -3.9709   27.0757 C   0  0  0  0  0  0  0  0  0  0  0  0
  2  7  1  0
  5  8  1  0
  8  9  2  0
  8 10  1  0
  7 11  1  0
  7 12  1  0
  7 13  1  0
 10 14  1  0
  1  2  2  0
  2  3  1  0
  3  6  2  0
  6  5  1  0
  5  4  2  0
  4  1  1  0
 14 15  2  0
 15 16  1  0
 16 19  2  0
 19 18  1  0
 18 17  2  0
 17 14  1  0
M  END
$$$$
