No_8660-complexes_sdf/6BKW-FPZ/2024-09-17-14-21-01/
     RDKit          3D

  8  7  0  0  0  0  0  0  0  0999 V2000
   -7.9040    3.9820   27.1177 C   0  0  0  0  0  0  0  0  0  0  0  0
   -7.8663    4.8694   27.9238 C   0  0  0  0  0  0  0  0  0  0  0  0
   -7.4547    2.7080   27.4594 C   0  0  2  0  0  0  0  0  0  0  0  0
   -6.9358    5.8140   27.8323 C   0  0  0  0  0  0  0  0  0  0  0  0
   -6.3484    2.5053   27.9483 C   0  0  0  0  0  0  0  0  0  0  0  0
   -5.6772    1.1693   28.0818 C   0  0  0  0  0  0  0  0  0  0  0  0
   -4.3856    0.9912   28.5955 C   0  0  0  0  0  0  0  0  0  0  0  0
   -8.2974    1.5510   27.0852 C   0  0  0  0  0  0  0  0  0  0  0  0
  1  2  1  0
  1  3  1  0
  2  4  1  0
  3  5  1  0
  5  6  2  3
  6  7  1  0
  3  8  1  6
M  END
$$$$
