No_823-complexes_sdf/6BKW-FPZ/2024-09-17-14-21-01/
     RDKit          3D

 14 15  0  0  0  0  0  0  0  0999 V2000
   -7.7129    4.2099   27.0854 C   0  0  0  0  0  0  0  0  0  0  0  0
   -8.9133    4.4736   27.0998 C   0  0  0  0  0  0  0  0  0  0  0  0
   -9.7785    3.9136   27.0578 C   0  0  0  0  0  0  0  0  0  0  0  0
   -7.3514    2.8197   27.1958 C   0  0  0  0  0  0  0  0  0  0  0  0
   -8.4036    1.9410   27.1105 C   0  0  0  0  0  0  0  0  0  0  0  0
   -9.6711    2.4461   27.0888 C   0  0  0  0  0  0  0  0  0  0  0  0
   -9.0884    6.3505   27.0068 Cl  0  0  0  0  0  0  0  0  0  0  0  0
   -8.1496    0.4885   27.2372 C   0  0  0  0  0  0  0  0  0  0  0  0
   -6.9084    0.0570   27.4283 C   0  0  0  0  0  0  0  0  0  0  0  0
   -6.6297   -1.3239   27.4757 C   0  0  0  0  0  0  0  0  0  0  0  0
   -7.7244   -2.1702   27.2905 C   0  0  0  0  0  0  0  0  0  0  0  0
   -8.9725   -0.6516   27.1416 C   0  0  0  0  0  0  0  0  0  0  0  0
   -8.8736   -2.0027   27.1819 C   0  0  0  0  0  0  0  0  0  0  0  0
   -9.9753   -2.8396   27.0478 C   0  0  0  0  0  0  0  0  0  0  0  0
  2  7  1  0
  5  8  1  0
  8  9  2  0
  9 10  1  0
 10 11  2  0
  8 12  1  0
 11 12  1  0
 11 13  1  0
 13 14  1  0
  1  2  2  0
  2  3  1  0
  3  6  2  0
  6  5  1  0
  5  4  2  0
  4  1  1  0
M  END
$$$$
