No_8322-complexes_sdf/6BKW-FPZ/2024-09-17-14-21-01/
     RDKit          3D

 15 17  0  0  0  0  0  0  0  0999 V2000
   -7.2496    3.8871   27.4508 C   0  0  0  0  0  0  0  0  0  0  0  0
   -7.9379    4.9063   27.8518 C   0  0  0  0  0  0  0  0  0  0  0  0
   -9.3376    4.8647   27.7795 C   0  0  0  0  0  0  0  0  0  0  0  0
   -7.8544    2.6294   27.0414 C   0  0  0  0  0  0  0  0  0  0  0  0
   -9.2852    2.6570   27.0666 C   0  0  0  0  0  0  0  0  0  0  0  0
  -10.0126    3.7528   27.4890 C   0  0  0  0  0  0  0  0  0  0  0  0
  -10.1279    1.4820   26.7580 C   0  0  0  0  0  0  0  0  0  0  0  0
  -11.0447    1.1402   27.3554 C   0  0  0  0  0  0  0  0  0  0  0  0
  -11.7953   -0.0604   27.1581 C   0  0  0  0  0  0  0  0  0  0  0  0
  -12.9563   -0.4221   27.9599 C   0  0  0  0  0  0  0  0  0  0  0  0
  -13.3518    0.4977   28.9543 C   0  0  0  0  0  0  0  0  0  0  0  0
  -12.7165    1.6598   29.2313 C   0  0  0  0  0  0  0  0  0  0  0  0
  -11.6116    2.0311   28.5572 C   0  0  0  0  0  0  0  0  0  0  0  0
  -10.9409    3.3551   28.6030 C   0  0  0  0  0  0  0  0  0  0  0  0
   -7.2832    6.0981   28.0443 O   0  0  0  0  0  0  0  0  0  0  0  0
  2 15  1  0
  6 14  1  0
 14 13  2  0
  8  7  2  0
  7  5  1  0
  1  2  2  0
  2  3  1  0
  3  6  2  0
  6  5  1  0
  5  4  2  0
  4  1  1  0
  8  9  1  0
  9 10  2  0
 10 11  1  0
 11 12  2  0
 12 13  1  0
 13  8  1  0
M  END
$$$$
