No_8287-complexes_sdf/6BKW-FPZ/2024-09-17-14-21-01/
     RDKit          3D

 30 34  0  0  0  0  0  0  0  0999 V2000
   -7.9040    3.9820   27.1177 C   0  0  0  0  0  0  0  0  0  0  0  0
   -7.8663    4.8694   27.9238 C   0  0  0  0  0  0  0  0  0  0  0  0
   -7.4547    2.7080   27.4594 C   0  0  0  0  0  0  0  0  0  0  0  0
   -7.9337    1.5946   26.8372 C   0  0  0  0  0  0  0  0  0  0  0  0
   -8.9032    1.7881   25.8510 C   0  0  0  0  0  0  0  0  0  0  0  0
   -9.3787    2.9871   25.5530 C   0  0  0  0  0  0  0  0  0  0  0  0
   -8.9781    4.0300   26.2200 C   0  0  0  0  0  0  0  0  0  0  0  0
   -7.0491    4.9785   28.9506 N   0  0  0  0  0  0  0  0  0  0  0  0
   -8.3792    6.1716   27.5851 N   0  0  0  0  0  0  0  0  0  0  0  0
  -10.3485    3.0988   24.4124 C   0  0  0  0  0  0  0  0  0  0  0  0
  -10.3858    2.3513   23.3477 C   0  0  0  0  0  0  0  0  0  0  0  0
  -11.2082    2.5434   22.2043 C   0  0  0  0  0  0  0  0  0  0  0  0
  -12.0148    3.7214   22.2241 C   0  0  0  0  0  0  0  0  0  0  0  0
  -11.9889    4.5421   23.2970 C   0  0  0  0  0  0  0  0  0  0  0  0
  -11.1428    4.3816   24.3701 C   0  0  0  0  0  0  0  0  0  0  0  0
   -7.2115    0.3378   27.2231 C   0  0  0  0  0  0  0  0  0  0  0  0
   -6.8433   -0.3337   26.1675 F   0  0  0  0  0  0  0  0  0  0  0  0
   -8.1211   -0.4595   27.9239 F   0  0  0  0  0  0  0  0  0  0  0  0
   -6.1685    0.4949   27.9619 F   0  0  0  0  0  0  0  0  0  0  0  0
   -9.3269    6.3950   26.7915 C   0  0  0  0  0  0  0  0  0  0  0  0
   -9.6039    5.3283   26.0067 C   0  0  0  0  0  0  0  0  0  0  0  0
  -10.7519    5.3929   25.2289 N   0  0  0  0  0  0  0  0  0  0  0  0
  -11.3037    1.5416   21.1737 C   0  0  0  0  0  0  0  0  0  0  0  0
  -12.3027    0.5901   21.2873 C   0  0  0  0  0  0  0  0  0  0  0  0
  -12.3447   -0.3974   20.4034 C   0  0  0  0  0  0  0  0  0  0  0  0
  -13.2462   -1.3999   20.4142 C   0  0  0  0  0  0  0  0  0  0  0  0
  -14.2186   -1.3325   21.4308 C   0  0  0  0  0  0  0  0  0  0  0  0
  -14.2230   -0.3532   22.3349 C   0  0  0  0  0  0  0  0  0  0  0  0
  -13.2379    0.6380   22.3222 C   0  0  0  0  0  0  0  0  0  0  0  0
  -10.3694    1.6040   20.3302 O   0  0  0  0  0  0  0  0  0  0  0  0
  2  8  1  0
  6 10  1  0
  4 16  1  0
 16 17  1  0
 16 18  1  0
 16 19  1  0
 15 22  1  0
 21 22  1  0
 12 23  1  0
 23 24  1  0
 23 30  2  0
 24 25  2  0
 25 26  1  0
 26 27  2  0
 27 28  1  0
 28 29  2  0
 29 24  1  0
  1  3  1  0
  3  4  2  0
  4  5  1  0
  5  6  2  0
  6  7  1  0
 10 11  2  0
 11 12  1  0
 12 13  2  0
 13 14  1  0
 14 15  2  0
 15 10  1  0
  1  2  2  0
  2  9  1  0
  9 20  2  0
 20 21  1  0
 21  7  2  0
  7  1  1  0
M  END
$$$$
