No_8034-complexes_sdf/6BKW-FPZ/2024-09-17-14-21-01/
     RDKit          3D

 23 25  0  0  0  0  0  0  0  0999 V2000
   -7.7129    4.2099   27.0854 C   0  0  0  0  0  0  0  0  0  0  0  0
   -8.2112    3.0637   26.9225 C   0  0  0  0  0  0  0  0  0  0  0  0
   -9.4446    2.8304   26.1868 C   0  0  0  0  0  0  0  0  0  0  0  0
   -6.6388    4.5347   28.1122 C   0  0  0  0  0  0  0  0  0  0  0  0
   -9.9906    1.5071   26.0590 C   0  0  0  0  0  0  0  0  0  0  0  0
   -9.2953    0.4753   26.6145 C   0  0  0  0  0  0  0  0  0  0  0  0
   -8.1510    0.6270   27.3756 C   0  0  0  0  0  0  0  0  0  0  0  0
   -7.5308    1.9161   27.5497 C   0  0  0  0  0  0  0  0  0  0  0  0
   -8.6817    5.3819   26.9787 C   0  0  0  0  0  0  0  0  0  0  0  0
   -8.1782    6.7374   27.1339 C   0  0  0  0  0  0  0  0  0  0  0  0
   -6.4415    5.8563   28.5304 C   0  0  0  0  0  0  0  0  0  0  0  0
   -7.0989    6.9052   27.9684 C   0  0  0  0  0  0  0  0  0  0  0  0
   -9.0610    7.8118   26.7144 C   0  0  0  0  0  0  0  0  0  0  0  0
  -11.1875    1.3324   25.2508 C   0  0  0  0  0  0  0  0  0  0  0  0
  -12.3011    1.7791   25.6765 C   0  0  0  0  0  0  0  0  0  0  0  0
  -13.5251    1.6587   24.9262 C   0  0  0  0  0  0  0  0  0  0  0  0
  -13.4218    1.0357   23.6926 C   0  0  0  0  0  0  0  0  0  0  0  0
  -12.2150    0.5845   23.2205 C   0  0  0  0  0  0  0  0  0  0  0  0
  -11.0314    0.7448   23.9409 C   0  0  0  0  0  0  0  0  0  0  0  0
  -14.6308    0.8277   22.8657 C   0  0  0  0  0  0  0  0  0  0  0  0
  -15.7735    1.2438   23.2423 C   0  0  0  0  0  0  0  0  0  0  0  0
  -16.9372    1.0768   22.5122 C   0  0  0  0  0  0  0  0  0  0  0  0
  -18.2263    1.5200   22.9245 C   0  0  0  0  0  0  0  0  0  0  0  0
 10 13  1  0
  5 14  1  0
 17 20  1  0
 20 21  2  3
 21 22  1  0
 22 23  3  0
  2  1  1  0
  1  4  2  0
  4 11  1  0
 11 12  2  0
 12 10  1  0
 10  9  2  0
  9  1  1  0
  2  3  2  0
  3  5  1  0
  5  6  2  0
  6  7  1  0
  7  8  2  0
  8  2  1  0
 14 15  2  0
 15 16  1  0
 16 17  2  0
 17 18  1  0
 18 19  2  0
 19 14  1  0
M  END
$$$$
