No_8849-complexes_sdf/6BKW-FPZ/2024-09-17-14-21-01/
     RDKit          3D

 17 18  0  0  0  0  0  0  0  0999 V2000
   -7.7129    4.2099   27.0854 C   0  0  0  0  0  0  0  0  0  0  0  0
   -8.9133    4.4736   27.0998 C   0  0  2  0  0  0  0  0  0  0  0  0
   -9.7135    3.9633   26.0300 C   0  0  0  0  0  0  0  0  0  0  0  0
   -7.3002    3.3277   27.8539 C   0  0  0  0  0  0  0  0  0  0  0  0
   -9.5318    4.1658   24.8019 C   0  0  0  0  0  0  0  0  0  0  0  0
  -10.3321    3.6703   23.7435 C   0  0  0  0  0  0  0  0  0  0  0  0
   -6.7591    2.0993   27.2238 C   0  0  0  0  0  0  0  0  0  0  0  0
  -11.3702    2.8388   24.0910 C   0  0  0  0  0  0  0  0  0  0  0  0
  -10.8409    3.1970   26.2428 C   0  0  0  0  0  0  0  0  0  0  0  0
  -11.6790    2.6883   25.3668 C   0  0  0  0  0  0  0  0  0  0  0  0
   -7.6786    1.1106   26.8878 C   0  0  0  0  0  0  0  0  0  0  0  0
   -7.2110   -0.0622   26.3041 C   0  0  0  0  0  0  0  0  0  0  0  0
   -8.1912   -0.8476   25.6264 C   0  0  0  0  0  0  0  0  0  0  0  0
   -9.5378   -0.5233   25.7681 C   0  0  0  0  0  0  0  0  0  0  0  0
   -9.9551    0.5873   26.4532 C   0  0  0  0  0  0  0  0  0  0  0  0
   -8.9414    1.3924   27.1381 C   0  0  0  0  0  0  0  0  0  0  0  0
   -9.6216    5.5116   27.8962 C   0  0  0  0  0  0  0  0  0  0  0  0
  1  2  1  0
  2  3  1  0
  1  4  1  0
  4  7  1  0
  7 11  1  0
  2 17  1  6
  3  5  2  0
  5  6  1  0
  6  8  2  0
  8 10  1  0
 10  9  2  0
  9  3  1  0
 11 12  2  0
 12 13  1  0
 13 14  2  0
 14 15  1  0
 15 16  2  0
 16 11  1  0
M  END
$$$$
