No_880-complexes_sdf/6BKW-FPZ/2024-09-17-14-21-01/
     RDKit          3D

 18 19  0  0  0  0  0  0  0  0999 V2000
   -7.7129    4.2099   27.0854 C   0  0  0  0  0  0  0  0  0  0  0  0
   -8.9133    4.4736   27.0998 C   0  0  0  0  0  0  0  0  0  0  0  0
   -9.7937    3.7367   26.2091 C   0  0  0  0  0  0  0  0  0  0  0  0
   -6.8266    5.0441   28.0594 C   0  0  0  0  0  0  0  0  0  0  0  0
   -9.2322    2.6276   25.6126 C   0  0  0  0  0  0  0  0  0  0  0  0
   -7.9794    2.1924   25.9863 C   0  0  0  0  0  0  0  0  0  0  0  0
   -7.2411    2.9387   26.9009 C   0  0  0  0  0  0  0  0  0  0  0  0
  -10.0593    1.7685   24.7435 C   0  0  0  0  0  0  0  0  0  0  0  0
  -10.6600    2.2245   23.7631 C   0  0  0  0  0  0  0  0  0  0  0  0
  -11.2378    1.4890   22.7359 C   0  0  0  0  0  0  0  0  0  0  0  0
  -11.1249    0.0580   22.8504 C   0  0  0  0  0  0  0  0  0  0  0  0
   -9.8316    0.3472   24.7189 C   0  0  0  0  0  0  0  0  0  0  0  0
  -10.4058   -0.4600   23.8149 C   0  0  0  0  0  0  0  0  0  0  0  0
   -9.4623    5.8425   27.4652 C   0  0  0  0  0  0  0  0  0  0  0  0
   -9.1592    6.9455   26.6026 C   0  0  0  0  0  0  0  0  0  0  0  0
   -8.6268    8.0193   27.2380 O   0  0  0  0  0  0  0  0  0  0  0  0
   -9.0167    6.8007   25.3878 O   0  0  0  0  0  0  0  0  0  0  0  0
   -5.7049    2.3371   27.4139 Cl  0  0  0  0  0  0  0  0  0  0  0  0
  1  4  1  0
  5  8  1  0
  2 14  1  0
 14 15  1  0
 15 16  1  0
 15 17  2  0
  7 18  1  0
  8  9  2  0
  9 10  1  0
 10 11  2  0
 11 13  1  0
 13 12  2  0
 12  8  1  0
  1  2  2  0
  2  3  1  0
  3  5  2  0
  5  6  1  0
  6  7  2  0
  7  1  1  0
M  END
$$$$
