No_8213-complexes_sdf/6BKW-FPZ/2024-09-17-14-21-01/
     RDKit          3D

 23 25  0  0  0  0  0  0  0  0999 V2000
   -7.7129    4.2099   27.0854 C   0  0  0  0  0  0  0  0  0  0  0  0
   -7.7814    5.1722   27.8972 C   0  0  0  0  0  0  0  0  0  0  0  0
   -8.8776    3.8408   26.3416 C   0  0  0  0  0  0  0  0  0  0  0  0
   -9.9844    4.6492   26.4743 C   0  0  0  0  0  0  0  0  0  0  0  0
   -8.8033    6.1375   27.8728 C   0  0  0  0  0  0  0  0  0  0  0  0
   -9.9554    5.8280   27.1736 C   0  0  0  0  0  0  0  0  0  0  0  0
   -8.8740    2.6184   25.5584 C   0  0  0  0  0  0  0  0  0  0  0  0
   -9.7040    1.6620   26.0098 C   0  0  0  0  0  0  0  0  0  0  0  0
   -9.5239    0.4451   25.5235 C   0  0  0  0  0  0  0  0  0  0  0  0
  -10.2894   -0.6394   26.0332 C   0  0  0  0  0  0  0  0  0  0  0  0
  -11.2118   -0.3841   27.0951 C   0  0  0  0  0  0  0  0  0  0  0  0
  -11.3205    0.8687   27.6472 C   0  0  0  0  0  0  0  0  0  0  0  0
  -10.5370    1.9111   27.1974 C   0  0  0  0  0  0  0  0  0  0  0  0
   -8.6659    0.1213   24.4063 C   0  0  0  0  0  0  0  0  0  0  0  0
   -8.6042   -0.8419   23.6680 N   0  0  0  0  0  0  0  0  0  0  0  0
   -7.7949   -0.9595   22.6303 C   0  0  0  0  0  0  0  0  0  0  0  0
   -8.1107   -1.6224   21.5579 C   0  0  0  0  0  0  0  0  0  0  0  0
   -7.1939   -2.5804   20.9728 C   0  0  0  0  0  0  0  0  0  0  0  0
   -7.4876   -3.2011   19.7635 C   0  0  0  0  0  0  0  0  0  0  0  0
   -9.3313   -1.5283   20.9237 C   0  0  0  0  0  0  0  0  0  0  0  0
   -9.6420   -2.1687   19.7357 C   0  0  0  0  0  0  0  0  0  0  0  0
   -8.6859   -2.9923   19.1751 C   0  0  0  0  0  0  0  0  0  0  0  0
   -6.5713   -0.4867   22.8104 O   0  0  0  0  0  0  0  0  0  0  0  0
  3  7  1  0
  7  8  1  0
  9 14  1  0
 14 15  1  0
 15 16  1  0
 16 17  1  0
 16 23  2  0
 17 18  2  0
 18 19  1  0
 19 22  2  0
 22 21  1  0
 21 20  2  0
 20 17  1  0
  8  9  1  0
  9 10  2  0
 10 11  1  0
 11 12  2  0
 12 13  1  0
 13  8  2  0
  1  2  2  0
  2  5  1  0
  5  6  2  0
  6  4  1  0
  4  3  2  0
  3  1  1  0
M  END
$$$$
