No_8442-complexes_sdf/6BKW-FPZ/2024-09-17-14-21-01/
     RDKit          3D

 23 25  0  0  0  0  0  0  0  0999 V2000
   -7.9040    3.9820   27.1177 C   0  0  0  0  0  0  0  0  0  0  0  0
   -9.0711    4.3164   27.0630 C   0  0  0  0  0  0  0  0  0  0  0  0
   -9.9692    3.7224   26.1073 C   0  0  0  0  0  0  0  0  0  0  0  0
   -6.9787    4.6761   28.1003 C   0  0  0  0  0  0  0  0  0  0  0  0
  -11.1978    4.2793   25.7845 C   0  0  0  0  0  0  0  0  0  0  0  0
  -11.9722    3.7671   24.7671 C   0  0  0  0  0  0  0  0  0  0  0  0
  -11.4321    2.7931   23.9433 C   0  0  0  0  0  0  0  0  0  0  0  0
  -10.2070    2.2970   24.1835 C   0  0  0  0  0  0  0  0  0  0  0  0
   -9.3944    2.8078   25.1975 C   0  0  0  0  0  0  0  0  0  0  0  0
   -7.5087    5.6759   28.8863 C   0  0  0  0  0  0  0  0  0  0  0  0
   -9.4809    5.3980   27.8907 C   0  0  0  0  0  0  0  0  0  0  0  0
   -8.7253    6.0897   28.7200 C   0  0  0  0  0  0  0  0  0  0  0  0
   -9.6397    1.2075   23.3199 C   0  0  1  0  0  0  0  0  0  0  0  0
   -8.6839    0.4632   23.7288 N   0  0  0  0  0  0  0  0  0  0  0  0
   -8.0263   -0.4693   23.0016 C   0  0  0  0  0  0  0  0  0  0  0  0
  -10.3824    1.0308   22.3984 F   0  0  0  0  0  0  0  0  0  0  0  0
   -6.8434   -1.1159   23.5463 C   0  0  0  0  0  0  0  0  0  0  0  0
   -6.5966   -0.9447   24.8979 C   0  0  0  0  0  0  0  0  0  0  0  0
   -5.4810   -1.5371   25.5225 C   0  0  0  0  0  0  0  0  0  0  0  0
   -5.0459   -1.0363   26.7733 C   0  0  0  0  0  0  0  0  0  0  0  0
   -5.5708   -0.1921   27.3031 C   0  0  0  0  0  0  0  0  0  0  0  0
   -6.7897    0.4948   26.8488 C   0  0  0  0  0  0  0  0  0  0  0  0
   -7.1758    0.1307   25.6020 C   0  0  0  0  0  0  0  0  0  0  0  0
  2  3  1  0
  8 13  1  0
 13 14  1  0
 14 15  2  3
 13 16  1  1
 15 17  1  0
 17 18  1  0
 18 19  2  0
 19 20  1  0
 20 21  2  0
 21 22  1  0
 22 23  2  0
 23 18  1  0
  3  5  2  0
  5  6  1  0
  6  7  2  0
  7  8  1  0
  8  9  2  0
  9  3  1  0
  1  2  2  0
  2 11  1  0
 11 12  2  0
 12 10  1  0
 10  4  2  0
  4  1  1  0
M  END
$$$$
