No_820-complexes_sdf/6BKW-FPZ/2024-09-17-14-21-01/
     RDKit          3D

 27 31  0  0  0  0  0  0  0  0999 V2000
   -7.9040    3.9820   27.1177 C   0  0  0  0  0  0  0  0  0  0  0  0
   -7.8663    4.8694   27.9238 C   0  0  0  0  0  0  0  0  0  0  0  0
   -7.4547    2.7080   27.4594 C   0  0  0  0  0  0  0  0  0  0  0  0
   -7.9337    1.5946   26.8372 C   0  0  0  0  0  0  0  0  0  0  0  0
   -8.9032    1.7881   25.8510 C   0  0  0  0  0  0  0  0  0  0  0  0
   -9.3787    2.9871   25.5530 C   0  0  0  0  0  0  0  0  0  0  0  0
   -8.9781    4.0300   26.2200 C   0  0  0  0  0  0  0  0  0  0  0  0
   -8.2132    6.2312   27.6173 N   0  0  0  0  0  0  0  0  0  0  0  0
   -9.1696    6.5863   26.7528 C   0  0  0  0  0  0  0  0  0  0  0  0
   -9.5393    5.4067   25.9211 C   0  0  0  0  0  0  0  0  0  0  0  0
   -7.3285    0.2615   27.1217 C   0  0  0  0  0  0  0  0  0  0  0  0
   -6.0542    0.1237   27.6096 C   0  0  0  0  0  0  0  0  0  0  0  0
   -5.5193   -1.1175   27.9540 C   0  0  0  0  0  0  0  0  0  0  0  0
   -6.3447   -2.2117   27.8053 C   0  0  0  0  0  0  0  0  0  0  0  0
   -7.9299   -1.0088   27.1098 C   0  0  0  0  0  0  0  0  0  0  0  0
   -7.5433   -2.1351   27.4283 C   0  0  0  0  0  0  0  0  0  0  0  0
   -3.8822   -1.1426   28.5515 Cl  0  0  0  0  0  0  0  0  0  0  0  0
  -10.2231    3.0913   24.5243 F   0  0  0  0  0  0  0  0  0  0  0  0
   -8.3927   -3.3388   27.2734 C   0  0  0  0  0  0  0  0  0  0  0  0
   -9.5490   -3.2217   26.9694 C   0  0  0  0  0  0  0  0  0  0  0  0
  -10.4675   -4.3074   26.8910 C   0  0  0  0  0  0  0  0  0  0  0  0
  -11.8420   -4.1104   26.5167 C   0  0  0  0  0  0  0  0  0  0  0  0
  -12.2586   -2.8094   26.1898 C   0  0  0  0  0  0  0  0  0  0  0  0
  -11.4216   -1.7543   26.2053 C   0  0  0  0  0  0  0  0  0  0  0  0
  -10.0724   -1.9377   26.5945 C   0  0  0  0  0  0  0  0  0  0  0  0
   -9.2746   -0.8180   26.7231 N   0  0  0  0  0  0  0  0  0  0  0  0
   -7.8433   -4.4519   27.6392 F   0  0  0  0  0  0  0  0  0  0  0  0
  4 11  1  0
 13 17  1  0
  6 18  1  0
 19 27  1  0
  1  2  2  0
  2  8  1  0
  8  9  2  0
  9 10  1  0
 10  7  2  0
  1  3  1  0
  3  4  2  0
  4  5  1  0
  5  6  2  0
  6  7  1  0
  7  1  1  0
 16 19  2  0
 19 20  1  0
 25 26  1  0
 26 15  2  0
 11 12  2  0
 12 13  1  0
 13 14  2  0
 14 16  1  0
 16 15  1  0
 15 11  1  0
 20 21  2  0
 21 22  1  0
 22 23  2  0
 23 24  1  0
 24 25  2  0
 25 20  1  0
M  END
$$$$
