No_8153-complexes_sdf/6BKW-FPZ/2024-09-17-14-21-01/
     RDKit          3D

 10 10  0  0  0  0  0  0  0  0999 V2000
   -7.7129    4.2099   27.0854 C   0  0  0  0  0  0  0  0  0  0  0  0
   -8.9133    4.4736   27.0998 C   0  0  0  0  0  0  0  0  0  0  0  0
   -9.7135    3.9633   26.0300 C   0  0  0  0  0  0  0  0  0  0  0  0
   -6.8420    4.9760   28.0851 C   0  0  0  0  0  0  0  0  0  0  0  0
  -10.9164    3.4776   26.1172 C   0  0  0  0  0  0  0  0  0  0  0  0
  -11.6897    3.8137   27.2914 C   0  0  0  0  0  0  0  0  0  0  0  0
  -10.9876    4.2901   28.4232 C   0  0  0  0  0  0  0  0  0  0  0  0
   -9.6492    4.5388   28.3533 C   0  0  0  0  0  0  0  0  0  0  0  0
  -13.5090    3.4026   27.4150 Br  0  0  0  0  0  0  0  0  0  0  0  0
   -7.5504    5.9585   28.7500 C   0  0  0  0  0  0  0  0  0  0  0  0
  1  2  1  0
  1  4  1  0
  6  9  1  0
  4 10  1  0
  2  3  2  0
  3  5  1  0
  5  6  2  0
  6  7  1  0
  7  8  2  0
  8  2  1  0
M  END
$$$$
