No_8225-complexes_sdf/6BKW-FPZ/2024-09-17-14-21-01/
     RDKit          3D

 35 39  0  0  0  0  0  0  0  0999 V2000
   -7.7129    4.2099   27.0854 C   0  0  0  0  0  0  0  0  0  0  0  0
   -8.9133    4.4736   27.0998 C   0  0  0  0  0  0  0  0  0  0  0  0
   -9.7135    3.9633   26.0300 C   0  0  0  0  0  0  0  0  0  0  0  0
   -6.8655    4.8824   28.1822 C   0  0  0  0  0  0  0  0  0  0  0  0
   -9.2221    2.8459   25.3619 C   0  0  0  0  0  0  0  0  0  0  0  0
   -8.0164    2.2957   25.7889 C   0  0  0  0  0  0  0  0  0  0  0  0
   -7.3052    2.9474   26.8072 C   0  0  0  0  0  0  0  0  0  0  0  0
  -10.0330    2.1843   24.3790 C   0  0  0  0  0  0  0  0  0  0  0  0
   -9.7030    1.0090   23.9743 C   0  0  0  0  0  0  0  0  0  0  0  0
  -10.3930    0.3968   22.8930 C   0  0  0  0  0  0  0  0  0  0  0  0
  -11.4367    1.0884   22.2517 C   0  0  0  0  0  0  0  0  0  0  0  0
  -11.0241    2.8835   23.6319 C   0  0  0  0  0  0  0  0  0  0  0  0
  -11.7111    2.3615   22.6418 C   0  0  0  0  0  0  0  0  0  0  0  0
   -9.4620    5.8364   27.5767 C   0  0  0  0  0  0  0  0  0  0  0  0
  -12.0919    0.4582   21.2437 O   0  0  0  0  0  0  0  0  0  0  0  0
  -12.8563    1.0080   20.4649 C   0  0  0  0  0  0  0  0  0  0  0  0
  -13.7936    1.5724   20.3419 C   0  0  0  0  0  0  0  0  0  0  0  0
  -12.3050    0.5942   19.0119 C   0  0  0  0  0  0  0  0  0  0  0  0
  -14.5581    2.1094   19.2785 C   0  0  0  0  0  0  0  0  0  0  0  0
  -12.9471    1.0759   17.8531 C   0  0  0  0  0  0  0  0  0  0  0  0
  -14.0711    1.8271   17.9966 C   0  0  0  0  0  0  0  0  0  0  0  0
  -14.7026    2.2125   16.8832 F   0  0  0  0  0  0  0  0  0  0  0  0
   -6.0961    2.2311   27.3297 C   0  0  0  0  0  0  0  0  0  0  0  0
   -6.0881    1.0104   27.8330 N   0  0  0  0  0  0  0  0  0  0  0  0
   -5.1375    0.1692   27.7067 C   0  0  1  0  0  0  0  0  0  0  0  0
   -5.2146   -0.9056   28.6393 C   0  0  0  0  0  0  0  0  0  0  0  0
   -6.4488   -1.5674   28.7221 C   0  0  0  0  0  0  0  0  0  0  0  0
   -6.6126   -2.5572   29.6741 C   0  0  0  0  0  0  0  0  0  0  0  0
   -5.6008   -2.8198   30.6147 C   0  0  0  0  0  0  0  0  0  0  0  0
   -4.3948   -2.1993   30.5796 C   0  0  0  0  0  0  0  0  0  0  0  0
   -4.1937   -1.1819   29.6348 C   0  0  0  0  0  0  0  0  0  0  0  0
   -4.8360   -0.3430   26.3533 C   0  0  0  0  0  0  0  0  0  0  0  0
   -3.7472    0.9958   28.1269 C   0  0  0  0  0  0  0  0  0  0  0  0
   -2.9970   -0.3950   29.6455 C   0  0  0  0  0  0  0  0  0  0  0  0
   -2.9053    0.5398   28.8438 N   0  0  0  0  0  0  0  0  0  0  0  0
  1  4  1  0
  5  8  1  0
  2 14  1  0
 11 15  1  0
 15 16  1  0
 21 22  1  0
  7 23  1  0
 23 24  1  0
 24 25  1  0
 25 26  1  0
 25 32  1  6
 25 33  1  0
 31 34  1  0
 33 35  1  0
 34 35  1  0
  1  2  2  0
  2  3  1  0
  3  5  2  0
  5  6  1  0
  6  7  2  0
  7  1  1  0
 16 17  2  0
 17 19  1  0
 19 21  2  0
 21 20  1  0
 20 18  2  0
 18 16  1  0
 26 27  2  0
 27 28  1  0
 28 29  2  0
 29 30  1  0
 30 31  2  0
 31 26  1  0
  8  9  2  0
  9 10  1  0
 10 11  2  0
 11 13  1  0
 13 12  2  0
 12  8  1  0
M  END
$$$$
