No_8228-complexes_sdf/6BKW-FPZ/2024-09-17-14-21-01/
     RDKit          3D

 40 45  0  0  0  0  0  0  0  0999 V2000
   -7.2496    3.8871   27.4508 C   0  0  0  0  0  0  0  0  0  0  0  0
   -7.9379    4.9063   27.8518 C   0  0  0  0  0  0  0  0  0  0  0  0
   -9.3376    4.8647   27.7795 C   0  0  0  0  0  0  0  0  0  0  0  0
   -7.8544    2.6294   27.0414 C   0  0  0  0  0  0  0  0  0  0  0  0
   -9.2665    2.6175   27.0340 C   0  0  0  0  0  0  0  0  0  0  0  0
   -9.9111    1.3868   26.6335 C   0  0  0  0  0  0  0  0  0  0  0  0
   -9.9845    3.7153   27.4660 C   0  0  0  0  0  0  0  0  0  0  0  0
  -10.5442    0.7180   27.5742 C   0  0  0  0  0  0  0  0  0  0  0  0
  -11.1798   -0.5395   27.3817 C   0  0  0  0  0  0  0  0  0  0  0  0
  -11.0510   -1.0841   26.1883 C   0  0  0  0  0  0  0  0  0  0  0  0
   -9.6821    0.8096   25.3905 C   0  0  0  0  0  0  0  0  0  0  0  0
  -10.2916   -0.4408   25.1444 C   0  0  0  0  0  0  0  0  0  0  0  0
   -7.3401    6.0376   28.1628 F   0  0  0  0  0  0  0  0  0  0  0  0
   -8.9257    1.4938   24.3759 C   0  0  0  0  0  0  0  0  0  0  0  0
  -11.2971    3.6637   27.5259 F   0  0  0  0  0  0  0  0  0  0  0  0
  -11.9652   -1.1833   28.4834 C   0  0  0  0  0  0  0  0  0  0  0  0
  -12.9808   -0.6315   29.0187 C   0  0  0  0  0  0  0  0  0  0  0  0
  -13.5896   -1.1196   30.1652 C   0  0  0  0  0  0  0  0  0  0  0  0
  -11.4820   -2.4032   28.9898 C   0  0  0  0  0  0  0  0  0  0  0  0
  -12.0799   -2.9591   30.1266 C   0  0  0  0  0  0  0  0  0  0  0  0
  -13.1474   -2.2854   30.7013 C   0  0  0  0  0  0  0  0  0  0  0  0
  -13.8043   -2.9197   31.9075 C   0  0  1  0  0  0  0  0  0  0  0  0
  -14.9016   -1.8103   33.0340 I   0  0  0  0  0  0  0  0  0  0  0  0
   -9.7118    1.8435   23.1882 C   0  0  0  0  0  0  0  0  0  0  0  0
  -10.2398    3.1275   23.2980 C   0  0  0  0  0  0  0  0  0  0  0  0
  -10.9493    3.7049   22.2358 C   0  0  0  0  0  0  0  0  0  0  0  0
  -10.8920    3.0304   21.0026 C   0  0  0  0  0  0  0  0  0  0  0  0
   -9.5818    1.2424   21.9732 C   0  0  0  0  0  0  0  0  0  0  0  0
  -10.2098    1.8140   20.9135 C   0  0  0  0  0  0  0  0  0  0  0  0
   -8.8854   -0.0092   21.8137 C   0  0  0  0  0  0  0  0  0  0  0  0
   -9.3977   -1.0377   21.0211 C   0  0  0  0  0  0  0  0  0  0  0  0
   -8.6558   -2.1490   20.7548 C   0  0  0  0  0  0  0  0  0  0  0  0
   -7.4273   -2.3532   21.4308 C   0  0  0  0  0  0  0  0  0  0  0  0
   -6.9015   -1.3968   22.2640 C   0  0  0  0  0  0  0  0  0  0  0  0
   -7.5891   -0.2373   22.4614 C   0  0  0  0  0  0  0  0  0  0  0  0
  -14.4168   -4.2419   31.4800 C   0  0  0  0  0  0  0  0  0  0  0  0
  -12.3844   -3.2540   32.6949 C   0  0  0  0  0  0  0  0  0  0  0  0
  -11.7909   -4.2714   32.6168 C   0  0  0  0  0  0  0  0  0  0  0  0
  -12.4351   -5.4590   32.1459 C   0  0  0  0  0  0  0  0  0  0  0  0
  -13.6868   -5.3832   31.5018 C   0  0  0  0  0  0  0  0  0  0  0  0
  5  6  1  0
  2 13  1  0
 11 14  1  0
  7 15  1  0
  9 16  1  0
 21 22  1  0
 22 23  1  1
 14 24  1  0
 28 30  1  0
 22 36  1  0
 22 37  1  0
 37 38  2  0
 38 39  1  0
 36 40  1  0
 39 40  1  0
 24 25  2  0
 25 26  1  0
 26 27  2  0
 27 29  1  0
 29 28  2  0
 28 24  1  0
 16 17  2  0
 17 18  1  0
 18 21  2  0
 21 20  1  0
 20 19  2  0
 19 16  1  0
 30 31  2  0
 31 32  1  0
 32 33  2  0
 33 34  1  0
 34 35  2  0
 35 30  1  0
  1  2  2  0
  2  3  1  0
  3  7  2  0
  7  5  1  0
  5  4  2  0
  4  1  1  0
  6  8  2  0
  8  9  1  0
  9 10  2  0
 10 12  1  0
 12 11  2  0
 11  6  1  0
M  END
$$$$
