No_8882-complexes_sdf/6BKW-FPZ/2024-09-17-14-21-01/
     RDKit          3D

 24 26  0  0  0  0  0  0  0  0999 V2000
   -7.9040    3.9820   27.1177 C   0  0  2  0  0  0  0  0  0  0  0  0
   -9.0711    4.3164   27.0630 C   0  0  0  0  0  0  0  0  0  0  0  0
   -9.5294    5.4517   27.7215 C   0  0  0  0  0  0  0  0  0  0  0  0
   -7.4336    2.7132   26.5681 C   0  0  0  0  0  0  0  0  0  0  0  0
   -8.3353    1.8569   26.0442 C   0  0  0  0  0  0  0  0  0  0  0  0
   -9.6477    2.2853   25.9146 C   0  0  1  0  0  0  0  0  0  0  0  0
  -10.0346    3.4497   26.4483 C   0  0  2  0  0  0  0  0  0  0  0  0
   -7.8750    0.5509   25.5918 C   0  0  0  0  0  0  0  0  0  0  0  0
   -8.4236   -0.3220   25.9782 O   0  0  0  0  0  0  0  0  0  0  0  0
   -6.8802    4.6124   27.8157 F   0  0  0  0  0  0  0  0  0  0  0  0
   -6.8923    0.4769   24.8160 O   0  0  0  0  0  0  0  0  0  0  0  0
  -11.4282    3.8813   26.1950 C   0  0  0  0  0  0  0  0  0  0  0  0
  -11.9596    3.9950   25.0239 C   0  0  0  0  0  0  0  0  0  0  0  0
  -11.2021    3.7913   23.8502 C   0  0  0  0  0  0  0  0  0  0  0  0
  -11.4871    4.0728   22.7725 C   0  0  0  0  0  0  0  0  0  0  0  0
  -10.6105    4.0076   21.5627 C   0  0  0  0  0  0  0  0  0  0  0  0
   -9.9046    2.8164   21.4709 C   0  0  0  0  0  0  0  0  0  0  0  0
   -9.6795    2.1261   22.7130 C   0  0  0  0  0  0  0  0  0  0  0  0
  -10.3985    2.5420   23.8870 C   0  0  0  0  0  0  0  0  0  0  0  0
  -10.0734    2.2394   24.6081 N   0  0  0  0  0  0  0  0  0  0  0  0
  -10.7595    0.9073   24.4265 N   0  0  0  0  0  0  0  0  0  0  0  0
  -11.6689    0.2650   23.8707 C   0  0  0  0  0  0  0  0  0  0  0  0
  -12.2516    0.5412   23.0496 C   0  0  0  0  0  0  0  0  0  0  0  0
  -13.3491   -0.2713   22.4721 C   0  0  0  0  0  0  0  0  0  0  0  0
  1  2  1  0
  2  3  2  0
  1  4  1  0
  4  5  1  0
  6  5  1  6
  2  7  1  0
  6  7  1  0
  5  8  1  0
  8  9  2  0
  1 10  1  1
  8 11  1  0
  7 12  1  6
 12 13  2  0
 13 14  1  0
  6 20  1  0
 19 20  1  0
 20 21  1  0
 21 22  1  0
 22 23  2  3
 23 24  1  0
 14 15  2  0
 15 16  1  0
 16 17  2  0
 17 18  1  0
 18 19  2  0
 19 14  1  0
M  END
$$$$
