No_8394-complexes_sdf/6BKW-FPZ/2024-09-17-14-21-01/
     RDKit          3D

 32 36  0  0  0  0  0  0  0  0999 V2000
   -7.7129    4.2099   27.0854 C   0  0  0  0  0  0  0  0  0  0  0  0
   -8.2112    3.0637   26.9225 C   0  0  0  0  0  0  0  0  0  0  0  0
   -8.5108    5.3904   26.9436 C   0  0  0  0  0  0  0  0  0  0  0  0
   -9.7256    5.1955   26.3518 C   0  0  0  0  0  0  0  0  0  0  0  0
   -9.4995    2.8258   26.4878 C   0  0  0  0  0  0  0  0  0  0  0  0
  -10.2542    3.9691   26.2055 C   0  0  0  0  0  0  0  0  0  0  0  0
   -7.9135    6.7086   27.1885 C   0  0  0  0  0  0  0  0  0  0  0  0
   -7.3624    1.8198   27.2561 C   0  0  0  0  0  0  0  0  0  0  0  0
   -6.0561    1.9823   27.7522 C   0  0  0  0  0  0  0  0  0  0  0  0
   -5.2895    0.8175   28.0647 C   0  0  0  0  0  0  0  0  0  0  0  0
   -3.9998    0.8674   28.5979 C   0  0  0  0  0  0  0  0  0  0  0  0
   -5.9573   -0.4289   27.7871 C   0  0  0  0  0  0  0  0  0  0  0  0
   -7.2090   -0.5386   27.3172 C   0  0  0  0  0  0  0  0  0  0  0  0
   -7.9287    0.5994   27.0583 C   0  0  0  0  0  0  0  0  0  0  0  0
   -3.5033   -0.1936   29.2772 C   0  0  0  0  0  0  0  0  0  0  0  0
   -3.6096   -1.4012   28.9614 C   0  0  0  0  0  0  0  0  0  0  0  0
   -5.0768   -1.6015   28.4187 C   0  0  0  0  0  0  0  0  0  0  0  0
   -8.5917    7.8188   26.8275 N   0  0  0  0  0  0  0  0  0  0  0  0
   -6.8123    6.7933   27.7824 O   0  0  0  0  0  0  0  0  0  0  0  0
   -5.5849   -2.9618   28.2160 C   0  0  1  0  0  0  0  0  0  0  0  0
   -6.4876   -3.2429   28.6189 C   0  0  2  0  0  0  0  0  0  0  0  0
   -6.8540   -3.0538   29.9702 C   0  0  0  0  0  0  0  0  0  0  0  0
   -7.5777   -3.2144   30.6499 C   0  0  0  0  0  0  0  0  0  0  0  0
   -7.7306   -2.8052   32.1153 C   0  0  0  0  0  0  0  0  0  0  0  0
   -6.7280   -2.3988   32.6814 C   0  0  0  0  0  0  0  0  0  0  0  0
   -5.5713   -2.0613   31.9818 C   0  0  0  0  0  0  0  0  0  0  0  0
   -5.5465   -2.3542   30.5983 C   0  0  0  0  0  0  0  0  0  0  0  0
   -7.6096   -4.0079   27.9664 C   0  0  0  0  0  0  0  0  0  0  0  0
   -7.4940   -4.8211   27.1666 C   0  0  0  0  0  0  0  0  0  0  0  0
   -6.1350   -5.3006   26.7983 C   0  0  0  0  0  0  0  0  0  0  0  0
   -4.9535   -4.6104   26.6210 C   0  0  0  0  0  0  0  0  0  0  0  0
   -4.7105   -3.4909   27.1249 C   0  0  0  0  0  0  0  0  0  0  0  0
  3  7  1  0
  2  8  1  0
  7 18  1  0
  7 19  2  0
 20 17  1  6
 20 21  1  0
 21 22  1  1
 21 28  1  0
 28 29  2  0
 29 30  1  0
 30 31  2  0
 20 32  1  0
 31 32  1  0
 10 11  2  0
 11 15  1  0
 15 16  2  0
 16 17  1  0
 17 12  2  0
 22 23  2  0
 23 24  1  0
 24 25  2  0
 25 26  1  0
 26 27  2  0
 27 22  1  0
  8  9  2  0
  9 10  1  0
 10 12  1  0
 12 13  1  0
 13 14  2  0
 14  8  1  0
  1  2  2  0
  2  5  1  0
  5  6  2  0
  6  4  1  0
  4  3  2  0
  3  1  1  0
M  END
$$$$
