No_8896-complexes_sdf/6BKW-FPZ/2024-09-17-14-21-01/
     RDKit          3D

 15 16  0  0  0  0  0  0  0  0999 V2000
   -7.9040    3.9820   27.1177 C   0  0  0  0  0  0  0  0  0  0  0  0
   -7.8663    4.8694   27.9238 C   0  0  0  0  0  0  0  0  0  0  0  0
   -9.0501    3.8017   26.2617 C   0  0  0  0  0  0  0  0  0  0  0  0
  -10.0189    4.7608   26.3707 C   0  0  0  0  0  0  0  0  0  0  0  0
   -8.6973    5.9722   27.8968 C   0  0  0  0  0  0  0  0  0  0  0  0
   -9.8216    5.8946   27.1241 C   0  0  0  0  0  0  0  0  0  0  0  0
   -9.1445    2.6271   25.4265 C   0  0  0  0  0  0  0  0  0  0  0  0
   -9.9972    2.7053   24.3067 C   0  0  0  0  0  0  0  0  0  0  0  0
  -10.1490    1.5913   23.5400 C   0  0  0  0  0  0  0  0  0  0  0  0
   -9.3267    0.4241   23.7814 C   0  0  0  0  0  0  0  0  0  0  0  0
   -8.5036    0.4076   24.8662 C   0  0  0  0  0  0  0  0  0  0  0  0
   -8.3753    1.5006   25.7023 C   0  0  0  0  0  0  0  0  0  0  0  0
  -11.0097    1.6070   22.3451 C   0  0  0  0  0  0  0  0  0  0  0  0
  -11.1425    0.6309   21.5695 C   0  0  0  0  0  0  0  0  0  0  0  0
  -10.2905   -0.5963   21.8033 C   0  0  0  0  0  0  0  0  0  0  0  0
  3  7  1  0
  9 13  1  0
 13 14  2  3
 14 15  1  0
  1  2  2  0
  2  5  1  0
  5  6  2  0
  6  4  1  0
  4  3  2  0
  3  1  1  0
  7  8  2  0
  8  9  1  0
  9 10  2  0
 10 11  1  0
 11 12  2  0
 12  7  1  0
M  END
$$$$
