No_8958-complexes_sdf/6BKW-FPZ/2024-09-17-14-21-01/
     RDKit          3D

 16 17  0  0  0  0  0  0  0  0999 V2000
   -7.9040    3.9820   27.1177 C   0  0  0  0  0  0  0  0  0  0  0  0
   -8.2057    2.8231   26.8733 C   0  0  0  0  0  0  0  0  0  0  0  0
   -8.7695    5.0740   26.7916 C   0  0  0  0  0  0  0  0  0  0  0  0
   -8.4337    6.4678   27.0913 C   0  0  0  0  0  0  0  0  0  0  0  0
   -9.3742    2.4311   26.2346 C   0  0  0  0  0  0  0  0  0  0  0  0
  -10.2395    3.4267   25.8887 C   0  0  0  0  0  0  0  0  0  0  0  0
   -9.9567    4.7548   26.1374 C   0  0  0  0  0  0  0  0  0  0  0  0
   -8.5487    6.7970   28.2302 F   0  0  0  0  0  0  0  0  0  0  0  0
   -9.2267    7.3313   26.2905 F   0  0  0  0  0  0  0  0  0  0  0  0
   -7.0999    6.7109   26.8189 F   0  0  0  0  0  0  0  0  0  0  0  0
   -7.0867    1.8091   27.3635 C   0  0  0  0  0  0  0  0  0  0  0  0
   -5.8433    2.1691   27.8079 C   0  0  0  0  0  0  0  0  0  0  0  0
   -4.8817    1.1884   28.2058 C   0  0  0  0  0  0  0  0  0  0  0  0
   -5.2103   -0.1498   28.1263 C   0  0  0  0  0  0  0  0  0  0  0  0
   -7.3488    0.3934   27.2909 C   0  0  0  0  0  0  0  0  0  0  0  0
   -6.4586   -0.5024   27.7090 C   0  0  0  0  0  0  0  0  0  0  0  0
  3  4  1  0
  4  8  1  0
  4  9  1  0
  4 10  1  0
  2 11  1  0
 11 12  2  0
 12 13  1  0
 13 14  2  0
 14 16  1  0
 16 15  2  0
 15 11  1  0
  1  2  2  0
  2  5  1  0
  5  6  2  0
  6  7  1  0
  7  3  2  0
  3  1  1  0
M  END
$$$$
