No_8088-complexes_sdf/6BKW-FPZ/2024-09-17-14-21-01/
     RDKit          3D

 17 18  0  0  0  0  0  0  0  0999 V2000
   -7.7129    4.2099   27.0854 C   0  0  0  0  0  0  0  0  0  0  0  0
   -7.7814    5.1722   27.8972 C   0  0  0  0  0  0  0  0  0  0  0  0
   -8.8776    3.8408   26.3416 C   0  0  0  0  0  0  0  0  0  0  0  0
   -9.9844    4.6492   26.4743 C   0  0  0  0  0  0  0  0  0  0  0  0
   -8.8033    6.1375   27.8728 C   0  0  0  0  0  0  0  0  0  0  0  0
   -9.9554    5.8280   27.1736 C   0  0  0  0  0  0  0  0  0  0  0  0
   -8.8746    2.3672   25.4134 P   0  0  2  0  0  0  0  0  0  0  0  0
   -9.9464    1.4793   26.1592 O   0  0  0  0  0  0  0  0  0  0  0  0
   -7.6365    1.8240   25.6170 O   0  0  0  0  0  0  0  0  0  0  0  0
   -9.3624    2.8220   24.1432 O   0  0  0  0  0  0  0  0  0  0  0  0
  -10.0690    1.1571   27.4070 C   0  0  0  0  0  0  0  0  0  0  0  0
  -11.0456    1.1319   28.1312 C   0  0  0  0  0  0  0  0  0  0  0  0
  -11.7699    2.3856   28.3362 C   0  0  0  0  0  0  0  0  0  0  0  0
  -12.9696    2.4699   29.1310 C   0  0  0  0  0  0  0  0  0  0  0  0
  -13.4925    1.2765   29.6285 C   0  0  0  0  0  0  0  0  0  0  0  0
  -12.8594    0.0743   29.3317 C   0  0  0  0  0  0  0  0  0  0  0  0
  -11.6899   -0.0086   28.6182 C   0  0  0  0  0  0  0  0  0  0  0  0
  3  7  1  0
  7  8  1  0
  7  9  1  6
  7 10  2  0
  8 11  1  0
 11 12  1  0
 12 13  2  0
 13 14  1  0
 14 15  2  0
 15 16  1  0
 16 17  2  0
 17 12  1  0
  1  2  2  0
  2  5  1  0
  5  6  2  0
  6  4  1  0
  4  3  2  0
  3  1  1  0
M  END
$$$$
