No_8995-complexes_sdf/6BKW-FPZ/2024-09-17-14-21-01/
     RDKit          3D

 20 22  0  0  0  0  0  0  0  0999 V2000
   -7.2496    3.8871   27.4508 C   0  0  0  0  0  0  0  0  0  0  0  0
   -7.6161    2.7143   27.1523 C   0  0  0  0  0  0  0  0  0  0  0  0
   -8.8302    2.4659   26.5056 C   0  0  0  0  0  0  0  0  0  0  0  0
   -8.1584    5.0090   27.3234 C   0  0  0  0  0  0  0  0  0  0  0  0
   -9.3788    4.7965   26.7695 C   0  0  0  0  0  0  0  0  0  0  0  0
   -9.7028    3.5649   26.3276 C   0  0  0  0  0  0  0  0  0  0  0  0
   -6.7182    1.5519   27.3631 C   0  0  0  0  0  0  0  0  0  0  0  0
   -7.0500    0.2083   27.2450 C   0  0  0  0  0  0  0  0  0  0  0  0
   -6.2063   -0.7601   27.5521 C   0  0  0  0  0  0  0  0  0  0  0  0
   -4.9394   -0.4352   28.1041 C   0  0  0  0  0  0  0  0  0  0  0  0
   -4.5672    0.8802   28.2862 C   0  0  0  0  0  0  0  0  0  0  0  0
   -5.4068    1.8597   27.9844 C   0  0  0  0  0  0  0  0  0  0  0  0
   -7.9263    6.3069   27.7641 N   0  0  0  0  0  0  0  0  0  0  0  0
   -3.8723   -1.4129   28.4851 C   0  0  0  0  0  0  0  0  0  0  0  0
   -2.8052   -1.0994   28.9341 C   0  0  0  0  0  0  0  0  0  0  0  0
   -2.4770    0.3658   29.1390 C   0  0  0  0  0  0  0  0  0  0  0  0
   -3.2922    1.2381   28.8385 C   0  0  0  0  0  0  0  0  0  0  0  0
  -10.9991    3.3254   25.6341 C   0  0  0  0  0  0  0  0  0  0  0  0
  -11.0546    3.7145   24.3247 C   0  0  0  0  0  0  0  0  0  0  0  0
  -12.2621    3.5865   23.5619 C   0  0  0  0  0  0  0  0  0  0  0  0
  2  7  1  0
  4 13  1  0
  6 18  1  0
 18 19  2  3
 19 20  1  0
 11 17  1  0
 17 16  2  0
 16 15  1  0
 15 14  2  0
 14 10  1  0
  1  2  2  0
  2  3  1  0
  3  6  2  0
  6  5  1  0
  5  4  2  0
  4  1  1  0
  7  8  2  0
  8  9  1  0
  9 10  2  0
 10 11  1  0
 11 12  2  0
 12  7  1  0
M  END
$$$$
