No_8119-complexes_sdf/6BKW-FPZ/2024-09-17-14-21-01/
     RDKit          3D

 26 28  0  0  0  0  0  0  0  0999 V2000
   -7.9040    3.9820   27.1177 C   0  0  0  0  0  0  0  0  0  0  0  0
   -8.2057    2.8231   26.8733 C   0  0  0  0  0  0  0  0  0  0  0  0
   -7.4766    1.7477   27.4593 C   0  0  0  0  0  0  0  0  0  0  0  0
   -8.7468    5.1251   26.6967 C   0  0  0  0  0  0  0  0  0  0  0  0
   -8.4775    6.4967   27.1056 C   0  0  0  0  0  0  0  0  0  0  0  0
   -7.7919    0.3946   27.2728 C   0  0  0  0  0  0  0  0  0  0  0  0
   -9.0465    0.1789   26.6180 C   0  0  0  0  0  0  0  0  0  0  0  0
   -9.7757    1.1686   26.0370 C   0  0  0  0  0  0  0  0  0  0  0  0
   -9.3666    2.4927   26.2113 C   0  0  0  0  0  0  0  0  0  0  0  0
   -7.2248    6.7737   27.6932 C   0  0  0  0  0  0  0  0  0  0  0  0
   -6.8299    4.7530   27.9151 C   0  0  0  0  0  0  0  0  0  0  0  0
   -6.6330    5.9115   28.2641 N   0  0  0  0  0  0  0  0  0  0  0  0
   -7.0524   -0.6779   27.8743 C   0  0  0  0  0  0  0  0  0  0  0  0
   -5.7302   -0.4646   28.2075 C   0  0  0  0  0  0  0  0  0  0  0  0
   -4.9457   -1.4869   28.8582 C   0  0  0  0  0  0  0  0  0  0  0  0
   -5.5791   -2.6605   29.1457 C   0  0  0  0  0  0  0  0  0  0  0  0
   -7.4098   -1.9721   28.2678 C   0  0  0  0  0  0  0  0  0  0  0  0
   -6.8183   -2.8787   28.8895 C   0  0  0  0  0  0  0  0  0  0  0  0
  -10.9461    0.8085   25.2774 C   0  0  0  0  0  0  0  0  0  0  0  0
  -11.9875    0.9435   25.5319 N   0  0  0  0  0  0  0  0  0  0  0  0
  -12.4091    1.4934   26.5754 C   0  0  0  0  0  0  0  0  0  0  0  0
  -13.0299    1.4128   27.5351 C   0  0  0  0  0  0  0  0  0  0  0  0
  -13.2599    1.7361   28.5650 C   0  0  0  0  0  0  0  0  0  0  0  0
  -13.3592    2.3625   29.4988 C   0  0  0  0  0  0  0  0  0  0  0  0
  -12.8328    3.5171   30.1482 C   0  0  0  0  0  0  0  0  0  0  0  0
  -13.7823   -0.1004   27.5163 C   0  0  0  0  0  0  0  0  0  0  0  0
  6 13  1  0
  8 19  1  0
 19 20  1  0
 20 21  1  0
 21 22  2  3
 22 23  1  0
 23 24  3  0
 24 25  1  0
 22 26  1  0
  2  1  1  0
  2  3  2  0
  3  6  1  0
  6  7  2  0
  7  8  1  0
  8  9  2  0
  9  2  1  0
 13 14  2  0
 14 15  1  0
 15 16  2  0
 16 18  1  0
 18 17  2  0
 17 13  1  0
  1  4  2  0
  4  5  1  0
  5 10  2  0
 10 12  1  0
 12 11  2  0
 11  1  1  0
M  END
$$$$
