No_8279-complexes_sdf/6BKW-FPZ/2024-09-17-14-21-01/
     RDKit          3D

 24 26  0  0  0  0  0  0  0  0999 V2000
   -7.9040    3.9820   27.1177 C   0  0  0  0  0  0  0  0  0  0  0  0
   -8.2057    2.8231   26.8733 C   0  0  0  0  0  0  0  0  0  0  0  0
   -8.7463    4.9537   27.6708 C   0  0  0  0  0  0  0  0  0  0  0  0
   -8.3921    6.3606   27.8466 C   0  0  0  0  0  0  0  0  0  0  0  0
   -9.5482    2.3521   27.1946 C   0  0  0  0  0  0  0  0  0  0  0  0
  -10.4264    3.2507   27.7616 C   0  0  0  0  0  0  0  0  0  0  0  0
  -10.0702    4.5620   28.0189 C   0  0  0  0  0  0  0  0  0  0  0  0
   -8.2006    7.1383   26.5262 C   0  0  0  0  0  0  0  0  0  0  0  0
   -9.8680    0.9055   27.0470 C   0  0  0  0  0  0  0  0  0  0  0  0
  -10.6128    0.5527   25.9995 C   0  0  0  0  0  0  0  0  0  0  0  0
  -11.1957    1.1185   25.2083 C   0  0  0  0  0  0  0  0  0  0  0  0
  -11.8082    0.5967   23.9970 C   0  0  0  0  0  0  0  0  0  0  0  0
  -11.6923   -0.7798   23.8285 C   0  0  0  0  0  0  0  0  0  0  0  0
  -10.5006   -0.9628   25.7043 C   0  0  0  0  0  0  0  0  0  0  0  0
  -11.0775   -1.5292   24.6768 C   0  0  0  0  0  0  0  0  0  0  0  0
   -9.4116    0.1580   28.0889 O   0  0  0  0  0  0  0  0  0  0  0  0
   -7.5143    8.1820   26.7593 O   0  0  0  0  0  0  0  0  0  0  0  0
   -8.8507    6.8981   25.5939 O   0  0  0  0  0  0  0  0  0  0  0  0
  -11.7780    2.8163   28.2235 C   0  0  0  0  0  0  0  0  0  0  0  0
  -12.5655    3.7377   28.8297 C   0  0  0  0  0  0  0  0  0  0  0  0
  -13.8896    3.3142   29.3477 C   0  0  0  0  0  0  0  0  0  0  0  0
  -14.2398    2.0119   29.1667 C   0  0  0  0  0  0  0  0  0  0  0  0
  -13.4156    1.0940   28.5433 C   0  0  0  0  0  0  0  0  0  0  0  0
  -12.1872    1.5034   28.1331 C   0  0  0  0  0  0  0  0  0  0  0  0
  3  4  1  0
  4  8  1  0
  5  9  1  0
  9 10  1  0
  9 16  2  0
  8 17  2  0
  8 18  1  0
  6 19  1  0
 10 11  2  0
 11 12  1  0
 12 13  2  0
 13 15  1  0
 15 14  2  0
 14 10  1  0
  1  2  2  0
  2  5  1  0
  5  6  2  0
  6  7  1  0
  7  3  2  0
  3  1  1  0
 19 20  2  0
 20 21  1  0
 21 22  2  0
 22 23  1  0
 23 24  2  0
 24 19  1  0
M  END
$$$$
