No_8053-complexes_sdf/6BKW-FPZ/2024-09-17-14-21-01/
     RDKit          3D

 12 12  0  0  0  0  0  0  0  0999 V2000
   -7.9040    3.9820   27.1177 C   0  0  0  0  0  0  0  0  0  0  0  0
   -8.2057    2.8231   26.8733 C   0  0  0  0  0  0  0  0  0  0  0  0
   -8.7695    5.0740   26.7916 C   0  0  0  0  0  0  0  0  0  0  0  0
   -9.7466    4.9191   26.3183 C   0  0  0  0  0  0  0  0  0  0  0  0
   -7.4323    1.6829   27.3088 C   0  0  0  0  0  0  0  0  0  0  0  0
   -9.4190    2.3956   26.2892 C   0  0  0  0  0  0  0  0  0  0  0  0
  -10.2435    3.5432   25.9548 C   0  0  0  0  0  0  0  0  0  0  0  0
   -6.1243    1.8926   27.8465 C   0  0  0  0  0  0  0  0  0  0  0  0
   -5.2757    0.8037   28.2284 C   0  0  0  0  0  0  0  0  0  0  0  0
   -5.7510   -0.4691   28.1144 C   0  0  0  0  0  0  0  0  0  0  0  0
   -7.4903    0.2901   27.3065 N   0  0  0  0  0  0  0  0  0  0  0  0
   -8.9211    0.0581   26.8448 C   0  0  0  0  0  0  0  0  0  0  0  0
  2  5  1  0
  5  8  2  3
  8  9  1  0
  9 10  2  0
  5 11  1  0
 11 12  1  0
  1  2  2  0
  2  6  1  0
  6  7  2  0
  7  4  1  0
  4  3  2  0
  3  1  1  0
M  END
$$$$
