No_8767-complexes_sdf/6BKW-FPZ/2024-09-17-14-21-01/
     RDKit          3D

 14 16  0  0  0  0  0  0  0  0999 V2000
   -7.7129    4.2099   27.0854 C   0  0  0  0  0  0  0  0  0  0  0  0
   -7.7814    5.1722   27.8972 C   0  0  0  0  0  0  0  0  0  0  0  0
   -8.8776    3.8408   26.3416 C   0  0  0  0  0  0  0  0  0  0  0  0
   -8.9136    2.6330   25.5655 C   0  0  0  0  0  0  0  0  0  0  0  0
   -8.8361    6.1389   27.9032 C   0  0  0  0  0  0  0  0  0  0  0  0
   -9.9718    4.7048   26.3433 C   0  0  0  0  0  0  0  0  0  0  0  0
   -9.9205    5.8499   27.1013 C   0  0  0  0  0  0  0  0  0  0  0  0
   -9.8120    2.4147   24.5722 C   0  0  0  0  0  0  0  0  0  0  0  0
   -9.8353    1.2542   23.8608 C   0  0  0  0  0  0  0  0  0  0  0  0
  -10.7020    1.0718   22.7186 C   0  0  0  0  0  0  0  0  0  0  0  0
  -11.5854    2.1482   22.4544 C   0  0  0  0  0  0  0  0  0  0  0  0
  -11.5692    3.2870   23.1331 C   0  0  0  0  0  0  0  0  0  0  0  0
  -10.6331    3.4858   24.1937 C   0  0  0  0  0  0  0  0  0  0  0  0
  -10.8742    4.5182   25.2490 N   0  0  0  0  0  0  0  0  0  0  0  0
  3  4  2  0
  4  8  1  0
 13 14  1  0
 14  6  2  0
  8  9  2  0
  9 10  1  0
 10 11  2  0
 11 12  1  0
 12 13  2  0
 13  8  1  0
  1  2  2  0
  2  5  1  0
  5  7  2  0
  7  6  1  0
  6  3  1  0
  3  1  1  0
M  END
$$$$
