No_8546-complexes_sdf/6BKW-FPZ/2024-09-17-14-21-01/
     RDKit          3D

 15 16  0  0  0  0  0  0  0  0999 V2000
   -7.9040    3.9820   27.1177 C   0  0  0  0  0  0  0  0  0  0  0  0
   -8.2057    2.8231   26.8733 C   0  0  0  0  0  0  0  0  0  0  0  0
   -8.7695    5.0740   26.7916 C   0  0  0  0  0  0  0  0  0  0  0  0
   -9.9618    4.7598   26.1630 C   0  0  0  0  0  0  0  0  0  0  0  0
   -9.4200    2.4524   26.2849 C   0  0  0  0  0  0  0  0  0  0  0  0
  -10.2590    3.4815   25.9250 C   0  0  0  0  0  0  0  0  0  0  0  0
   -8.3837    6.4702   27.0872 C   0  0  0  0  0  0  0  0  0  0  0  0
   -7.7610    6.8612   28.1191 N   0  0  0  0  0  0  0  0  0  0  0  0
   -8.7123    7.4222   26.1970 N   0  0  0  0  0  0  0  0  0  0  0  0
   -7.2736    1.6738   27.2797 C   0  0  0  0  0  0  0  0  0  0  0  0
   -6.0077    1.9782   27.8320 C   0  0  0  0  0  0  0  0  0  0  0  0
   -5.1166    0.9100   28.1870 C   0  0  0  0  0  0  0  0  0  0  0  0
   -5.5044   -0.3829   28.0619 C   0  0  0  0  0  0  0  0  0  0  0  0
   -7.5868    0.3289   27.1852 C   0  0  0  0  0  0  0  0  0  0  0  0
   -6.7874   -0.6470   27.6185 C   0  0  0  0  0  0  0  0  0  0  0  0
  3  7  1  0
  7  8  2  0
  7  9  1  0
  2 10  1  0
 10 11  2  0
 11 12  1  0
 12 13  2  0
 13 15  1  0
 15 14  2  0
 14 10  1  0
  1  2  2  0
  2  5  1  0
  5  6  2  0
  6  4  1  0
  4  3  2  0
  3  1  1  0
M  END
$$$$
