No_8404-complexes_sdf/6BKW-FPZ/2024-09-17-14-21-01/
     RDKit          3D

  9  9  0  0  0  0  0  0  0  0999 V2000
   -7.9040    3.9820   27.1177 C   0  0  0  0  0  0  0  0  0  0  0  0
   -8.2057    2.8231   26.8733 C   0  0  0  0  0  0  0  0  0  0  0  0
   -8.7695    5.0740   26.7916 C   0  0  0  0  0  0  0  0  0  0  0  0
   -9.7466    4.9191   26.3183 C   0  0  0  0  0  0  0  0  0  0  0  0
   -9.4594    2.5453   26.2990 C   0  0  0  0  0  0  0  0  0  0  0  0
   -9.8610    1.1808   26.0237 C   0  0  0  0  0  0  0  0  0  0  0  0
  -10.2038    3.6264   25.9596 C   0  0  0  0  0  0  0  0  0  0  0  0
  -10.5766    0.5520   26.8844 C   0  0  0  0  0  0  0  0  0  0  0  0
  -10.9804   -0.8304   26.7585 C   0  0  0  0  0  0  0  0  0  0  0  0
  5  6  1  0
  6  8  2  3
  8  9  1  0
  1  2  2  0
  2  5  1  0
  5  7  2  0
  7  4  1  0
  4  3  2  0
  3  1  1  0
M  END
$$$$
