No_8755-complexes_sdf/6BKW-FPZ/2024-09-17-14-21-01/
     RDKit          3D

 24 25  0  0  0  0  0  0  0  0999 V2000
   -7.9040    3.9820   27.1177 C   0  0  0  0  0  0  0  0  0  0  0  0
   -8.2057    2.8231   26.8733 C   0  0  0  0  0  0  0  0  0  0  0  0
   -8.7695    5.0740   26.7916 C   0  0  0  0  0  0  0  0  0  0  0  0
   -8.4337    6.4678   27.0913 C   0  0  0  0  0  0  0  0  0  0  0  0
   -9.3742    2.4311   26.2346 C   0  0  0  0  0  0  0  0  0  0  0  0
  -10.2395    3.4267   25.8887 C   0  0  0  0  0  0  0  0  0  0  0  0
   -9.9567    4.7548   26.1374 C   0  0  0  0  0  0  0  0  0  0  0  0
   -7.8881    6.8714   28.1602 N   0  0  0  0  0  0  0  0  0  0  0  0
   -8.8350    7.3552   26.2295 O   0  0  0  0  0  0  0  0  0  0  0  0
   -7.2545    1.6772   27.2877 C   0  0  2  0  0  0  0  0  0  0  0  0
   -7.5759    0.3906   27.1807 N   0  0  0  0  0  0  0  0  0  0  0  0
   -8.6045   -0.0756   27.2514 C   0  0  0  0  0  0  0  0  0  0  0  0
   -6.2573    2.1112   27.9352 F   0  0  0  0  0  0  0  0  0  0  0  0
   -6.4791   -0.4870   27.5198 C   0  0  0  0  0  0  0  0  0  0  0  0
   -5.4260   -0.2431   27.4109 C   0  0  0  0  0  0  0  0  0  0  0  0
   -4.2345   -1.1793   27.5938 C   0  0  0  0  0  0  0  0  0  0  0  0
   -4.4878   -2.4214   27.7714 C   0  0  0  0  0  0  0  0  0  0  0  0
   -6.8378   -1.8005   27.9815 C   0  0  0  0  0  0  0  0  0  0  0  0
   -5.8460   -2.7634   28.0678 C   0  0  0  0  0  0  0  0  0  0  0  0
   -9.4641   -0.2895   26.7611 C   0  0  0  0  0  0  0  0  0  0  0  0
  -10.0837   -1.5224   26.4724 C   0  0  0  0  0  0  0  0  0  0  0  0
   -9.4672   -2.5896   27.0492 C   0  0  0  0  0  0  0  0  0  0  0  0
   -8.6656   -1.3353   28.3583 C   0  0  0  0  0  0  0  0  0  0  0  0
   -8.6958   -1.0814   29.8219 C   0  0  0  0  0  0  0  0  0  0  0  0
  3  4  1  0
  4  8  1  0
  4  9  2  0
  2 10  1  0
 10 11  1  0
 11 12  1  0
 10 13  1  1
 11 14  1  0
 12 20  2  3
 20 21  1  0
 21 22  2  0
 12 23  1  0
 23 24  1  0
 14 15  2  0
 15 16  1  0
 16 17  2  0
 17 19  1  0
 19 18  2  0
 18 14  1  0
  1  2  2  0
  2  5  1  0
  5  6  2  0
  6  7  1  0
  7  3  2  0
  3  1  1  0
M  END
$$$$
