No_8895-complexes_sdf/6BKW-FPZ/2024-09-17-14-21-01/
     RDKit          3D

 25 27  0  0  0  0  0  0  0  0999 V2000
   -7.2496    3.8871   27.4508 C   0  0  0  0  0  0  0  0  0  0  0  0
   -7.9379    4.9063   27.8518 C   0  0  1  0  0  0  0  0  0  0  0  0
   -7.5112    6.1898   27.6280 C   0  0  0  0  0  0  0  0  0  0  0  0
   -9.3085    4.6933   28.2930 C   0  0  0  0  0  0  0  0  0  0  0  0
   -6.9425    2.7755   27.7937 C   0  0  0  0  0  0  0  0  0  0  0  0
   -6.4783    1.5535   27.2627 C   0  0  0  0  0  0  0  0  0  0  0  0
   -7.3779    0.6458   26.8951 C   0  0  0  0  0  0  0  0  0  0  0  0
   -7.9218   -0.0411   27.7378 C   0  0  0  0  0  0  0  0  0  0  0  0
   -8.5410   -1.2577   27.5444 C   0  0  0  0  0  0  0  0  0  0  0  0
   -8.8752   -1.5938   26.2976 C   0  0  0  0  0  0  0  0  0  0  0  0
   -7.4525    0.1862   25.5414 C   0  0  0  0  0  0  0  0  0  0  0  0
   -8.2273   -0.8824   25.2612 C   0  0  0  0  0  0  0  0  0  0  0  0
   -8.0952    7.2232   26.9595 N   0  0  0  0  0  0  0  0  0  0  0  0
   -8.4465   -1.2879   23.8395 C   0  0  0  0  0  0  0  0  0  0  0  0
   -9.0497   -1.3672   23.0170 O   0  0  0  0  0  0  0  0  0  0  0  0
   -7.0711   -1.4032   23.3456 O   0  0  0  0  0  0  0  0  0  0  0  0
  -10.3765    5.3699   27.5196 C   0  0  0  0  0  0  0  0  0  0  0  0
  -10.2686    6.6922   27.0393 C   0  0  0  0  0  0  0  0  0  0  0  0
   -9.2110    7.4417   26.7446 C   0  0  0  0  0  0  0  0  0  0  0  0
  -11.6520    4.7942   27.8030 C   0  0  0  0  0  0  0  0  0  0  0  0
  -12.3135    4.1565   26.6887 C   0  0  0  0  0  0  0  0  0  0  0  0
  -13.6534    3.7518   26.8091 C   0  0  0  0  0  0  0  0  0  0  0  0
  -14.2335    3.7858   28.0649 C   0  0  0  0  0  0  0  0  0  0  0  0
  -13.5533    4.2518   29.1782 C   0  0  0  0  0  0  0  0  0  0  0  0
  -12.3157    4.7271   29.0148 C   0  0  0  0  0  0  0  0  0  0  0  0
  1  2  1  0
  2  3  1  6
  2  4  1  0
  1  5  2  3
  5  6  1  0
  6  7  1  0
  3 13  1  0
 12 14  1  0
 14 15  2  0
 14 16  1  0
  4 17  1  0
 17 18  2  0
 13 19  1  0
 18 19  1  0
 17 20  1  0
  7  8  2  0
  8  9  1  0
  9 10  2  0
 10 12  1  0
 12 11  2  0
 11  7  1  0
 20 21  2  0
 21 22  1  0
 22 23  2  0
 23 24  1  0
 24 25  2  0
 25 20  1  0
M  END
$$$$
