No_8446-complexes_sdf/6BKW-FPZ/2024-09-17-14-21-01/
     RDKit          3D

 14 14  0  0  0  0  0  0  0  0999 V2000
   -7.9040    3.9820   27.1177 C   0  0  0  0  0  0  0  0  0  0  0  0
   -7.8663    4.8694   27.9238 C   0  0  0  0  0  0  0  0  0  0  0  0
   -7.4547    2.7080   27.4594 C   0  0  0  0  0  0  0  0  0  0  0  0
   -7.9337    1.5946   26.8372 C   0  0  0  0  0  0  0  0  0  0  0  0
   -8.9032    1.7881   25.8510 C   0  0  0  0  0  0  0  0  0  0  0  0
   -9.3649    0.5983   25.1884 C   0  0  0  0  0  0  0  0  0  0  0  0
   -9.0250    4.0004   26.2241 C   0  0  0  0  0  0  0  0  0  0  0  0
   -9.3953    2.9422   25.5231 C   0  0  0  0  0  0  0  0  0  0  0  0
   -8.1327    6.1578   27.6896 F   0  0  0  0  0  0  0  0  0  0  0  0
   -9.6319   -0.4693   25.5997 N   0  0  0  0  0  0  0  0  0  0  0  0
   -9.7252   -0.7442   26.7360 C   0  0  0  0  0  0  0  0  0  0  0  0
   -9.4433    0.7777   23.7807 O   0  0  0  0  0  0  0  0  0  0  0  0
  -10.3571   -0.3284   27.6890 C   0  0  0  0  0  0  0  0  0  0  0  0
  -10.5526   -0.9067   29.0314 C   0  0  0  0  0  0  0  0  0  0  0  0
  1  2  1  0
  5  6  1  0
  2  9  1  0
  6 10  1  0
 10 11  1  0
  6 12  2  0
 11 13  2  3
 13 14  1  0
  1  3  2  0
  3  4  1  0
  4  5  2  0
  5  8  1  0
  8  7  2  0
  7  1  1  0
M  END
$$$$
