No_8003-complexes_sdf/6BKW-FPZ/2024-09-17-14-21-01/
     RDKit          3D

 15 17  0  0  0  0  0  0  0  0999 V2000
   -7.9040    3.9820   27.1177 C   0  0  0  0  0  0  0  0  0  0  0  0
   -8.2057    2.8231   26.8733 C   0  0  0  0  0  0  0  0  0  0  0  0
   -7.0130    4.3706   28.1140 C   0  0  0  0  0  0  0  0  0  0  0  0
   -9.3829    2.4374   26.1668 C   0  0  0  0  0  0  0  0  0  0  0  0
  -10.0975    3.4171   25.5988 C   0  0  0  0  0  0  0  0  0  0  0  0
   -9.7335    4.7745   25.7705 C   0  0  0  0  0  0  0  0  0  0  0  0
   -8.7317    5.1107   26.5933 C   0  0  0  0  0  0  0  0  0  0  0  0
   -8.3592    6.7293   26.8909 Cl  0  0  0  0  0  0  0  0  0  0  0  0
   -7.3265    1.7869   27.5627 C   0  0  0  0  0  0  0  0  0  0  0  0
   -7.7263    0.4296   27.4518 C   0  0  0  0  0  0  0  0  0  0  0  0
   -6.1262    2.0748   28.0732 C   0  0  0  0  0  0  0  0  0  0  0  0
   -5.9775    3.5040   28.2725 N   0  0  0  0  0  0  0  0  0  0  0  0
   -5.1340    1.2409   28.4440 C   0  0  0  0  0  0  0  0  0  0  0  0
   -5.4040   -0.1635   28.3626 C   0  0  0  0  0  0  0  0  0  0  0  0
   -6.7166   -0.5056   27.8713 C   0  0  0  0  0  0  0  0  0  0  0  0
  7  8  1  0
  9 10  2  0
 10 15  1  0
 15 14  2  0
 14 13  1  0
 13 11  2  0
  2  9  1  0
  9 11  1  0
 11 12  1  0
 12  3  2  0
  3  1  1  0
  1  2  2  0
  2  4  1  0
  4  5  2  0
  5  6  1  0
  6  7  2  0
  7  1  1  0
M  END
$$$$
