No_8445-complexes_sdf/6BKW-FPZ/2024-09-17-14-21-01/
     RDKit          3D

 40 45  0  0  0  0  0  0  0  0999 V2000
   -7.2496    3.8871   27.4508 C   0  0  0  0  0  0  0  0  0  0  0  0
   -7.6161    2.7143   27.1523 C   0  0  0  0  0  0  0  0  0  0  0  0
   -8.6212    2.2239   26.4074 C   0  0  0  0  0  0  0  0  0  0  0  0
   -8.2540    4.9237   27.1711 C   0  0  0  0  0  0  0  0  0  0  0  0
   -8.0481    6.2918   27.4896 C   0  0  0  0  0  0  0  0  0  0  0  0
   -9.5812    3.2432   26.0960 C   0  0  0  0  0  0  0  0  0  0  0  0
   -9.3651    4.5697   26.4537 C   0  0  0  0  0  0  0  0  0  0  0  0
   -8.9363    7.2465   27.1226 N   0  0  0  0  0  0  0  0  0  0  0  0
   -8.8397    0.8561   26.0903 C   0  0  1  0  0  0  0  0  0  0  0  0
   -8.4574    0.4460   24.9109 C   0  0  0  0  0  0  0  0  0  0  0  0
   -8.7013    0.8084   23.8149 C   0  0  0  0  0  0  0  0  0  0  0  0
   -8.2950    0.3052   22.4953 C   0  0  0  0  0  0  0  0  0  0  0  0
   -7.3404   -0.7617   22.5764 C   0  0  0  0  0  0  0  0  0  0  0  0
   -6.9023   -1.2221   23.7829 C   0  0  0  0  0  0  0  0  0  0  0  0
   -7.3738   -0.6882   24.9797 C   0  0  0  0  0  0  0  0  0  0  0  0
   -6.9279    6.6198   28.0809 O   0  0  0  0  0  0  0  0  0  0  0  0
   -8.3426    0.1500   27.2681 C   0  0  0  0  0  0  0  0  0  0  0  0
  -10.3323    0.6230   25.9490 C   0  0  0  0  0  0  0  0  0  0  0  0
  -11.0573    0.0121   26.5579 C   0  0  0  0  0  0  0  0  0  0  0  0
  -10.5083   -0.7737   27.7453 C   0  0  0  0  0  0  0  0  0  0  0  0
   -9.1697   -0.6830   28.0610 C   0  0  0  0  0  0  0  0  0  0  0  0
  -11.4075   -1.6374   28.5538 C   0  0  0  0  0  0  0  0  0  0  0  0
  -10.8820   -2.5124   29.3364 C   0  0  0  0  0  0  0  0  0  0  0  0
  -11.6872   -3.2747   30.2318 C   0  0  0  0  0  0  0  0  0  0  0  0
  -11.1167   -4.1511   31.1814 C   0  0  0  0  0  0  0  0  0  0  0  0
   -9.7208   -4.2792   31.2227 C   0  0  0  0  0  0  0  0  0  0  0  0
   -8.9089   -3.5523   30.4074 C   0  0  0  0  0  0  0  0  0  0  0  0
   -9.4241   -2.6761   29.5823 C   0  0  0  0  0  0  0  0  0  0  0  0
   -8.6161   -1.6816   28.8057 C   0  0  0  0  0  0  0  0  0  0  0  0
   -7.2630   -1.8324   28.7376 N   0  0  0  0  0  0  0  0  0  0  0  0
   -6.3972   -2.3432   28.4475 C   0  0  0  0  0  0  0  0  0  0  0  0
   -5.5281   -2.8685   28.9656 C   0  0  0  0  0  0  0  0  0  0  0  0
   -5.2308   -2.7446   30.2854 C   0  0  0  0  0  0  0  0  0  0  0  0
   -5.8000   -1.6232   30.9393 C   0  0  1  0  0  0  0  0  0  0  0  0
   -5.4371   -1.0799   32.2722 C   0  0  0  0  0  0  0  0  0  0  0  0
   -6.7815   -0.9701   30.0945 C   0  0  0  0  0  0  0  0  0  0  0  0
   -4.2841   -0.2450   32.3232 C   0  0  0  0  0  0  0  0  0  0  0  0
   -6.1869   -1.4552   33.3834 C   0  0  0  0  0  0  0  0  0  0  0  0
   -7.3103   -2.0736   33.4217 C   0  0  0  0  0  0  0  0  0  0  0  0
   -3.0190   -0.7833   31.9427 C   0  0  0  0  0  0  0  0  0  0  0  0
  4  5  1  0
  5  8  1  0
  9  3  1  1
  9 10  1  0
  5 16  2  0
  9 17  1  0
  9 18  1  0
 19 20  1  0
 29 30  1  0
 30 31  1  0
 32 33  1  0
 34 35  1  6
 30 36  1  0
 34 36  1  0
 35 37  1  0
 35 38  1  0
 38 39  1  0
 37 40  1  0
 31 32  1  0
 33 34  1  0
 17 21  1  0
 19 18  1  0
 23 24  1  0
 24 25  2  0
 25 26  1  0
 26 27  2  0
 27 28  1  0
  1  2  2  0
  2  3  1  0
  3  6  2  0
  6  7  1  0
  7  4  2  0
  4  1  1  0
 10 11  2  0
 11 12  1  0
 12 13  2  0
 13 14  1  0
 14 15  2  0
 15 10  1  0
 20 21  2  0
 21 29  1  0
 29 28  2  0
 28 23  1  0
 23 22  2  0
 22 20  1  0
M  END
$$$$
