No_8246-complexes_sdf/6BKW-FPZ/2024-09-17-14-21-01/
     RDKit          3D

 33 36  0  0  0  0  0  0  0  0999 V2000
   -7.7129    4.2099   27.0854 C   0  0  0  0  0  0  0  0  0  0  0  0
   -8.2112    3.0637   26.9225 C   0  0  0  0  0  0  0  0  0  0  0  0
   -8.5108    5.3904   26.9436 C   0  0  0  0  0  0  0  0  0  0  0  0
   -9.7256    5.1955   26.3518 C   0  0  0  0  0  0  0  0  0  0  0  0
   -7.4704    1.8386   27.3272 C   0  0  0  0  0  0  0  0  0  0  0  0
   -9.4948    2.8714   26.4765 C   0  0  0  0  0  0  0  0  0  0  0  0
  -10.2383    3.9754   26.1836 C   0  0  0  0  0  0  0  0  0  0  0  0
   -6.1035    2.0086   27.7264 C   0  0  0  0  0  0  0  0  0  0  0  0
   -5.3366    0.8544   28.1147 C   0  0  0  0  0  0  0  0  0  0  0  0
   -5.9308   -0.3780   28.0152 C   0  0  0  0  0  0  0  0  0  0  0  0
   -7.6762    0.4446   27.2746 C   0  0  0  0  0  0  0  0  0  0  0  0
   -7.1304   -0.5476   27.6735 C   0  0  0  0  0  0  0  0  0  0  0  0
   -7.9398    6.7423   27.1480 C   0  0  0  0  0  0  0  0  0  0  0  0
   -8.6451    7.8361   26.8214 N   0  0  0  0  0  0  0  0  0  0  0  0
   -6.7784    6.8727   27.7957 N   0  0  0  0  0  0  0  0  0  0  0  0
   -3.9225    1.1213   28.5762 C   0  0  0  0  0  0  0  0  0  0  0  0
   -3.0621    0.2367   28.4777 N   0  0  0  0  0  0  0  0  0  0  0  0
   -2.1840    0.0595   27.3814 C   0  0  1  0  0  0  0  0  0  0  0  0
   -2.8848   -0.7746   29.4923 C   0  0  1  0  0  0  0  0  0  0  0  0
   -1.8928   -1.6755   29.4480 C   0  0  0  0  0  0  0  0  0  0  0  0
   -1.2571   -0.9295   27.2406 C   0  0  0  0  0  0  0  0  0  0  0  0
   -1.0479   -1.7307   28.3462 C   0  0  0  0  0  0  0  0  0  0  0  0
   -2.4291    0.9357   26.3495 N   0  0  0  0  0  0  0  0  0  0  0  0
   -3.5992   -0.6303   30.6547 N   0  0  0  0  0  0  0  0  0  0  0  0
   -4.0550   -1.1271   31.5257 C   0  0  0  0  0  0  0  0  0  0  0  0
   -4.1868   -2.2645   31.6339 C   0  0  0  0  0  0  0  0  0  0  0  0
   -4.8861   -2.9883   32.7562 C   0  0  0  0  0  0  0  0  0  0  0  0
   -5.5300   -2.3955   33.3089 C   0  0  0  0  0  0  0  0  0  0  0  0
   -5.6973   -0.9311   33.4435 C   0  0  0  0  0  0  0  0  0  0  0  0
   -4.9554   -0.2745   32.4495 C   0  0  0  0  0  0  0  0  0  0  0  0
   -6.3894   -2.9818   34.6201 C   0  0  0  0  0  0  0  0  0  0  0  0
   -6.0290   -4.2050   34.8766 O   0  0  0  0  0  0  0  0  0  0  0  0
   -7.3160   -2.3933   35.1514 O   0  0  0  0  0  0  0  0  0  0  0  0
  2  5  1  0
  3 13  1  0
 13 14  1  0
 13 15  1  0
  9 16  1  0
 16 17  1  0
 17 18  1  0
 17 19  1  0
 18 21  1  0
 20 22  1  0
 18 23  1  6
 19 24  1  1
 24 25  1  0
 28 31  1  0
 31 32  2  0
 31 33  1  0
 21 22  1  0
 20 19  1  0
  1  2  2  0
  2  6  1  0
  6  7  2  0
  7  4  1  0
  4  3  2  0
  3  1  1  0
  5  8  2  0
  8  9  1  0
  9 10  2  0
 10 12  1  0
 12 11  2  0
 11  5  1  0
 25 26  2  0
 26 27  1  0
 27 28  2  0
 28 29  1  0
 29 30  2  0
 30 25  1  0
M  END
$$$$
