No_8806-complexes_sdf/6BKW-FPZ/2024-09-17-14-21-01/
     RDKit          3D

 13 14  0  0  0  0  0  0  0  0999 V2000
   -7.9040    3.9820   27.1177 C   0  0  0  0  0  0  0  0  0  0  0  0
   -7.8663    4.8694   27.9238 C   0  0  0  0  0  0  0  0  0  0  0  0
   -9.0501    3.8017   26.2617 C   0  0  0  0  0  0  0  0  0  0  0  0
   -9.1826    2.7026   25.3575 C   0  0  0  0  0  0  0  0  0  0  0  0
   -8.6940    6.0131   27.8614 C   0  0  0  0  0  0  0  0  0  0  0  0
  -10.1138    4.6733   26.4644 C   0  0  0  0  0  0  0  0  0  0  0  0
   -9.9850    5.5451   27.3341 C   0  0  0  0  0  0  0  0  0  0  0  0
  -10.0852    1.8378   25.6624 C   0  0  0  0  0  0  0  0  0  0  0  0
  -10.9103    1.6581   26.2373 C   0  0  0  0  0  0  0  0  0  0  0  0
  -11.6929    0.3956   26.4860 C   0  0  0  0  0  0  0  0  0  0  0  0
  -11.3527   -0.5948   25.6187 C   0  0  0  0  0  0  0  0  0  0  0  0
   -9.7782    0.5151   24.7415 C   0  0  0  0  0  0  0  0  0  0  0  0
  -10.4591   -0.5580   24.7960 C   0  0  0  0  0  0  0  0  0  0  0  0
  3  4  1  0
  4  8  1  0
  1  2  2  0
  2  5  1  0
  5  7  2  0
  7  6  1  0
  6  3  2  0
  3  1  1  0
  8  9  2  0
  9 10  1  0
 10 11  2  0
 11 13  1  0
 13 12  2  0
 12  8  1  0
M  END
$$$$
