No_8790-complexes_sdf/6BKW-FPZ/2024-09-17-14-21-01/
     RDKit          3D

 17 19  0  0  0  0  0  0  0  0999 V2000
   -7.7129    4.2099   27.0854 C   0  0  0  0  0  0  0  0  0  0  0  0
   -7.7814    5.1722   27.8972 C   0  0  0  0  0  0  0  0  0  0  0  0
   -7.3155    2.9699   27.6145 C   0  0  0  0  0  0  0  0  0  0  0  0
   -7.9010    1.7962   27.2023 C   0  0  0  0  0  0  0  0  0  0  0  0
   -9.0217    1.7658   27.1545 C   0  0  0  0  0  0  0  0  0  0  0  0
   -9.8825    2.8607   26.7054 C   0  0  0  0  0  0  0  0  0  0  0  0
   -8.8815    3.9665   26.3736 C   0  0  0  0  0  0  0  0  0  0  0  0
   -9.8802    0.4205   27.1164 C   0  0  0  0  0  0  0  0  0  0  0  0
  -10.9551    0.4483   27.8524 C   0  0  0  0  0  0  0  0  0  0  0  0
  -11.6998   -0.7733   28.0927 C   0  0  0  0  0  0  0  0  0  0  0  0
  -11.1566   -1.9170   27.6162 C   0  0  0  0  0  0  0  0  0  0  0  0
   -9.3533   -0.7865   26.8251 C   0  0  0  0  0  0  0  0  0  0  0  0
   -9.9904   -1.9298   27.0143 C   0  0  0  0  0  0  0  0  0  0  0  0
   -9.8041    5.1137   25.9270 C   0  0  0  0  0  0  0  0  0  0  0  0
   -8.2759    6.5050   27.4461 N   0  0  0  0  0  0  0  0  0  0  0  0
   -9.3049    6.4292   26.4891 C   0  0  0  0  0  0  0  0  0  0  0  0
   -6.7215    5.6038   28.6460 O   0  0  0  0  0  0  0  0  0  0  0  0
  1  2  1  0
  5  8  1  0
  7 14  1  0
  2 15  1  0
 14 16  1  0
  2 17  2  0
 16 15  1  0
  1  3  2  0
  3  4  1  0
  4  5  2  0
  5  6  1  0
  6  7  2  0
  7  1  1  0
  8  9  2  0
  9 10  1  0
 10 11  2  0
 11 13  1  0
 13 12  2  0
 12  8  1  0
M  END
$$$$
