No_8901-complexes_sdf/6BKW-FPZ/2024-09-17-14-21-01/
     RDKit          3D

 21 22  0  0  0  0  0  0  0  0999 V2000
   -7.2496    3.8871   27.4508 C   0  0  0  0  0  0  0  0  0  0  0  0
   -8.5096    4.0291   27.2770 C   0  0  0  0  0  0  0  0  0  0  0  0
   -9.3502    2.8685   26.8763 C   0  0  0  0  0  0  0  0  0  0  0  0
   -6.6288    2.5513   27.4938 C   0  0  0  0  0  0  0  0  0  0  0  0
   -7.4365    1.4714   27.2032 C   0  0  0  0  0  0  0  0  0  0  0  0
   -8.7772    1.6579   26.9338 C   0  0  0  0  0  0  0  0  0  0  0  0
   -9.2907    5.2679   27.2511 C   0  0  0  0  0  0  0  0  0  0  0  0
   -8.6422    6.2295   26.7152 F   0  0  0  0  0  0  0  0  0  0  0  0
   -9.4905    5.7463   28.6111 F   0  0  0  0  0  0  0  0  0  0  0  0
  -10.4972    5.2095   26.7358 F   0  0  0  0  0  0  0  0  0  0  0  0
   -6.7675    0.2008   27.1567 C   0  0  0  0  0  0  0  0  0  0  0  0
   -7.1318   -0.7856   27.4932 C   0  0  0  0  0  0  0  0  0  0  0  0
   -6.4347   -2.0422   27.5309 C   0  0  0  0  0  0  0  0  0  0  0  0
   -5.1302   -2.0041   27.0582 C   0  0  0  0  0  0  0  0  0  0  0  0
   -4.5738   -0.8318   26.6139 C   0  0  0  0  0  0  0  0  0  0  0  0
   -5.3739    0.3398   26.6825 C   0  0  0  0  0  0  0  0  0  0  0  0
   -3.1761   -0.6879   26.1472 C   0  0  0  0  0  0  0  0  0  0  0  0
   -2.1911   -0.3652   27.0336 N   0  0  0  0  0  0  0  0  0  0  0  0
   -2.1976    0.8205   27.7147 C   0  0  0  0  0  0  0  0  0  0  0  0
   -1.9204   -1.5029   27.9850 C   0  0  0  0  0  0  0  0  0  0  0  0
   -9.7325    0.3218   26.5070 Cl  0  0  0  0  0  0  0  0  0  0  0  0
  2  7  1  0
  7  8  1  0
  7  9  1  0
  7 10  1  0
  5 11  1  0
 15 17  1  0
 17 18  1  0
 18 19  1  0
 18 20  1  0
  6 21  1  0
 11 12  2  0
 12 13  1  0
 13 14  2  0
 14 15  1  0
 15 16  2  0
 16 11  1  0
  1  2  2  0
  2  3  1  0
  3  6  2  0
  6  5  1  0
  5  4  2  0
  4  1  1  0
M  END
$$$$
