No_8098-complexes_sdf/6BKW-FPZ/2024-09-17-14-21-01/
     RDKit          3D

 32 35  0  0  0  0  0  0  0  0999 V2000
   -7.7129    4.2099   27.0854 C   0  0  0  0  0  0  0  0  0  0  0  0
   -8.2112    3.0637   26.9225 C   0  0  0  0  0  0  0  0  0  0  0  0
   -8.5108    5.3904   26.9436 C   0  0  0  0  0  0  0  0  0  0  0  0
   -9.7256    5.1955   26.3518 C   0  0  0  0  0  0  0  0  0  0  0  0
   -9.4995    2.8258   26.4878 C   0  0  0  0  0  0  0  0  0  0  0  0
  -10.2542    3.9691   26.2055 C   0  0  0  0  0  0  0  0  0  0  0  0
   -7.9468    6.6176   27.1669 N   0  0  0  0  0  0  0  0  0  0  0  0
   -7.2175    2.0408   27.3142 N   0  0  0  0  0  0  0  0  0  0  0  0
   -7.4521    0.7048   27.1356 C   0  0  1  0  0  0  0  0  0  0  0  0
   -6.3935   -0.1314   27.5952 C   0  0  0  0  0  0  0  0  0  0  0  0
   -5.3494    0.2220   27.9653 C   0  0  1  0  0  0  0  0  0  0  0  0
   -5.0919    1.7205   28.1096 C   0  0  0  0  0  0  0  0  0  0  0  0
   -5.9635    2.5333   27.7634 C   0  0  0  0  0  0  0  0  0  0  0  0
   -4.2093   -0.6635   28.4456 C   0  0  0  0  0  0  0  0  0  0  0  0
   -3.2249   -0.4697   28.8284 C   0  0  0  0  0  0  0  0  0  0  0  0
   -2.1480   -1.3739   29.2992 C   0  0  0  0  0  0  0  0  0  0  0  0
   -2.4376   -2.6547   29.2137 C   0  0  0  0  0  0  0  0  0  0  0  0
   -4.5223   -2.0740   28.4251 C   0  0  0  0  0  0  0  0  0  0  0  0
   -3.6571   -3.0132   28.7826 C   0  0  0  0  0  0  0  0  0  0  0  0
   -8.6997    7.7704   27.0784 C   0  0  0  0  0  0  0  0  0  0  0  0
  -11.5731    3.7647   25.5713 C   0  0  0  0  0  0  0  0  0  0  0  0
  -11.7023    3.8086   24.3576 O   0  0  0  0  0  0  0  0  0  0  0  0
  -12.6264    3.5465   26.3730 N   0  0  0  0  0  0  0  0  0  0  0  0
  -13.9868    3.4699   25.8613 C   0  0  0  0  0  0  0  0  0  0  0  0
  -14.8729    4.0097   26.5473 C   0  0  0  0  0  0  0  0  0  0  0  0
  -14.7139    4.3799   27.9950 C   0  0  0  0  0  0  0  0  0  0  0  0
  -13.3254    4.3444   28.4143 C   0  0  0  0  0  0  0  0  0  0  0  0
  -12.4282    4.0781   27.6782 C   0  0  0  0  0  0  0  0  0  0  0  0
   -8.5841    0.2670   26.7459 N   0  0  0  0  0  0  0  0  0  0  0  0
   -8.8971   -0.7842   26.5676 C   0  0  0  0  0  0  0  0  0  0  0  0
   -9.5524   -1.4976   26.2584 C   0  0  0  0  0  0  0  0  0  0  0  0
   -9.5839   -2.9643   26.2076 C   0  0  0  0  0  0  0  0  0  0  0  0
  3  7  1  0
  2  8  1  0
  8  9  1  0
 10 11  1  0
  8 13  1  0
 12 13  1  0
 11 14  1  1
  7 20  1  0
  6 21  1  0
 21 22  2  0
 21 23  1  0
 23 24  1  0
 25 26  1  0
 23 28  1  0
 27 28  1  0
  9 29  1  0
 29 30  2  3
 30 31  1  0
 31 32  2  0
 24 25  1  0
 26 27  1  0
  9 10  1  1
 11 12  1  0
 14 15  2  0
 15 16  1  0
 16 17  2  0
 17 19  1  0
 19 18  2  0
 18 14  1  0
  1  2  2  0
  2  5  1  0
  5  6  2  0
  6  4  1  0
  4  3  2  0
  3  1  1  0
M  END
$$$$
