No_8961-complexes_sdf/6BKW-FPZ/2024-09-17-14-21-01/
     RDKit          3D

 24 27  0  0  0  0  0  0  0  0999 V2000
   -7.9040    3.9820   27.1177 C   0  0  0  0  0  0  0  0  0  0  0  0
   -8.2057    2.8231   26.8733 C   0  0  0  0  0  0  0  0  0  0  0  0
   -7.0130    4.3706   28.1140 C   0  0  0  0  0  0  0  0  0  0  0  0
   -9.3829    2.4374   26.1668 C   0  0  0  0  0  0  0  0  0  0  0  0
  -10.0975    3.4171   25.5988 C   0  0  0  0  0  0  0  0  0  0  0  0
   -9.7335    4.7745   25.7705 C   0  0  0  0  0  0  0  0  0  0  0  0
   -8.7317    5.1107   26.5933 C   0  0  0  0  0  0  0  0  0  0  0  0
   -8.3983    6.4679   26.8933 C   0  0  0  0  0  0  0  0  0  0  0  0
   -7.3346    6.7850   27.7126 C   0  0  0  0  0  0  0  0  0  0  0  0
   -6.7763    5.7820   28.3880 C   0  0  0  0  0  0  0  0  0  0  0  0
   -7.5271    1.7900   27.4553 F   0  0  0  0  0  0  0  0  0  0  0  0
  -11.2202    3.1057   24.6799 C   0  0  0  0  0  0  0  0  0  0  0  0
  -11.3536    3.3660   23.5698 C   0  0  0  0  0  0  0  0  0  0  0  0
  -12.3934    3.1325   22.6925 C   0  0  0  0  0  0  0  0  0  0  0  0
  -12.3570    2.4922   25.3137 C   0  0  0  0  0  0  0  0  0  0  0  0
  -13.4782    2.2065   24.5906 C   0  0  0  0  0  0  0  0  0  0  0  0
  -13.4813    2.5487   23.2618 C   0  0  0  0  0  0  0  0  0  0  0  0
   -9.6524    1.0069   25.8557 C   0  0  0  0  0  0  0  0  0  0  0  0
   -9.4956    0.6029   24.5865 C   0  0  0  0  0  0  0  0  0  0  0  0
   -8.9265   -0.2433   24.3366 C   0  0  0  0  0  0  0  0  0  0  0  0
   -8.6475   -0.6846   22.8972 C   0  0  0  0  0  0  0  0  0  0  0  0
   -9.2638    0.0440   21.8807 C   0  0  0  0  0  0  0  0  0  0  0  0
  -10.0615    1.1227   22.2487 C   0  0  0  0  0  0  0  0  0  0  0  0
  -10.1455    1.4786   23.6274 C   0  0  0  0  0  0  0  0  0  0  0  0
  2 11  1  0
  5 12  1  0
  4 18  1  0
 18 19  1  0
 12 13  2  0
 13 14  1  0
 14 17  2  0
 17 16  1  0
 16 15  2  0
 15 12  1  0
 19 20  2  0
 20 21  1  0
 21 22  2  0
 22 23  1  0
 23 24  2  0
 24 19  1  0
  1  3  1  0
  3 10  2  0
 10  9  1  0
  9  8  2  0
  8  7  1  0
  1  2  2  0
  2  4  1  0
  4  5  2  0
  5  6  1  0
  6  7  2  0
  7  1  1  0
M  END
$$$$
