No_8550-complexes_sdf/6BKW-FPZ/2024-09-17-14-21-01/
     RDKit          3D

 21 23  0  0  0  0  0  0  0  0999 V2000
   -7.9040    3.9820   27.1177 C   0  0  0  0  0  0  0  0  0  0  0  0
   -7.8663    4.8694   27.9238 C   0  0  0  0  0  0  0  0  0  0  0  0
   -9.0491    3.8523   26.2542 C   0  0  0  0  0  0  0  0  0  0  0  0
   -8.7661    5.9491   27.9690 C   0  0  0  0  0  0  0  0  0  0  0  0
   -9.9295    4.8502   26.2323 C   0  0  0  0  0  0  0  0  0  0  0  0
   -9.8077    5.9288   27.0933 C   0  0  0  0  0  0  0  0  0  0  0  0
   -8.9047    2.6822   25.3193 C   0  0  0  0  0  0  0  0  0  0  0  0
   -9.7185    2.7486   24.3380 N   0  0  0  0  0  0  0  0  0  0  0  0
  -10.7181    2.1491   24.0214 C   0  0  0  0  0  0  0  0  0  0  0  0
  -11.4513    2.3771   22.8347 C   0  0  0  0  0  0  0  0  0  0  0  0
  -11.2528    1.0573   24.8297 C   0  0  0  0  0  0  0  0  0  0  0  0
  -12.4010    0.3784   24.4675 C   0  0  0  0  0  0  0  0  0  0  0  0
  -10.9983    3.4749   21.9318 C   0  0  0  0  0  0  0  0  0  0  0  0
  -13.0169    0.7208   23.2701 C   0  0  0  0  0  0  0  0  0  0  0  0
  -12.5760    1.6947   22.4894 C   0  0  0  0  0  0  0  0  0  0  0  0
   -8.5941    1.5565   25.8273 O   0  0  0  0  0  0  0  0  0  0  0  0
  -10.9986    4.7439   22.3931 C   0  0  0  0  0  0  0  0  0  0  0  0
  -10.4338    3.1497   20.6804 C   0  0  0  0  0  0  0  0  0  0  0  0
   -9.9890    4.1776   19.8540 C   0  0  0  0  0  0  0  0  0  0  0  0
  -10.5433    5.8359   21.5236 C   0  0  0  0  0  0  0  0  0  0  0  0
  -10.1057    5.4746   20.2801 C   0  0  0  0  0  0  0  0  0  0  0  0
  3  7  1  0
  7  8  1  0
  8  9  1  0
 10 13  1  0
  7 16  2  0
  1  2  2  0
  2  4  1  0
  4  6  2  0
  6  5  1  0
  5  3  2  0
  3  1  1  0
 13 17  2  0
 17 20  1  0
 20 21  2  0
 21 19  1  0
 19 18  2  0
 18 13  1  0
  9 10  2  0
 10 15  1  0
 15 14  2  0
 14 12  1  0
 12 11  2  0
 11  9  1  0
M  END
$$$$
