No_8794-complexes_sdf/6BKW-FPZ/2024-09-17-14-21-01/
     RDKit          3D

  9  9  0  0  0  0  0  0  0  0999 V2000
   -7.2496    3.8871   27.4508 C   0  0  0  0  0  0  0  0  0  0  0  0
   -7.9379    4.9063   27.8518 C   0  0  1  0  0  0  0  0  0  0  0  0
   -7.5112    6.1898   27.6280 C   0  0  0  0  0  0  0  0  0  0  0  0
   -9.4044    4.7330   27.8015 C   0  0  0  0  0  0  0  0  0  0  0  0
   -7.6918    2.5968   27.9026 C   0  0  0  0  0  0  0  0  0  0  0  0
   -9.0781    2.2804   27.6915 C   0  0  0  0  0  0  0  0  0  0  0  0
   -9.9269    3.4147   28.0700 C   0  0  2  0  0  0  0  0  0  0  0  0
  -11.2663    3.1580   28.5370 C   0  0  0  0  0  0  0  0  0  0  0  0
  -12.1942    4.1230   28.7160 C   0  0  0  0  0  0  0  0  0  0  0  0
  1  2  1  0
  2  3  1  6
  2  4  1  0
  1  5  1  0
  5  6  1  0
  4  7  1  0
  6  7  1  0
  7  8  1  6
  8  9  2  0
M  END
$$$$
