No_8470-complexes_sdf/6BKW-FPZ/2024-09-17-14-21-01/
     RDKit          3D

 21 23  0  0  0  0  0  0  0  0999 V2000
   -7.9040    3.9820   27.1177 C   0  0  0  0  0  0  0  0  0  0  0  0
   -7.8663    4.8694   27.9238 C   0  0  0  0  0  0  0  0  0  0  0  0
   -9.0501    3.8017   26.2617 C   0  0  0  0  0  0  0  0  0  0  0  0
   -9.1826    2.7026   25.3575 C   0  0  0  0  0  0  0  0  0  0  0  0
   -8.6940    6.0131   27.8614 C   0  0  0  0  0  0  0  0  0  0  0  0
   -9.9755    4.8547   26.2361 C   0  0  0  0  0  0  0  0  0  0  0  0
   -9.7463    5.9398   27.0364 C   0  0  0  0  0  0  0  0  0  0  0  0
   -8.6850    1.4682   25.7485 C   0  0  0  0  0  0  0  0  0  0  0  0
   -8.8205    0.3702   24.9052 C   0  0  0  0  0  0  0  0  0  0  0  0
   -9.4391    0.5749   23.6524 C   0  0  0  0  0  0  0  0  0  0  0  0
   -9.7698    2.7848   24.1223 C   0  0  0  0  0  0  0  0  0  0  0  0
   -9.8634    1.7863   23.2751 C   0  0  0  0  0  0  0  0  0  0  0  0
   -9.5492   -0.6210   22.7040 C   0  0  0  0  0  0  0  0  0  0  0  0
  -10.5300   -1.5104   23.0742 C   0  0  0  0  0  0  0  0  0  0  0  0
  -10.6711   -2.5576   22.3463 C   0  0  0  0  0  0  0  0  0  0  0  0
  -10.1555   -2.7495   21.3845 C   0  0  0  0  0  0  0  0  0  0  0  0
   -9.0989   -1.8948   20.7738 C   0  0  0  0  0  0  0  0  0  0  0  0
   -8.7867   -0.7330   21.5430 C   0  0  0  0  0  0  0  0  0  0  0  0
   -8.2381   -0.9169   25.3072 C   0  0  0  0  0  0  0  0  0  0  0  0
   -8.6434   -1.6071   26.1201 C   0  0  0  0  0  0  0  0  0  0  0  0
   -8.2744   -2.4886   26.8068 C   0  0  0  0  0  0  0  0  0  0  0  0
  3  4  1  0
 10 13  1  0
  9 19  1  0
 19 20  2  3
 20 21  1  0
 13 14  2  0
 14 15  1  0
 15 16  2  0
 16 17  1  0
 17 18  2  0
 18 13  1  0
  4  8  2  0
  8  9  1  0
  9 10  2  0
 10 12  1  0
 12 11  2  0
 11  4  1  0
  1  2  2  0
  2  5  1  0
  5  7  2  0
  7  6  1  0
  6  3  2  0
  3  1  1  0
M  END
$$$$
