No_8309-complexes_sdf/6BKW-FPZ/2024-09-17-14-21-01/
     RDKit          3D

 16 17  0  0  0  0  0  0  0  0999 V2000
   -7.2496    3.8871   27.4508 C   0  0  0  0  0  0  0  0  0  0  0  0
   -8.5096    4.0291   27.2770 C   0  0  0  0  0  0  0  0  0  0  0  0
   -9.2677    5.1714   27.5773 C   0  0  0  0  0  0  0  0  0  0  0  0
   -6.5711    2.6400   27.2842 C   0  0  0  0  0  0  0  0  0  0  0  0
   -7.2939    1.5094   27.0532 C   0  0  0  0  0  0  0  0  0  0  0  0
   -8.6122    1.6580   26.7575 C   0  0  0  0  0  0  0  0  0  0  0  0
   -9.2984    2.8495   26.9904 C   0  0  0  0  0  0  0  0  0  0  0  0
   -8.5439    6.4004   27.5644 C   0  0  0  0  0  0  0  0  0  0  0  0
  -10.5929    5.2197   26.8798 C   0  0  0  0  0  0  0  0  0  0  0  0
   -6.4712    0.0548   26.8333 Cl  0  0  0  0  0  0  0  0  0  0  0  0
   -9.3886    0.4401   26.3791 C   0  0  0  0  0  0  0  0  0  0  0  0
  -10.6063    0.6986   25.9705 C   0  0  0  0  0  0  0  0  0  0  0  0
  -11.3275   -0.2853   25.4461 C   0  0  0  0  0  0  0  0  0  0  0  0
  -10.7985   -1.5324   25.3073 C   0  0  0  0  0  0  0  0  0  0  0  0
   -9.4903   -1.7758   25.6857 C   0  0  0  0  0  0  0  0  0  0  0  0
   -8.7445   -0.7781   26.2274 C   0  0  0  0  0  0  0  0  0  0  0  0
  3  8  1  0
  3  9  1  0
  5 10  1  0
  6 11  1  0
  3  2  1  0
 11 12  2  0
 12 13  1  0
 13 14  2  0
 14 15  1  0
 15 16  2  0
 16 11  1  0
  1  2  2  0
  2  7  1  0
  7  6  2  0
  6  5  1  0
  5  4  2  0
  4  1  1  0
M  END
$$$$
