No_849-complexes_sdf/6BKW-FPZ/2024-09-17-14-21-01/
     RDKit          3D

 10 10  0  0  0  0  0  0  0  0999 V2000
   -7.2496    3.8871   27.4508 C   0  0  0  0  0  0  0  0  0  0  0  0
   -7.6161    2.7143   27.1523 C   0  0  0  0  0  0  0  0  0  0  0  0
   -7.1618    1.8631   27.5232 C   0  0  0  0  0  0  0  0  0  0  0  0
   -8.0384    5.0866   27.3232 C   0  0  0  0  0  0  0  0  0  0  0  0
   -9.1208    5.0561   26.6921 C   0  0  0  0  0  0  0  0  0  0  0  0
   -8.9505    2.6573   26.5814 C   0  0  0  0  0  0  0  0  0  0  0  0
   -9.6684    3.8067   26.2960 C   0  0  0  0  0  0  0  0  0  0  0  0
   -5.7014    1.8473   28.0041 C   0  0  0  0  0  0  0  0  0  0  0  0
   -5.0397    0.5531   28.2861 C   0  0  0  0  0  0  0  0  0  0  0  0
   -3.7268    0.5735   28.8268 C   0  0  0  0  0  0  0  0  0  0  0  0
  2  3  1  0
  3  8  2  3
  8  9  1  0
  9 10  1  0
  1  2  2  0
  2  6  1  0
  6  7  2  0
  7  5  1  0
  5  4  2  0
  4  1  1  0
M  END
$$$$
