No_8149-complexes_sdf/6BKW-FPZ/2024-09-17-14-21-01/
     RDKit          3D

 22 24  0  0  0  0  0  0  0  0999 V2000
   -7.7129    4.2099   27.0854 C   0  0  0  0  0  0  0  0  0  0  0  0
   -7.7814    5.1722   27.8972 C   0  0  0  0  0  0  0  0  0  0  0  0
   -8.8998    3.8713   26.3707 C   0  0  0  0  0  0  0  0  0  0  0  0
   -9.9938    4.6774   26.5446 C   0  0  0  0  0  0  0  0  0  0  0  0
   -8.7789    6.1536   27.9256 C   0  0  0  0  0  0  0  0  0  0  0  0
   -9.9428    5.8398   27.2296 C   0  0  0  0  0  0  0  0  0  0  0  0
   -8.9208    2.6404   25.5721 C   0  0  0  0  0  0  0  0  0  0  0  0
   -9.8143    2.5212   24.5327 C   0  0  0  0  0  0  0  0  0  0  0  0
   -9.8784    1.3928   23.8415 C   0  0  0  0  0  0  0  0  0  0  0  0
   -8.9325    0.3260   24.0854 C   0  0  0  0  0  0  0  0  0  0  0  0
   -8.0777    0.4386   25.1449 C   0  0  0  0  0  0  0  0  0  0  0  0
   -8.0365    1.5929   25.9275 C   0  0  0  0  0  0  0  0  0  0  0  0
   -6.6455    5.5738   28.5705 F   0  0  0  0  0  0  0  0  0  0  0  0
  -10.7754    1.2443   22.6726 C   0  0  0  0  0  0  0  0  0  0  0  0
  -12.0531    1.1398   23.0359 C   0  0  0  0  0  0  0  0  0  0  0  0
  -12.9935    1.1825   22.0794 C   0  0  0  0  0  0  0  0  0  0  0  0
  -14.3962    1.1408   22.3729 C   0  0  0  0  0  0  0  0  0  0  0  0
  -14.7486    1.0942   23.7364 C   0  0  0  0  0  0  0  0  0  0  0  0
  -13.8141    1.1007   24.7208 C   0  0  0  0  0  0  0  0  0  0  0  0
  -12.4717    1.1720   24.4339 C   0  0  0  0  0  0  0  0  0  0  0  0
  -10.2361    1.2608   21.3848 C   0  0  0  0  0  0  0  0  0  0  0  0
  -10.7015    1.0857   20.3373 O   0  0  0  0  0  0  0  0  0  0  0  0
  3  7  1  0
  2 13  1  0
  9 14  1  0
 14 15  1  0
 14 21  1  0
 21 22  2  0
 15 16  2  0
 16 17  1  0
 17 18  2  0
 18 19  1  0
 19 20  2  0
 20 15  1  0
  1  2  2  0
  2  5  1  0
  5  6  2  0
  6  4  1  0
  4  3  2  0
  3  1  1  0
  7  8  2  0
  8  9  1  0
  9 10  2  0
 10 11  1  0
 11 12  2  0
 12  7  1  0
M  END
$$$$
