No_8622-complexes_sdf/6BKW-FPZ/2024-09-17-14-21-01/
     RDKit          3D

 19 21  0  0  0  0  0  0  0  0999 V2000
   -7.7129    4.2099   27.0854 C   0  0  0  0  0  0  0  0  0  0  0  0
   -7.7814    5.1722   27.8972 C   0  0  0  0  0  0  0  0  0  0  0  0
   -8.8998    3.8713   26.3707 C   0  0  0  0  0  0  0  0  0  0  0  0
   -9.9938    4.6774   26.5446 C   0  0  0  0  0  0  0  0  0  0  0  0
   -8.7789    6.1536   27.9256 C   0  0  0  0  0  0  0  0  0  0  0  0
   -9.9428    5.8398   27.2296 C   0  0  0  0  0  0  0  0  0  0  0  0
   -8.9119    2.6447   25.5685 C   0  0  0  0  0  0  0  0  0  0  0  0
   -9.7965    2.5353   24.5160 C   0  0  0  0  0  0  0  0  0  0  0  0
   -9.8470    1.4006   23.7115 C   0  0  0  0  0  0  0  0  0  0  0  0
   -8.8958    0.3527   23.9867 C   0  0  0  0  0  0  0  0  0  0  0  0
   -8.0531    0.4472   25.0634 C   0  0  0  0  0  0  0  0  0  0  0  0
   -8.0207    1.5886   25.8749 C   0  0  0  0  0  0  0  0  0  0  0  0
  -10.7272    1.3099   22.5781 C   0  0  0  0  0  0  0  0  0  0  0  0
  -10.8452    2.3291   21.7961 C   0  0  0  0  0  0  0  0  0  0  0  0
  -11.7348    2.3354   20.6259 C   0  0  0  0  0  0  0  0  0  0  0  0
  -11.9306    3.4221   19.8625 C   0  0  0  0  0  0  0  0  0  0  0  0
  -11.2101    4.6532   20.1528 C   0  0  0  0  0  0  0  0  0  0  0  0
  -10.3324    4.6537   21.2356 C   0  0  0  0  0  0  0  0  0  0  0  0
  -10.1870    3.6692   22.0225 C   0  0  0  0  0  0  0  0  0  0  0  0
  3  7  1  0
  9 13  1  0
 13 14  1  0
 14 15  2  0
 15 16  1  0
 16 17  2  0
 17 18  1  0
 18 19  2  0
 19 14  1  0
  1  2  2  0
  2  5  1  0
  5  6  2  0
  6  4  1  0
  4  3  2  0
  3  1  1  0
  7  8  2  0
  8  9  1  0
  9 10  2  0
 10 11  1  0
 11 12  2  0
 12  7  1  0
M  END
$$$$
