No_8572-complexes_sdf/6BKW-FPZ/2024-09-17-14-21-01/
     RDKit          3D

 18 19  0  0  0  0  0  0  0  0999 V2000
   -7.2496    3.8871   27.4508 C   0  0  0  0  0  0  0  0  0  0  0  0
   -7.9379    4.9063   27.8518 C   0  0  0  0  0  0  0  0  0  0  0  0
   -9.3460    4.8223   27.8695 C   0  0  0  0  0  0  0  0  0  0  0  0
   -7.8628    2.6163   27.1065 C   0  0  0  0  0  0  0  0  0  0  0  0
   -9.2787    2.5744   27.1970 C   0  0  0  0  0  0  0  0  0  0  0  0
  -10.0108    3.6770   27.6340 C   0  0  0  0  0  0  0  0  0  0  0  0
  -11.4834    3.5674   27.7432 C   0  0  0  0  0  0  0  0  0  0  0  0
  -11.9395    2.6434   28.4995 C   0  0  0  0  0  0  0  0  0  0  0  0
  -13.3550    2.4593   28.7913 C   0  0  0  0  0  0  0  0  0  0  0  0
  -14.1867    3.4420   28.2483 C   0  0  0  0  0  0  0  0  0  0  0  0
  -13.6865    4.4698   27.4825 C   0  0  0  0  0  0  0  0  0  0  0  0
  -12.3085    4.6362   27.2712 C   0  0  0  0  0  0  0  0  0  0  0  0
   -6.9891    1.2690   26.7157 Cl  0  0  0  0  0  0  0  0  0  0  0  0
   -7.3232    6.0765   28.0852 O   0  0  0  0  0  0  0  0  0  0  0  0
  -15.5638    3.3292   28.4529 O   0  0  0  0  0  0  0  0  0  0  0  0
  -16.3933    3.5987   27.7208 C   0  0  0  0  0  0  0  0  0  0  0  0
  -16.3989    3.6352   26.6553 C   0  0  0  0  0  0  0  0  0  0  0  0
  -17.5105    4.0390   25.6998 C   0  0  0  0  0  0  0  0  0  0  0  0
  6  7  1  0
  4 13  1  0
  2 14  1  0
 10 15  1  0
 15 16  1  0
 16 17  2  3
 17 18  1  0
  1  2  2  0
  2  3  1  0
  3  6  2  0
  6  5  1  0
  5  4  2  0
  4  1  1  0
  7  8  2  0
  8  9  1  0
  9 10  2  0
 10 11  1  0
 11 12  2  0
 12  7  1  0
M  END
$$$$
