No_8037-complexes_sdf/6BKW-FPZ/2024-09-17-14-21-01/
     RDKit          3D

 21 22  0  0  0  0  0  0  0  0999 V2000
   -7.7129    4.2099   27.0854 C   0  0  0  0  0  0  0  0  0  0  0  0
   -8.2112    3.0637   26.9225 C   0  0  0  0  0  0  0  0  0  0  0  0
   -8.5108    5.3904   26.9436 C   0  0  0  0  0  0  0  0  0  0  0  0
   -9.7256    5.1955   26.3518 C   0  0  0  0  0  0  0  0  0  0  0  0
   -9.4995    2.8258   26.4878 C   0  0  0  0  0  0  0  0  0  0  0  0
  -10.2542    3.9691   26.2055 C   0  0  0  0  0  0  0  0  0  0  0  0
   -7.9135    6.7086   27.1885 C   0  0  0  0  0  0  0  0  0  0  0  0
   -7.3624    1.8198   27.2561 C   0  0  0  0  0  0  0  0  0  0  0  0
   -7.2583    0.6328   26.5702 Br  0  0  0  0  0  0  0  0  0  0  0  0
   -8.6248    7.8822   26.6895 C   0  0  0  0  0  0  0  0  0  0  0  0
   -6.7585    2.1294   28.3284 F   0  0  0  0  0  0  0  0  0  0  0  0
   -6.6982    6.7678   26.6609 C   0  0  0  0  0  0  0  0  0  0  0  0
  -11.5997    3.7964   25.6172 C   0  0  0  0  0  0  0  0  0  0  0  0
  -12.6229    3.7246   26.3492 N   0  0  0  0  0  0  0  0  0  0  0  0
  -13.1600    2.8891   26.8862 C   0  0  0  0  0  0  0  0  0  0  0  0
  -14.1953    3.0885   27.9303 C   0  0  0  0  0  0  0  0  0  0  0  0
  -14.4555    2.3206   28.9730 C   0  0  0  0  0  0  0  0  0  0  0  0
  -13.8844    0.9935   28.9435 C   0  0  0  0  0  0  0  0  0  0  0  0
  -12.8954    0.7063   27.9948 C   0  0  0  0  0  0  0  0  0  0  0  0
  -12.4362    1.6601   27.1062 C   0  0  0  0  0  0  0  0  0  0  0  0
  -11.6927    3.5497   24.3295 O   0  0  0  0  0  0  0  0  0  0  0  0
  3  7  1  0
  2  8  1  0
  8  9  1  0
  7 10  1  0
  8 11  1  0
  7 12  1  0
  6 13  1  0
 13 14  1  0
 14 15  1  0
 13 21  2  0
 15 16  2  0
 16 17  1  0
 17 18  2  0
 18 19  1  0
 19 20  2  0
 20 15  1  0
  1  2  2  0
  2  5  1  0
  5  6  2  0
  6  4  1  0
  4  3  2  0
  3  1  1  0
M  END
$$$$
