No_8232-complexes_sdf/6BKW-FPZ/2024-09-17-14-21-01/
     RDKit          3D

 40 45  0  0  0  0  0  0  0  0999 V2000
   -7.9040    3.9820   27.1177 C   0  0  0  0  0  0  0  0  0  0  0  0
   -9.0711    4.3164   27.0630 C   0  0  0  0  0  0  0  0  0  0  0  0
   -9.5182    5.5541   27.5777 C   0  0  0  0  0  0  0  0  0  0  0  0
   -7.4468    2.6843   26.6499 C   0  0  0  0  0  0  0  0  0  0  0  0
   -8.3856    1.7878   26.2216 C   0  0  0  0  0  0  0  0  0  0  0  0
   -9.6812    2.2328   26.0889 C   0  0  0  0  0  0  0  0  0  0  0  0
  -10.0147    3.4312   26.5259 C   0  0  0  0  0  0  0  0  0  0  0  0
   -7.9132    0.4733   25.8127 C   0  0  0  0  0  0  0  0  0  0  0  0
   -7.9749    0.1125   24.6898 O   0  0  0  0  0  0  0  0  0  0  0  0
   -7.1179   -0.1303   26.7325 N   0  0  0  0  0  0  0  0  0  0  0  0
   -6.5057   -1.4167   26.4572 C   0  0  0  0  0  0  0  0  0  0  0  0
   -8.5712    6.6647   27.4802 C   0  0  0  0  0  0  0  0  0  0  0  0
   -7.2635    6.3204   27.1554 C   0  0  0  0  0  0  0  0  0  0  0  0
   -6.8588    5.0072   27.1601 C   0  0  0  0  0  0  0  0  0  0  0  0
   -6.3581   -2.1399   27.4316 C   0  0  0  0  0  0  0  0  0  0  0  0
   -6.3633   -1.6407   28.8422 C   0  0  0  0  0  0  0  0  0  0  0  0
   -6.7278   -0.2670   28.9454 C   0  0  0  0  0  0  0  0  0  0  0  0
   -7.1752    0.3323   28.0330 C   0  0  0  0  0  0  0  0  0  0  0  0
  -11.4702    3.8041   26.3737 C   0  0  0  0  0  0  0  0  0  0  0  0
  -12.2834    3.8076   27.5315 C   0  0  0  0  0  0  0  0  0  0  0  0
  -13.5638    4.2331   27.6401 C   0  0  0  0  0  0  0  0  0  0  0  0
  -14.1381    4.6433   26.3694 C   0  0  0  0  0  0  0  0  0  0  0  0
  -13.3580    4.6108   25.1950 C   0  0  0  0  0  0  0  0  0  0  0  0
  -12.0379    4.2646   25.2216 C   0  0  0  0  0  0  0  0  0  0  0  0
  -11.2859    4.2644   23.9740 C   0  0  0  0  0  0  0  0  0  0  0  0
  -11.8937    4.2091   22.7670 C   0  0  0  0  0  0  0  0  0  0  0  0
  -11.0740    4.0653   21.6376 C   0  0  0  0  0  0  0  0  0  0  0  0
  -11.4982    4.0496   20.4052 C   0  0  0  0  0  0  0  0  0  0  0  0
  -10.6524    3.8570   19.3242 C   0  0  0  0  0  0  0  0  0  0  0  0
   -9.2600    3.5520   19.6748 C   0  0  0  0  0  0  0  0  0  0  0  0
   -8.8995    3.4086   20.9763 C   0  0  0  0  0  0  0  0  0  0  0  0
   -9.7440    3.6360   22.0041 C   0  0  0  0  0  0  0  0  0  0  0  0
  -14.3912    4.3491   28.8268 C   0  0  0  0  0  0  0  0  0  0  0  0
  -15.0483    3.3415   29.1642 C   0  0  0  0  0  0  0  0  0  0  0  0
  -15.5995    3.3088   30.4490 C   0  0  0  0  0  0  0  0  0  0  0  0
  -15.4888    4.4370   31.2672 C   0  0  0  0  0  0  0  0  0  0  0  0
  -14.9042    5.6030   30.7804 C   0  0  0  0  0  0  0  0  0  0  0  0
  -14.3229    5.5840   29.6039 C   0  0  0  0  0  0  0  0  0  0  0  0
  -10.5382    1.3519   25.6885 O   0  0  0  0  0  0  0  0  0  0  0  0
  -11.2922    0.5376   26.4405 C   0  0  0  0  0  0  0  0  0  0  0  0
  5  8  1  0
  8  9  2  0
  8 10  1  0
 10 11  1  0
 15 16  1  0
 10 18  1  0
 17 18  1  0
  7 19  1  0
 24 25  1  0
 25 26  2  3
 26 27  1  0
 21 33  1  0
  6 39  1  0
 39 40  1  0
 11 15  1  0
 16 17  1  0
  2  3  2  0
  3 12  1  0
 12 13  2  0
 13 14  1  0
 14  1  2  0
 33 34  2  0
 34 35  1  0
 35 36  2  0
 36 37  1  0
 37 38  2  0
 38 33  1  0
  1  2  1  0
  2  7  1  0
  7  6  2  0
  6  5  1  0
  5  4  2  0
  4  1  1  0
 19 20  2  0
 20 21  1  0
 21 22  2  0
 22 23  1  0
 23 24  2  0
 24 19  1  0
 27 28  2  0
 28 29  1  0
 29 30  2  0
 30 31  1  0
 31 32  2  0
 32 27  1  0
M  END
$$$$
