No_8599-complexes_sdf/6BKW-FPZ/2024-09-17-14-21-01/
     RDKit          3D

 26 29  0  0  0  0  0  0  0  0999 V2000
   -7.9040    3.9820   27.1177 C   0  0  0  0  0  0  0  0  0  0  0  0
   -7.8663    4.8694   27.9238 C   0  0  0  0  0  0  0  0  0  0  0  0
   -9.0501    3.8017   26.2617 C   0  0  0  0  0  0  0  0  0  0  0  0
  -10.0189    4.7608   26.3707 C   0  0  0  0  0  0  0  0  0  0  0  0
   -8.6973    5.9722   27.8968 C   0  0  0  0  0  0  0  0  0  0  0  0
   -9.8216    5.8946   27.1241 C   0  0  0  0  0  0  0  0  0  0  0  0
   -9.1679    2.4430   25.2802 Cl  0  0  0  0  0  0  0  0  0  0  0  0
   -6.9884    2.9150   27.1339 O   0  0  0  0  0  0  0  0  0  0  0  0
   -6.0967    2.8919   28.1008 C   0  0  0  0  0  0  0  0  0  0  0  0
   -5.3636    1.5699   28.0103 C   0  0  0  0  0  0  0  0  0  0  0  0
   -4.1940    1.4410   28.8119 C   0  0  0  0  0  0  0  0  0  0  0  0
   -3.7185    0.1368   29.0325 C   0  0  0  0  0  0  0  0  0  0  0  0
   -4.1670   -0.9188   28.2631 C   0  0  0  0  0  0  0  0  0  0  0  0
   -5.2621   -0.7298   27.4177 C   0  0  0  0  0  0  0  0  0  0  0  0
   -5.8669    0.5064   27.3143 C   0  0  0  0  0  0  0  0  0  0  0  0
   -3.6701   -2.2954   28.3184 C   0  0  0  0  0  0  0  0  0  0  0  0
   -3.0609   -2.7636   29.3520 C   0  0  0  0  0  0  0  0  0  0  0  0
   -3.1688   -2.0437   30.5877 C   0  0  0  0  0  0  0  0  0  0  0  0
   -3.1808   -0.5935   30.6380 C   0  0  0  0  0  0  0  0  0  0  0  0
   -3.0496    0.2645   31.5335 O   0  0  0  0  0  0  0  0  0  0  0  0
   -2.8651   -0.3192   32.7723 C   0  0  0  0  0  0  0  0  0  0  0  0
   -1.8803   -1.1210   32.9935 C   0  0  0  0  0  0  0  0  0  0  0  0
   -1.7203   -1.4973   34.4284 C   0  0  0  0  0  0  0  0  0  0  0  0
   -2.4711   -0.8898   35.3022 C   0  0  0  0  0  0  0  0  0  0  0  0
   -3.5167   -0.0154   35.0493 C   0  0  0  0  0  0  0  0  0  0  0  0
   -3.6732    0.2449   33.7826 C   0  0  0  0  0  0  0  0  0  0  0  0
  3  7  1  0
  1  8  1  0
  8  9  1  0
 19 20  1  0
 20 21  1  0
  9 10  1  0
 21 22  2  0
 22 23  1  0
 23 24  2  0
 24 25  1  0
 25 26  2  0
 26 21  1  0
  1  2  2  0
  2  5  1  0
  5  6  2  0
  6  4  1  0
  4  3  2  0
  3  1  1  0
 10 11  2  0
 11 12  1  0
 13 14  1  0
 14 15  2  0
 15 10  1  0
 12 13  2  0
 13 16  1  0
 16 17  2  0
 17 18  1  0
 18 19  2  0
 19 12  1  0
M  END
$$$$
