No_8757-complexes_sdf/6BKW-FPZ/2024-09-17-14-21-01/
     RDKit          3D

 21 22  0  0  0  0  0  0  0  0999 V2000
   -7.9040    3.9820   27.1177 C   0  0  0  0  0  0  0  0  0  0  0  0
   -8.2057    2.8231   26.8733 C   0  0  0  0  0  0  0  0  0  0  0  0
   -7.0130    4.3706   28.1140 C   0  0  0  0  0  0  0  0  0  0  0  0
   -7.4093    1.7370   27.3857 C   0  0  0  0  0  0  0  0  0  0  0  0
   -6.1712    2.1248   28.0064 C   0  0  0  0  0  0  0  0  0  0  0  0
   -5.2502    1.1819   28.3202 N   0  0  0  0  0  0  0  0  0  0  0  0
   -5.9750    3.4508   28.3326 N   0  0  0  0  0  0  0  0  0  0  0  0
   -8.8667    5.1231   26.7172 C   0  0  0  0  0  0  0  0  0  0  0  0
   -9.1543    5.1305   25.4938 F   0  0  0  0  0  0  0  0  0  0  0  0
   -9.2724    5.9737   27.3429 F   0  0  0  0  0  0  0  0  0  0  0  0
   -4.7652    0.2506   27.8606 C   0  0  0  0  0  0  0  0  0  0  0  0
   -3.6910   -0.4318   28.4911 C   0  0  0  0  0  0  0  0  0  0  0  0
   -3.2101   -0.6375   29.4304 C   0  0  0  0  0  0  0  0  0  0  0  0
   -3.8237    0.4047   30.4558 C   0  0  1  0  0  0  0  0  0  0  0  0
   -4.8265    1.2565   29.8679 C   0  0  0  0  0  0  0  0  0  0  0  0
   -3.5037    0.4673   31.8250 C   0  0  0  0  0  0  0  0  0  0  0  0
   -2.6270   -0.4687   32.2908 N   0  0  0  0  0  0  0  0  0  0  0  0
   -2.3355   -1.5930   31.8781 C   0  0  0  0  0  0  0  0  0  0  0  0
   -1.4507   -2.3706   32.8245 C   0  0  0  0  0  0  0  0  0  0  0  0
   -1.8694   -2.4845   33.9905 C   0  0  0  0  0  0  0  0  0  0  0  0
   -2.4817   -1.3166   34.7192 C   0  0  0  0  0  0  0  0  0  0  0  0
  5  6  1  0
  1  8  1  0
  8  9  1  0
  8 10  1  0
  6 11  1  0
 12 13  1  0
  6 15  1  0
 14 15  1  1
 14 16  1  0
 16 17  2  3
 17 18  1  0
 18 19  1  0
 19 20  2  3
 20 21  1  0
 11 12  1  0
 13 14  1  0
  1  2  2  0
  2  4  1  0
  4  5  2  0
  5  7  1  0
  7  3  2  0
  3  1  1  0
M  END
$$$$
