No_8329-complexes_sdf/6BKW-FPZ/2024-09-17-14-21-01/
     RDKit          3D

 20 22  0  0  0  0  0  0  0  0999 V2000
   -7.9040    3.9820   27.1177 C   0  0  0  0  0  0  0  0  0  0  0  0
   -8.2057    2.8231   26.8733 C   0  0  0  0  0  0  0  0  0  0  0  0
   -9.2962    2.4021   26.1155 C   0  0  0  0  0  0  0  0  0  0  0  0
   -8.7358    5.0662   26.5917 C   0  0  0  0  0  0  0  0  0  0  0  0
   -8.4603    6.4492   26.8781 C   0  0  0  0  0  0  0  0  0  0  0  0
  -10.1146    3.3815   25.6105 C   0  0  0  0  0  0  0  0  0  0  0  0
   -9.8194    4.7235   25.8263 C   0  0  0  0  0  0  0  0  0  0  0  0
   -8.0989    7.5398   27.0611 N   0  0  0  0  0  0  0  0  0  0  0  0
   -9.5383    0.9649   25.9178 C   0  0  0  0  0  0  0  0  0  0  0  0
   -9.2599    0.2302   25.0910 C   0  0  0  0  0  0  0  0  0  0  0  0
   -8.4745    0.7963   23.9081 C   0  0  0  0  0  0  0  0  0  0  0  0
   -8.0192   -0.0232   22.7972 C   0  0  0  0  0  0  0  0  0  0  0  0
   -8.2501   -1.4011   22.8212 C   0  0  0  0  0  0  0  0  0  0  0  0
   -8.9637   -1.9644   23.9002 C   0  0  0  0  0  0  0  0  0  0  0  0
   -9.3343   -1.2113   24.9364 C   0  0  0  0  0  0  0  0  0  0  0  0
  -10.2839    0.4210   27.1347 C   0  0  0  0  0  0  0  0  0  0  0  0
  -10.2838    0.8124   28.2333 C   0  0  0  0  0  0  0  0  0  0  0  0
  -11.2778    0.3261   29.2476 C   0  0  0  0  0  0  0  0  0  0  0  0
  -12.1669   -0.3762   28.7507 C   0  0  0  0  0  0  0  0  0  0  0  0
  -11.5129   -0.4413   26.9502 C   0  0  0  0  0  0  0  0  0  0  0  0
  4  5  1  0
  5  8  3  0
  3  9  1  0
  9 16  1  0
 16 17  2  0
 17 18  1  0
 18 19  2  0
 16 20  1  0
 19 20  1  0
  9 10  1  0
  1  2  2  0
  2  3  1  0
  3  6  2  0
  6  7  1  0
  7  4  2  0
  4  1  1  0
 10 11  2  0
 11 12  1  0
 12 13  2  0
 13 14  1  0
 14 15  2  0
 15 10  1  0
M  END
$$$$
