No_8222-complexes_sdf/6BKW-FPZ/2024-09-17-14-21-01/
     RDKit          3D

 24 26  0  0  0  0  0  0  0  0999 V2000
   -7.7129    4.2099   27.0854 C   0  0  0  0  0  0  0  0  0  0  0  0
   -7.7814    5.1722   27.8972 C   0  0  0  0  0  0  0  0  0  0  0  0
   -8.8776    3.8408   26.3416 C   0  0  0  0  0  0  0  0  0  0  0  0
   -9.9844    4.6492   26.4743 C   0  0  0  0  0  0  0  0  0  0  0  0
   -8.7830    6.1594   27.8870 C   0  0  0  0  0  0  0  0  0  0  0  0
   -9.9269    5.8191   27.1183 C   0  0  0  0  0  0  0  0  0  0  0  0
   -8.6382    2.6498   25.6667 N   0  0  0  0  0  0  0  0  0  0  0  0
   -9.4346    2.3677   24.6909 C   0  0  0  0  0  0  0  0  0  0  0  0
   -9.3002    1.1364   24.0095 C   0  0  0  0  0  0  0  0  0  0  0  0
   -7.8140    1.5925   25.9356 C   0  0  1  0  0  0  0  0  0  0  0  0
   -7.1458    1.6454   27.2725 C   0  0  2  0  0  0  0  0  0  0  0  0
   -8.0321    0.4892   25.1863 C   0  0  2  0  0  0  0  0  0  0  0  0
   -6.9267    2.9602   27.7194 N   0  0  0  0  0  0  0  0  0  0  0  0
   -6.3361    0.7264   27.6075 N   0  0  0  0  0  0  0  0  0  0  0  0
   -5.0540    0.7241   27.9898 C   0  0  0  0  0  0  0  0  0  0  0  0
   -4.5938   -0.1317   28.6862 O   0  0  0  0  0  0  0  0  0  0  0  0
   -4.4028    1.8516   27.7190 O   0  0  0  0  0  0  0  0  0  0  0  0
   -7.4863   -0.6649   24.9490 C   0  0  2  0  0  0  0  0  0  0  0  0
   -7.5173   -1.9211   26.2628 Br  0  0  0  0  0  0  0  0  0  0  0  0
   -6.6934   -0.9737   23.8242 C   0  0  0  0  0  0  0  0  0  0  0  0
   -5.7476   -1.9415   23.9344 C   0  0  0  0  0  0  0  0  0  0  0  0
   -5.7937   -3.0294   22.9944 C   0  0  0  0  0  0  0  0  0  0  0  0
   -6.1701   -2.6524   21.6787 C   0  0  0  0  0  0  0  0  0  0  0  0
   -7.1360   -1.5404   21.5771 C   0  0  0  0  0  0  0  0  0  0  0  0
  3  7  1  0
  7  8  1  0
  8  9  2  0
 10  7  1  1
 10 11  1  0
 12  9  1  6
 10 12  1  0
  1 13  1  0
 11 13  1  0
 11 14  1  6
 14 15  1  0
 15 16  2  0
 15 17  1  0
 12 18  1  0
 18 19  1  1
 18 20  1  0
 20 21  2  3
 21 22  1  0
 22 23  2  3
 23 24  1  0
  1  2  2  0
  2  5  1  0
  5  6  2  0
  6  4  1  0
  4  3  2  0
  3  1  1  0
M  END
$$$$
