No_8299-complexes_sdf/6BKW-FPZ/2024-09-17-14-21-01/
     RDKit          3D

 12 12  0  0  0  0  0  0  0  0999 V2000
   -7.9040    3.9820   27.1177 C   0  0  0  0  0  0  0  0  0  0  0  0
   -7.8663    4.8694   27.9238 C   0  0  0  0  0  0  0  0  0  0  0  0
   -9.0491    3.8523   26.2542 C   0  0  0  0  0  0  0  0  0  0  0  0
   -8.7661    5.9491   27.9690 C   0  0  0  0  0  0  0  0  0  0  0  0
   -9.9279    4.8544   26.1938 C   0  0  0  0  0  0  0  0  0  0  0  0
   -9.8044    5.9413   27.0782 C   0  0  0  0  0  0  0  0  0  0  0  0
   -6.9762    2.7951   27.2180 C   0  0  0  0  0  0  0  0  0  0  0  0
   -5.9173    2.8593   27.9951 N   0  0  0  0  0  0  0  0  0  0  0  0
   -7.4274    1.5527   26.9680 N   0  0  0  0  0  0  0  0  0  0  0  0
   -8.5329    1.0916   26.4305 C   0  0  0  0  0  0  0  0  0  0  0  0
   -8.6468   -0.2706   26.2766 C   0  0  0  0  0  0  0  0  0  0  0  0
   -7.5240   -0.7981   26.7983 C   0  0  0  0  0  0  0  0  0  0  0  0
  1  7  1  0
  7  8  1  0
  7  9  2  3
  9 10  1  0
 10 11  2  3
 11 12  1  0
  1  2  2  0
  2  4  1  0
  4  6  2  0
  6  5  1  0
  5  3  2  0
  3  1  1  0
M  END
$$$$
