No_8990-complexes_sdf/6BKW-FPZ/2024-09-17-14-21-01/
     RDKit          3D

 12 12  0  0  0  0  0  0  0  0999 V2000
   -7.2496    3.8871   27.4508 C   0  0  0  0  0  0  0  0  0  0  0  0
   -8.5096    4.0291   27.2770 C   0  0  0  0  0  0  0  0  0  0  0  0
   -9.3451    2.8786   26.9046 C   0  0  0  0  0  0  0  0  0  0  0  0
   -6.6065    2.5680   27.5073 C   0  0  0  0  0  0  0  0  0  0  0  0
   -7.4233    1.4858   27.2402 C   0  0  0  0  0  0  0  0  0  0  0  0
   -8.7362    1.6525   26.9989 C   0  0  0  0  0  0  0  0  0  0  0  0
   -9.2878    5.2643   27.2322 C   0  0  0  0  0  0  0  0  0  0  0  0
  -10.4920    5.4949   27.5128 N   0  0  0  0  0  0  0  0  0  0  0  0
   -8.5493    6.3580   26.7387 O   0  0  0  0  0  0  0  0  0  0  0  0
   -6.7691    0.1865   27.2478 C   0  0  0  0  0  0  0  0  0  0  0  0
   -5.7096   -0.0282   27.7587 O   0  0  0  0  0  0  0  0  0  0  0  0
   -7.4779   -0.8029   26.7594 O   0  0  0  0  0  0  0  0  0  0  0  0
  2  7  1  0
  7  8  1  0
  7  9  2  0
  5 10  1  0
 10 11  2  0
 10 12  1  0
  1  2  2  0
  2  3  1  0
  3  6  2  0
  6  5  1  0
  5  4  2  0
  4  1  1  0
M  END
$$$$
