No_8482-complexes_sdf/6BKW-FPZ/2024-09-17-14-21-01/
     RDKit          3D

 21 22  0  0  0  0  0  0  0  0999 V2000
   -7.9040    3.9820   27.1177 C   0  0  0  0  0  0  0  0  0  0  0  0
   -8.2057    2.8231   26.8733 C   0  0  0  0  0  0  0  0  0  0  0  0
   -7.4766    1.7477   27.4593 C   0  0  0  0  0  0  0  0  0  0  0  0
   -8.7468    5.1251   26.6967 C   0  0  0  0  0  0  0  0  0  0  0  0
   -9.7234    4.8589   25.8202 C   0  0  0  0  0  0  0  0  0  0  0  0
   -9.9711    3.5858   25.4266 C   0  0  0  0  0  0  0  0  0  0  0  0
   -9.2266    2.4957   25.9600 C   0  0  0  0  0  0  0  0  0  0  0  0
   -6.1241    1.9216   27.8574 C   0  0  0  0  0  0  0  0  0  0  0  0
   -5.4248    0.7985   28.3602 C   0  0  0  0  0  0  0  0  0  0  0  0
   -5.9324   -0.4517   28.3727 C   0  0  0  0  0  0  0  0  0  0  0  0
   -7.6975    0.3353   27.3839 C   0  0  0  0  0  0  0  0  0  0  0  0
   -7.1413   -0.6404   27.9162 C   0  0  0  0  0  0  0  0  0  0  0  0
   -8.2331    6.4602   27.1743 C   0  0  1  0  0  0  0  0  0  0  0  0
   -7.2229    6.5684   27.7739 F   0  0  0  0  0  0  0  0  0  0  0  0
   -8.5938    7.6713   26.3690 C   0  0  0  0  0  0  0  0  0  0  0  0
   -4.1448    1.1383   28.8608 F   0  0  0  0  0  0  0  0  0  0  0  0
  -11.0282    3.3586   24.4485 C   0  0  0  0  0  0  0  0  0  0  0  0
  -12.3115    3.0601   24.8545 C   0  0  0  0  0  0  0  0  0  0  0  0
  -12.5772    2.8843   26.1946 C   0  0  0  0  0  0  0  0  0  0  0  0
  -13.9572    2.6161   26.6352 C   0  0  0  0  0  0  0  0  0  0  0  0
  -14.9071    2.5139   25.6496 C   0  0  0  0  0  0  0  0  0  0  0  0
  2  3  1  0
  4 13  1  0
 13 14  1  0
 13 15  1  6
  9 16  1  0
  6 17  1  0
 17 18  2  3
 18 19  1  0
 19 20  2  3
 20 21  1  0
  3  8  2  0
  8  9  1  0
  9 10  2  0
 10 12  1  0
 12 11  2  0
 11  3  1  0
  1  2  2  0
  2  7  1  0
  7  6  2  0
  6  5  1  0
  5  4  2  0
  4  1  1  0
M  END
$$$$
