No_863-complexes_sdf/6BKW-FPZ/2024-09-17-14-21-01/
     RDKit          3D

 36 39  0  0  0  0  0  0  0  0999 V2000
   -7.7129    4.2099   27.0854 C   0  0  0  0  0  0  0  0  0  0  0  0
   -8.2112    3.0637   26.9225 C   0  0  0  0  0  0  0  0  0  0  0  0
   -7.5138    1.9223   27.4249 C   0  0  0  0  0  0  0  0  0  0  0  0
   -6.5434    4.4363   27.9024 C   0  0  0  0  0  0  0  0  0  0  0  0
   -6.2005    2.1121   27.9323 C   0  0  0  0  0  0  0  0  0  0  0  0
   -5.3761    1.0106   28.3668 C   0  0  0  0  0  0  0  0  0  0  0  0
   -5.7465    3.4540   28.2365 C   0  0  0  0  0  0  0  0  0  0  0  0
   -4.1133    1.1098   28.8920 C   0  0  0  0  0  0  0  0  0  0  0  0
   -3.3864    0.0043   29.2991 C   0  0  0  0  0  0  0  0  0  0  0  0
   -3.8938   -1.2412   29.0984 C   0  0  0  0  0  0  0  0  0  0  0  0
   -5.8428   -0.3474   28.1716 C   0  0  0  0  0  0  0  0  0  0  0  0
   -5.1409   -1.4055   28.5538 C   0  0  0  0  0  0  0  0  0  0  0  0
   -8.3976    5.5800   26.7956 C   0  0  2  0  0  0  0  0  0  0  0  0
   -8.2250    6.7346   27.5165 C   0  0  0  0  0  0  0  0  0  0  0  0
   -9.3725    5.4441   25.7086 C   0  0  0  0  0  0  0  0  0  0  0  0
   -3.0701   -2.4135   29.5533 C   0  0  0  0  0  0  0  0  0  0  0  0
   -3.3739   -3.1773   30.3366 N   0  0  0  0  0  0  0  0  0  0  0  0
   -4.3128   -3.0691   31.1612 C   0  0  0  0  0  0  0  0  0  0  0  0
   -4.5732   -4.1110   32.1752 C   0  0  0  0  0  0  0  0  0  0  0  0
   -1.9399   -2.4411   28.8277 O   0  0  0  0  0  0  0  0  0  0  0  0
   -3.8822   -5.1313   32.1050 C   0  0  0  0  0  0  0  0  0  0  0  0
   -2.8457   -5.3340   31.2662 C   0  0  0  0  0  0  0  0  0  0  0  0
   -2.5118   -4.3502   30.4128 C   0  0  0  0  0  0  0  0  0  0  0  0
   -8.2961    7.8468   26.9099 N   0  0  0  0  0  0  0  0  0  0  0  0
   -9.7245    4.2729   25.1640 C   0  0  0  0  0  0  0  0  0  0  0  0
   -9.1408    3.0141   25.7599 C   0  0  1  0  0  0  0  0  0  0  0  0
   -9.0680    2.9737   28.0012 O   0  0  0  0  0  0  0  0  0  0  0  0
   -9.5637    1.7630   25.2179 C   0  0  2  0  0  0  0  0  0  0  0  0
   -8.2829    3.2536   25.3016 O   0  0  0  0  0  0  0  0  0  0  0  0
   -8.2492    2.4426   24.3173 C   0  0  0  0  0  0  0  0  0  0  0  0
  -10.8210    1.7798   24.5269 C   0  0  0  0  0  0  0  0  0  0  0  0
   -8.7446    2.4637   23.0979 C   0  0  0  0  0  0  0  0  0  0  0  0
   -7.4526    1.2019   24.4880 C   0  0  0  0  0  0  0  0  0  0  0  0
  -10.0442    1.1978   26.5955 C   0  0  0  0  0  0  0  0  0  0  0  0
  -10.4720    1.6494   27.5245 C   0  0  0  0  0  0  0  0  0  0  0  0
   -9.9172    2.3662   28.4154 C   0  0  0  0  0  0  0  0  0  0  0  0
  5  6  1  0
  1 13  1  0
 13 14  1  1
 13 15  1  0
 10 16  1  0
 16 17  1  0
 17 18  1  0
 16 20  2  0
 19 21  1  0
 17 23  1  0
 22 23  1  0
 14 24  2  0
 15 25  2  3
 25 26  1  0
  2 27  1  0
 26 28  1  0
 26 29  1  6
 29 30  1  0
 28 31  1  6
 30 32  1  0
 30 33  1  0
 28 34  1  0
 34 35  2  3
 27 36  1  0
 35 36  1  0
 18 19  1  0
 21 22  1  0
  6  8  2  0
  8  9  1  0
  9 10  2  0
 10 12  1  0
 12 11  2  0
 11  6  1  0
  1  2  1  0
  2  3  2  0
  3  5  1  0
  5  7  2  0
  7  4  1  0
  4  1  2  0
M  END
$$$$
