No_8606-complexes_sdf/6BKW-FPZ/2024-09-17-14-21-01/
     RDKit          3D

 18 20  0  0  0  0  0  0  0  0999 V2000
   -7.9040    3.9820   27.1177 C   0  0  0  0  0  0  0  0  0  0  0  0
   -7.8663    4.8694   27.9238 C   0  0  0  0  0  0  0  0  0  0  0  0
   -9.0501    3.8017   26.2617 C   0  0  0  0  0  0  0  0  0  0  0  0
  -10.0189    4.7608   26.3707 C   0  0  0  0  0  0  0  0  0  0  0  0
   -8.6973    5.9722   27.8968 C   0  0  0  0  0  0  0  0  0  0  0  0
   -9.8216    5.8946   27.1241 C   0  0  0  0  0  0  0  0  0  0  0  0
   -9.3656    2.6887   25.4285 C   0  0  0  0  0  0  0  0  0  0  0  0
   -8.7688    1.4656   25.7103 C   0  0  0  0  0  0  0  0  0  0  0  0
   -8.2304    1.2635   26.9261 C   0  0  0  0  0  0  0  0  0  0  0  0
   -7.4569    2.5268   27.4674 C   0  0  0  0  0  0  0  0  0  0  0  0
  -10.2296    2.8191   24.3131 C   0  0  0  0  0  0  0  0  0  0  0  0
  -11.3175    2.3068   24.2995 C   0  0  0  0  0  0  0  0  0  0  0  0
  -11.8160    1.4590   24.7993 C   0  0  0  0  0  0  0  0  0  0  0  0
  -13.1778    0.8891   24.5703 C   0  0  0  0  0  0  0  0  0  0  0  0
  -12.2262    2.9408   23.1727 C   0  0  0  0  0  0  0  0  0  0  0  0
  -13.8988    1.4843   23.6321 C   0  0  0  0  0  0  0  0  0  0  0  0
  -13.4486    2.5244   22.9356 C   0  0  0  0  0  0  0  0  0  0  0  0
   -9.7382    3.6783   23.4661 O   0  0  0  0  0  0  0  0  0  0  0  0
  7 11  1  0
 11 12  1  0
 11 18  2  0
 12 13  2  0
 13 14  1  0
 14 16  2  0
 16 17  1  0
 17 15  2  0
 15 12  1  0
  3  7  1  0
  7  8  2  0
  8  9  1  0
  9 10  2  0
 10  1  1  0
  1  2  2  0
  2  5  1  0
  5  6  2  0
  6  4  1  0
  4  3  2  0
  3  1  1  0
M  END
$$$$
