No_846-complexes_sdf/6BKW-FPZ/2024-09-17-14-21-01/
     RDKit          3D

 12 13  0  0  0  0  0  0  0  0999 V2000
   -7.9040    3.9820   27.1177 C   0  0  0  0  0  0  0  0  0  0  0  0
   -7.8663    4.8694   27.9238 C   0  0  0  0  0  0  0  0  0  0  0  0
   -9.0491    3.8523   26.2542 C   0  0  0  0  0  0  0  0  0  0  0  0
   -8.7661    5.9491   27.9690 C   0  0  0  0  0  0  0  0  0  0  0  0
   -9.9279    4.8544   26.1938 C   0  0  0  0  0  0  0  0  0  0  0  0
   -9.8044    5.9413   27.0782 C   0  0  0  0  0  0  0  0  0  0  0  0
   -7.1290    2.7426   27.1066 C   0  0  0  0  0  0  0  0  0  0  0  0
   -5.9575    2.7530   27.9380 C   0  0  0  0  0  0  0  0  0  0  0  0
   -5.1243    1.5891   27.9897 C   0  0  0  0  0  0  0  0  0  0  0  0
   -5.5807    0.3829   27.4882 C   0  0  0  0  0  0  0  0  0  0  0  0
   -7.5361    1.4867   26.7134 C   0  0  0  0  0  0  0  0  0  0  0  0
   -6.8348    0.3342   26.9491 C   0  0  0  0  0  0  0  0  0  0  0  0
  1  7  1  0
  7  8  2  0
  8  9  1  0
  9 10  2  0
 10 12  1  0
 12 11  2  0
 11  7  1  0
  1  2  2  0
  2  4  1  0
  4  6  2  0
  6  5  1  0
  5  3  2  0
  3  1  1  0
M  END
$$$$
