No_8335-complexes_sdf/6BKW-FPZ/2024-09-17-14-21-01/
     RDKit          3D

 20 21  0  0  0  0  0  0  0  0999 V2000
   -7.7129    4.2099   27.0854 C   0  0  0  0  0  0  0  0  0  0  0  0
   -7.7814    5.1722   27.8972 C   0  0  0  0  0  0  0  0  0  0  0  0
   -8.8776    3.8408   26.3416 C   0  0  0  0  0  0  0  0  0  0  0  0
   -8.9136    2.6330   25.5655 C   0  0  0  0  0  0  0  0  0  0  0  0
   -8.8361    6.1389   27.9032 C   0  0  0  0  0  0  0  0  0  0  0  0
   -9.9718    4.7048   26.3433 C   0  0  0  0  0  0  0  0  0  0  0  0
   -9.9205    5.8499   27.1013 C   0  0  0  0  0  0  0  0  0  0  0  0
   -9.8101    2.4220   24.5651 C   0  0  0  0  0  0  0  0  0  0  0  0
   -9.8538    1.2446   23.8750 C   0  0  0  0  0  0  0  0  0  0  0  0
   -8.8579    0.2429   24.1576 C   0  0  0  0  0  0  0  0  0  0  0  0
   -7.9822    0.4204   25.1893 C   0  0  0  0  0  0  0  0  0  0  0  0
   -7.9676    1.5954   25.9341 C   0  0  0  0  0  0  0  0  0  0  0  0
   -6.7077    5.5685   28.6730 O   0  0  0  0  0  0  0  0  0  0  0  0
   -7.0348   -0.6432   25.5418 C   0  0  0  0  0  0  0  0  0  0  0  0
   -6.2909   -0.9928   24.5759 F   0  0  0  0  0  0  0  0  0  0  0  0
   -6.1411   -0.2530   26.5031 F   0  0  0  0  0  0  0  0  0  0  0  0
   -7.6982   -1.6995   26.0145 F   0  0  0  0  0  0  0  0  0  0  0  0
  -10.7231    1.1011   22.7506 C   0  0  0  0  0  0  0  0  0  0  0  0
  -11.4060    1.9430   22.3419 C   0  0  0  0  0  0  0  0  0  0  0  0
  -12.2843    1.7404   21.3074 C   0  0  0  0  0  0  0  0  0  0  0  0
  3  4  1  0
  2 13  1  0
 11 14  1  0
 14 15  1  0
 14 16  1  0
 14 17  1  0
  9 18  1  0
 18 19  2  3
 19 20  1  0
  4  8  2  0
  8  9  1  0
  9 10  2  0
 10 11  1  0
 11 12  2  0
 12  4  1  0
  1  2  2  0
  2  5  1  0
  5  7  2  0
  7  6  1  0
  6  3  2  0
  3  1  1  0
M  END
$$$$
