No_8262-complexes_sdf/6BKW-FPZ/2024-09-17-14-21-01/
     RDKit          3D

  9  9  0  0  0  0  0  0  0  0999 V2000
   -7.9040    3.9820   27.1177 C   0  0  0  0  0  0  0  0  0  0  0  0
   -8.2057    2.8231   26.8733 C   0  0  0  0  0  0  0  0  0  0  0  0
   -8.7695    5.0740   26.7916 C   0  0  0  0  0  0  0  0  0  0  0  0
   -8.4337    6.4678   27.0913 C   0  0  0  0  0  0  0  0  0  0  0  0
   -9.1945    2.4408   26.4350 C   0  0  0  0  0  0  0  0  0  0  0  0
  -10.2047    3.3522   26.0527 C   0  0  0  0  0  0  0  0  0  0  0  0
  -11.4223    2.9878   25.4408 C   0  0  0  0  0  0  0  0  0  0  0  0
   -9.9870    4.6956   26.2207 C   0  0  0  0  0  0  0  0  0  0  0  0
   -7.5937    6.7883   28.0484 N   0  0  0  0  0  0  0  0  0  0  0  0
  3  4  1  0
  6  7  1  0
  4  9  2  0
  1  2  2  0
  2  5  1  0
  5  6  2  0
  6  8  1  0
  8  3  2  0
  3  1  1  0
M  END
$$$$
