No_8147-complexes_sdf/6BKW-FPZ/2024-09-17-14-21-01/
     RDKit          3D

 13 13  0  0  0  0  0  0  0  0999 V2000
   -7.7129    4.2099   27.0854 C   0  0  0  0  0  0  0  0  0  0  0  0
   -8.2112    3.0637   26.9225 C   0  0  0  0  0  0  0  0  0  0  0  0
   -8.4224    5.2106   27.8516 C   0  0  0  0  0  0  0  0  0  0  0  0
   -9.5628    2.7160   27.4089 C   0  0  0  0  0  0  0  0  0  0  0  0
  -10.2428    3.7496   28.1155 C   0  0  0  0  0  0  0  0  0  0  0  0
   -7.8060    6.5538   27.9901 C   0  0  0  0  0  0  0  0  0  0  0  0
   -9.7056    4.9853   28.3055 C   0  0  0  0  0  0  0  0  0  0  0  0
  -10.0724    1.3719   27.2484 C   0  0  0  0  0  0  0  0  0  0  0  0
   -9.2426    0.3828   27.1621 C   0  0  0  0  0  0  0  0  0  0  0  0
   -9.3302   -0.6392   27.1847 C   0  0  0  0  0  0  0  0  0  0  0  0
   -8.2710   -1.7301   27.1141 C   0  0  0  0  0  0  0  0  0  0  0  0
   -7.0225   -1.1673   26.9154 C   0  0  0  0  0  0  0  0  0  0  0  0
   -6.7777    0.1295   26.8454 C   0  0  0  0  0  0  0  0  0  0  0  0
  3  6  1  0
  4  8  1  0
  8  9  2  3
  9 10  1  0
 10 11  2  3
 11 12  1  0
 12 13  2  0
  1  2  2  0
  2  4  1  0
  4  5  2  0
  5  7  1  0
  7  3  2  0
  3  1  1  0
M  END
$$$$
