No_8514-complexes_sdf/6BKW-FPZ/2024-09-17-14-21-01/
     RDKit          3D

 16 17  0  0  0  0  0  0  0  0999 V2000
   -7.9040    3.9820   27.1177 C   0  0  0  0  0  0  0  0  0  0  0  0
   -8.2057    2.8231   26.8733 C   0  0  0  0  0  0  0  0  0  0  0  0
   -9.2962    2.4021   26.1155 C   0  0  0  0  0  0  0  0  0  0  0  0
   -8.7358    5.0662   26.5917 C   0  0  0  0  0  0  0  0  0  0  0  0
   -9.7618    4.7023   25.7546 C   0  0  0  0  0  0  0  0  0  0  0  0
  -10.0066    3.4105   25.4922 C   0  0  0  0  0  0  0  0  0  0  0  0
   -8.3943    6.4760   26.8801 C   0  0  0  0  0  0  0  0  0  0  0  0
   -8.0574    7.5061   27.0291 N   0  0  0  0  0  0  0  0  0  0  0  0
   -7.4093    1.7539   27.4592 N   0  0  0  0  0  0  0  0  0  0  0  0
   -6.0904    1.9664   27.7614 C   0  0  0  0  0  0  0  0  0  0  0  0
   -5.3462    0.7540   28.2657 C   0  0  0  0  0  0  0  0  0  0  0  0
   -4.0322    0.8324   28.7313 C   0  0  0  0  0  0  0  0  0  0  0  0
   -5.9908   -0.4926   27.8902 C   0  0  0  0  0  0  0  0  0  0  0  0
   -3.3997   -0.2883   29.2782 C   0  0  0  0  0  0  0  0  0  0  0  0
   -5.2873   -1.6259   28.4465 C   0  0  0  0  0  0  0  0  0  0  0  0
   -4.0586   -1.5417   29.0599 C   0  0  0  0  0  0  0  0  0  0  0  0
  4  7  1  0
  7  8  3  0
  2  9  1  0
  9 10  1  0
 10 11  1  0
 11 12  2  0
 12 14  1  0
 14 16  2  0
 16 15  1  0
 15 13  2  0
 13 11  1  0
  1  2  2  0
  2  3  1  0
  3  6  2  0
  6  5  1  0
  5  4  2  0
  4  1  1  0
M  END
$$$$
