No_805-complexes_sdf/6BKW-FPZ/2024-09-17-14-21-01/
     RDKit          3D

 35 40  0  0  0  0  0  0  0  0999 V2000
   -7.9040    3.9820   27.1177 C   0  0  0  0  0  0  0  0  0  0  0  0
   -8.2057    2.8231   26.8733 C   0  0  0  0  0  0  0  0  0  0  0  0
   -8.7695    5.0740   26.7916 C   0  0  0  0  0  0  0  0  0  0  0  0
   -8.4337    6.4678   27.0913 C   0  0  0  0  0  0  0  0  0  0  0  0
   -9.3742    2.4311   26.2346 C   0  0  0  0  0  0  0  0  0  0  0  0
  -10.2395    3.4267   25.8887 C   0  0  0  0  0  0  0  0  0  0  0  0
   -9.9567    4.7548   26.1374 C   0  0  0  0  0  0  0  0  0  0  0  0
   -7.9449    7.5014   26.9590 N   0  0  0  0  0  0  0  0  0  0  0  0
   -7.2426    1.6814   27.2966 C   0  0  0  0  0  0  0  0  0  0  0  0
   -7.5306    0.3280   27.2169 C   0  0  0  0  0  0  0  0  0  0  0  0
   -6.5886   -0.5457   27.6095 C   0  0  0  0  0  0  0  0  0  0  0  0
   -5.3193   -0.1020   28.0905 C   0  0  0  0  0  0  0  0  0  0  0  0
   -5.0580    1.2616   28.1356 C   0  0  0  0  0  0  0  0  0  0  0  0
   -5.9147    2.1204   27.7624 C   0  0  0  0  0  0  0  0  0  0  0  0
   -4.3356   -1.1126   28.5992 C   0  0  0  0  0  0  0  0  0  0  0  0
   -3.2480   -0.8003   28.7054 C   0  0  0  0  0  0  0  0  0  0  0  0
   -2.3023   -1.6337   29.4389 C   0  0  0  0  0  0  0  0  0  0  0  0
   -2.7198   -2.8130   29.8934 C   0  0  0  0  0  0  0  0  0  0  0  0
   -4.0222   -3.1272   29.7553 C   0  0  0  0  0  0  0  0  0  0  0  0
   -4.9305   -2.2409   29.1990 C   0  0  0  0  0  0  0  0  0  0  0  0
  -11.4698    3.1122   25.1085 C   0  0  0  0  0  0  0  0  0  0  0  0
  -11.3392    2.6338   23.9405 C   0  0  0  0  0  0  0  0  0  0  0  0
  -12.4926    2.3154   23.1168 C   0  0  0  0  0  0  0  0  0  0  0  0
  -13.7289    2.7311   23.5650 C   0  0  0  0  0  0  0  0  0  0  0  0
  -12.7561    3.6038   25.4881 C   0  0  0  0  0  0  0  0  0  0  0  0
  -13.8347    3.4283   24.7849 C   0  0  0  0  0  0  0  0  0  0  0  0
   -2.5109    0.7415   28.2689 Cl  0  0  0  0  0  0  0  0  0  0  0  0
  -15.1672    3.8979   25.2278 C   0  0  0  0  0  0  0  0  0  0  0  0
  -15.2954    4.0733   26.6199 C   0  0  0  0  0  0  0  0  0  0  0  0
  -16.3267    4.5807   27.2388 C   0  0  0  0  0  0  0  0  0  0  0  0
  -16.3820    4.7741   28.6768 C   0  0  0  0  0  0  0  0  0  0  0  0
  -15.2129    4.5158   29.4553 C   0  0  0  0  0  0  0  0  0  0  0  0
  -14.0639    4.0898   28.7965 C   0  0  0  0  0  0  0  0  0  0  0  0
  -14.0306    3.9431   27.4103 C   0  0  0  0  0  0  0  0  0  0  0  0
  -12.8044    3.6838   26.7853 C   0  0  0  0  0  0  0  0  0  0  0  0
  3  4  1  0
  4  8  3  0
  2  9  1  0
 12 15  1  0
  6 21  1  0
 16 27  1  0
 15 16  2  0
 16 17  1  0
 17 18  2  0
 18 19  1  0
 19 20  2  0
 20 15  1  0
  1  2  2  0
  2  5  1  0
  5  6  2  0
  6  7  1  0
  7  3  2  0
  3  1  1  0
 21 22  2  0
 22 23  1  0
 23 24  2  0
 24 26  1  0
 25 21  1  0
  9 10  2  0
 10 11  1  0
 11 12  2  0
 12 13  1  0
 13 14  2  0
 14  9  1  0
 25 26  2  0
 26 28  1  0
 28 29  2  0
 34 35  2  0
 35 25  1  0
 29 30  1  0
 30 31  2  0
 31 32  1  0
 32 33  2  0
 33 34  1  0
 34 29  1  0
M  END
$$$$
