No_8353-complexes_sdf/6BKW-FPZ/2024-09-17-14-21-01/
     RDKit          3D

 39 43  0  0  0  0  0  0  0  0999 V2000
   -7.7129    4.2099   27.0854 C   0  0  0  0  0  0  0  0  0  0  0  0
   -7.7814    5.1722   27.8972 C   0  0  0  0  0  0  0  0  0  0  0  0
   -8.8776    3.8408   26.3416 C   0  0  0  0  0  0  0  0  0  0  0  0
   -8.9136    2.6330   25.5655 C   0  0  0  0  0  0  0  0  0  0  0  0
   -8.8361    6.1389   27.9032 C   0  0  0  0  0  0  0  0  0  0  0  0
   -9.9718    4.7048   26.3433 C   0  0  0  0  0  0  0  0  0  0  0  0
   -9.9205    5.8499   27.1013 C   0  0  0  0  0  0  0  0  0  0  0  0
   -9.7173    1.7020   26.0925 C   0  0  0  0  0  0  0  0  0  0  0  0
   -9.4433    0.4549   25.8087 C   0  0  0  0  0  0  0  0  0  0  0  0
  -10.1768   -0.6313   26.4225 C   0  0  0  0  0  0  0  0  0  0  0  0
  -11.2095   -0.2618   27.3379 C   0  0  0  0  0  0  0  0  0  0  0  0
  -11.4173    1.0419   27.6839 C   0  0  0  0  0  0  0  0  0  0  0  0
  -10.6490    2.0583   27.1555 C   0  0  0  0  0  0  0  0  0  0  0  0
   -8.4550    0.0090   24.8391 C   0  0  2  0  0  0  0  0  0  0  0  0
   -7.1902   -0.4158   25.1920 C   0  0  0  0  0  0  0  0  0  0  0  0
   -8.7796    0.1481   23.4604 C   0  0  0  0  0  0  0  0  0  0  0  0
   -6.8077   -1.4707   25.1508 C   0  0  0  0  0  0  0  0  0  0  0  0
   -9.9179    0.6813   22.9758 C   0  0  0  0  0  0  0  0  0  0  0  0
   -6.2169   -2.4299   25.0561 C   0  0  0  0  0  0  0  0  0  0  0  0
  -10.1896    0.7868   21.6157 C   0  0  0  0  0  0  0  0  0  0  0  0
   -7.8806   -0.3319   22.4763 C   0  0  0  0  0  0  0  0  0  0  0  0
   -8.2517   -0.4396   21.1428 C   0  0  0  0  0  0  0  0  0  0  0  0
   -9.3414    0.1632   20.7688 C   0  0  0  0  0  0  0  0  0  0  0  0
   -7.5965   -2.0119   24.5717 F   0  0  0  0  0  0  0  0  0  0  0  0
   -5.4893   -2.2532   26.1393 F   0  0  0  0  0  0  0  0  0  0  0  0
   -5.0096   -2.1568   24.3400 F   0  0  0  0  0  0  0  0  0  0  0  0
   -6.5135   -3.7142   24.9798 F   0  0  0  0  0  0  0  0  0  0  0  0
  -12.4217    1.3469   28.7844 C   0  0  0  0  0  0  0  0  0  0  0  0
  -13.2966    0.5376   29.2158 C   0  0  0  0  0  0  0  0  0  0  0  0
  -13.0378   -0.8543   28.7765 C   0  0  0  0  0  0  0  0  0  0  0  0
  -12.0773   -1.2477   27.9357 C   0  0  0  0  0  0  0  0  0  0  0  0
  -12.5038    2.8689   28.9188 C   0  0  0  0  0  0  0  0  0  0  0  0
  -13.1385    3.7219   28.2022 C   0  0  0  0  0  0  0  0  0  0  0  0
  -13.7003    3.5469   26.9238 C   0  0  0  0  0  0  0  0  0  0  0  0
  -14.2843    4.5536   26.2078 C   0  0  0  0  0  0  0  0  0  0  0  0
  -14.4108    4.4710   24.8622 C   0  0  0  0  0  0  0  0  0  0  0  0
  -14.0728    3.3071   24.2093 C   0  0  0  0  0  0  0  0  0  0  0  0
  -13.5574    2.2431   24.9061 C   0  0  0  0  0  0  0  0  0  0  0  0
  -13.3041    2.3926   26.2914 C   0  0  0  0  0  0  0  0  0  0  0  0
  3  4  1  0
  4  8  1  0
 14  9  1  1
 14 15  1  0
 14 16  1  0
 15 17  2  3
 17 19  1  0
 17 24  1  0
 19 25  1  0
 19 26  1  0
 19 27  1  0
 28 32  1  0
 32 33  2  3
 33 34  1  0
  8  9  1  0
  9 10  2  0
 10 11  1  0
 12 13  1  0
 13  8  2  0
 16 18  2  0
 18 20  1  0
 20 23  2  0
 23 22  1  0
 22 21  2  0
 21 16  1  0
 34 35  2  0
 35 36  1  0
 36 37  2  0
 37 38  1  0
 38 39  2  0
 39 34  1  0
 11 12  2  0
 12 28  1  0
 28 29  2  0
 29 30  1  0
 30 31  2  0
 31 11  1  0
  1  2  2  0
  2  5  1  0
  5  7  2  0
  7  6  1  0
  6  3  2  0
  3  1  1  0
M  END
$$$$
