No_8268-complexes_sdf/6BKW-FPZ/2024-09-17-14-21-01/
     RDKit          3D

 29 31  0  0  0  0  0  0  0  0999 V2000
   -7.2496    3.8871   27.4508 C   0  0  0  0  0  0  0  0  0  0  0  0
   -7.9379    4.9063   27.8518 C   0  0  0  0  0  0  0  0  0  0  0  0
   -9.3460    4.8223   27.8695 C   0  0  0  0  0  0  0  0  0  0  0  0
   -7.8628    2.6163   27.1065 C   0  0  0  0  0  0  0  0  0  0  0  0
   -7.1773    1.4959   26.7593 C   0  0  0  0  0  0  0  0  0  0  0  0
   -9.2781    2.5892   27.1482 C   0  0  0  0  0  0  0  0  0  0  0  0
  -10.0064    3.6800   27.5696 C   0  0  0  0  0  0  0  0  0  0  0  0
   -6.0504    1.2997   27.3746 O   0  0  0  0  0  0  0  0  0  0  0  0
   -7.5969    0.6326   25.9654 O   0  0  0  0  0  0  0  0  0  0  0  0
  -11.4740    3.5774   27.7231 C   0  0  0  0  0  0  0  0  0  0  0  0
  -11.8870    3.1888   28.9866 C   0  0  0  0  0  0  0  0  0  0  0  0
  -13.2447    3.1379   29.4256 C   0  0  0  0  0  0  0  0  0  0  0  0
  -14.1500    3.6804   28.4523 C   0  0  0  0  0  0  0  0  0  0  0  0
  -13.7458    4.1619   27.2411 C   0  0  0  0  0  0  0  0  0  0  0  0
  -12.3822    4.2459   26.9271 C   0  0  0  0  0  0  0  0  0  0  0  0
   -7.3101    6.1174   28.1492 N   0  0  0  0  0  0  0  0  0  0  0  0
  -13.7002    2.5669   30.6819 C   0  0  0  0  0  0  0  0  0  0  0  0
  -13.6488    3.2900   31.7407 N   0  0  0  0  0  0  0  0  0  0  0  0
  -13.5207    4.5335   31.9230 C   0  0  0  0  0  0  0  0  0  0  0  0
  -13.5287    5.0628   33.3111 C   0  0  0  0  0  0  0  0  0  0  0  0
  -13.5622    2.7108   33.1811 C   0  0  0  0  0  0  0  0  0  0  0  0
  -13.4407    3.8443   34.0345 C   0  0  2  0  0  0  0  0  0  0  0  0
  -13.8882    1.3660   30.6932 O   0  0  0  0  0  0  0  0  0  0  0  0
  -13.3153    3.7663   35.4595 C   0  0  0  0  0  0  0  0  0  0  0  0
  -13.6933    2.7814   36.0578 N   0  0  0  0  0  0  0  0  0  0  0  0
  -14.6213    2.5924   36.8206 C   0  0  0  0  0  0  0  0  0  0  0  0
  -14.8723    1.3063   37.4270 C   0  0  0  0  0  0  0  0  0  0  0  0
  -13.9289    0.4452   36.8044 C   0  0  0  0  0  0  0  0  0  0  0  0
  -13.1221    1.2129   35.9059 F   0  0  0  0  0  0  0  0  0  0  0  0
  4  5  1  0
  5  8  1  0
  5  9  2  0
  7 10  1  0
  2 16  1  0
 12 17  1  0
 17 18  1  0
 18 19  1  0
 19 20  2  0
 18 21  1  0
 20 22  1  0
 21 22  1  0
 17 23  2  0
 22 24  1  1
 24 25  1  0
 25 26  1  0
 26 27  2  3
 27 28  1  0
 28 29  1  0
 10 11  2  0
 11 12  1  0
 12 13  2  0
 13 14  1  0
 14 15  2  0
 15 10  1  0
  1  2  2  0
  2  3  1  0
  3  7  2  0
  7  6  1  0
  6  4  2  0
  4  1  1  0
M  END
$$$$
