No_8122-complexes_sdf/6BKW-FPZ/2024-09-17-14-21-01/
     RDKit          3D

 16 17  0  0  0  0  0  0  0  0999 V2000
   -7.9040    3.9820   27.1177 C   0  0  0  0  0  0  0  0  0  0  0  0
   -9.0711    4.3164   27.0630 C   0  0  0  0  0  0  0  0  0  0  0  0
   -9.5294    5.4517   27.7215 C   0  0  0  0  0  0  0  0  0  0  0  0
   -7.4336    2.7132   26.5681 C   0  0  0  0  0  0  0  0  0  0  0  0
   -8.3353    1.8569   26.0442 C   0  0  0  0  0  0  0  0  0  0  0  0
   -9.6477    2.2853   25.9146 C   0  0  0  0  0  0  0  0  0  0  0  0
  -10.0346    3.4497   26.4483 C   0  0  0  0  0  0  0  0  0  0  0  0
   -7.8608    0.5626   25.5840 C   0  0  0  0  0  0  0  0  0  0  0  0
   -6.9358   -0.0776   26.2436 N   0  0  0  0  0  0  0  0  0  0  0  0
   -6.6376    0.2041   27.4307 C   0  0  0  0  0  0  0  0  0  0  0  0
   -5.7452   -0.7257   28.1324 C   0  0  0  0  0  0  0  0  0  0  0  0
   -5.0000   -1.2389   27.4943 C   0  0  0  0  0  0  0  0  0  0  0  0
   -6.0311   -1.0536   25.8278 C   0  0  0  0  0  0  0  0  0  0  0  0
   -4.8028   -1.1198   26.3793 C   0  0  0  0  0  0  0  0  0  0  0  0
   -4.1367   -2.2031   25.6512 F   0  0  0  0  0  0  0  0  0  0  0  0
   -3.9812   -0.1098   25.8973 F   0  0  0  0  0  0  0  0  0  0  0  0
  5  8  1  0
  8  9  1  0
  9 10  1  0
 10 11  2  0
 11 12  1  0
  9 13  1  0
 12 13  2  0
 12 14  1  0
 14 15  1  0
 14 16  1  0
  3  2  1  0
  1  2  2  0
  2  7  1  0
  7  6  2  0
  6  5  1  0
  5  4  2  0
  4  1  1  0
M  END
$$$$
