No_8362-complexes_sdf/6BKW-FPZ/2024-09-17-14-21-01/
     RDKit          3D

 20 22  0  0  0  0  0  0  0  0999 V2000
   -7.7129    4.2099   27.0854 C   0  0  0  0  0  0  0  0  0  0  0  0
   -8.9133    4.4736   27.0998 C   0  0  0  0  0  0  0  0  0  0  0  0
   -9.8363    3.8127   27.2418 C   0  0  0  0  0  0  0  0  0  0  0  0
   -6.7198    5.1884   27.6617 C   0  0  0  0  0  0  0  0  0  0  0  0
   -9.6164    2.3215   27.2646 C   0  0  0  0  0  0  0  0  0  0  0  0
   -8.2649    1.9067   27.2803 C   0  0  0  0  0  0  0  0  0  0  0  0
   -7.2983    2.8988   27.3393 C   0  0  0  0  0  0  0  0  0  0  0  0
  -10.6776    1.2797   27.2895 C   0  0  0  0  0  0  0  0  0  0  0  0
  -11.6938    1.5858   28.0956 C   0  0  0  0  0  0  0  0  0  0  0  0
  -11.7998    2.8665   28.8105 C   0  0  0  0  0  0  0  0  0  0  0  0
  -11.1916    4.0324   28.0499 C   0  0  0  0  0  0  0  0  0  0  0  0
   -9.2884    5.8949   26.4802 C   0  0  0  0  0  0  0  0  0  0  0  0
  -12.7142    0.6098   28.4944 C   0  0  0  0  0  0  0  0  0  0  0  0
  -12.5268   -0.5051   28.5428 O   0  0  0  0  0  0  0  0  0  0  0  0
  -13.9620    1.0766   28.8859 N   0  0  0  0  0  0  0  0  0  0  0  0
  -15.0086    0.1920   29.2620 C   0  0  0  0  0  0  0  0  0  0  0  0
  -15.8785    0.4522   29.8689 C   0  0  0  0  0  0  0  0  0  0  0  0
  -16.1291    1.9119   30.1926 C   0  0  0  0  0  0  0  0  0  0  0  0
  -15.1136    2.8480   29.8751 C   0  0  0  0  0  0  0  0  0  0  0  0
  -14.0442    2.4147   29.3650 C   0  0  0  0  0  0  0  0  0  0  0  0
  2 12  1  0
  9 13  1  0
 13 14  2  0
 13 15  1  0
 15 16  1  0
 17 18  1  0
 15 20  1  0
 19 20  1  0
  4  1  1  0
 16 17  1  0
 18 19  1  0
  5  8  2  0
  8  9  1  0
  9 10  2  0
 10 11  1  0
 11  3  2  0
  1  2  2  0
  2  3  1  0
  3  5  1  0
  5  6  1  0
  6  7  2  0
  7  1  1  0
M  END
$$$$
