No_8769-complexes_sdf/6BKW-FPZ/2024-09-17-14-21-01/
     RDKit          3D

 38 43  0  0  0  0  0  0  0  0999 V2000
   -7.9040    3.9820   27.1177 C   0  0  0  0  0  0  0  0  0  0  0  0
   -7.8663    4.8694   27.9238 C   0  0  0  0  0  0  0  0  0  0  0  0
   -7.4547    2.7080   27.4594 C   0  0  0  0  0  0  0  0  0  0  0  0
   -7.9337    1.5946   26.8372 C   0  0  0  0  0  0  0  0  0  0  0  0
   -8.9032    1.7881   25.8510 C   0  0  0  0  0  0  0  0  0  0  0  0
   -9.3787    2.9871   25.5530 C   0  0  0  0  0  0  0  0  0  0  0  0
   -8.9781    4.0300   26.2200 C   0  0  2  0  0  0  0  0  0  0  0  0
   -8.0013    6.0716   27.8481 N   0  0  0  0  0  0  0  0  0  0  0  0
  -10.3904    3.3629   24.4394 C   0  0  0  0  0  0  0  0  0  0  0  0
  -11.4812    2.6615   23.9939 Cl  0  0  0  0  0  0  0  0  0  0  0  0
  -10.0084    4.6966   23.7731 C   0  0  0  0  0  0  0  0  0  0  0  0
   -8.7331    6.6149   26.8597 C   0  0  0  0  0  0  0  0  0  0  0  0
   -9.2388    5.5762   25.9847 C   0  0  0  0  0  0  0  0  0  0  0  0
   -9.8350    5.7742   24.7710 N   0  0  0  0  0  0  0  0  0  0  0  0
   -7.3741    0.2420   27.1074 C   0  0  0  0  0  0  0  0  0  0  0  0
   -6.0433    0.0790   27.5107 C   0  0  0  0  0  0  0  0  0  0  0  0
   -5.1243    1.2255   27.6135 C   0  0  0  0  0  0  0  0  0  0  0  0
   -3.8000    0.9222   28.0934 C   0  0  0  0  0  0  0  0  0  0  0  0
   -3.4449   -0.3109   28.5200 C   0  0  0  0  0  0  0  0  0  0  0  0
   -4.3298   -1.3579   28.4719 C   0  0  0  0  0  0  0  0  0  0  0  0
   -5.6069   -1.1561   28.0216 C   0  0  0  0  0  0  0  0  0  0  0  0
   -8.2129   -0.8672   26.9270 C   0  0  0  0  0  0  0  0  0  0  0  0
   -8.2164   -1.7312   26.4057 N   0  0  0  0  0  0  0  0  0  0  0  0
   -9.4911   -0.7043   27.8400 C   0  0  0  0  0  0  0  0  0  0  0  0
   -8.7631   -2.5662   25.9783 C   0  0  0  0  0  0  0  0  0  0  0  0
  -10.0932   -2.6277   26.5968 C   0  0  0  0  0  0  0  0  0  0  0  0
  -10.4326   -1.6361   27.5010 C   0  0  1  0  0  0  0  0  0  0  0  0
  -11.7582   -1.6819   28.2050 C   0  0  0  0  0  0  0  0  0  0  0  0
  -12.1438   -0.6742   28.4130 O   0  0  0  0  0  0  0  0  0  0  0  0
  -12.0904   -2.7723   28.8562 N   0  0  0  0  0  0  0  0  0  0  0  0
  -13.3126   -2.7495   29.6737 C   0  0  2  0  0  0  0  0  0  0  0  0
   -8.5784   -3.6440   25.3381 F   0  0  0  0  0  0  0  0  0  0  0  0
  -13.9989   -1.9462   29.8300 C   0  0  0  0  0  0  0  0  0  0  0  0
  -15.1124   -1.9710   30.7509 C   0  0  0  0  0  0  0  0  0  0  0  0
  -15.3143   -3.1767   31.4254 C   0  0  0  0  0  0  0  0  0  0  0  0
  -14.4451   -4.2013   31.2252 C   0  0  0  0  0  0  0  0  0  0  0  0
  -13.3462   -4.0660   30.4012 C   0  0  0  0  0  0  0  0  0  0  0  0
   -1.8193   -0.4948   29.1394 Cl  0  0  0  0  0  0  0  0  0  0  0  0
  1  2  1  0
  1  3  2  0
  3  4  1  0
  4  5  2  0
  5  6  1  0
  1  7  1  0
  7  6  1  6
  2  8  2  0
  6  9  1  0
  9 10  1  0
  9 11  1  0
  8 12  1  0
  7 13  1  0
 12 13  2  0
 11 14  2  0
 13 14  1  0
  4 15  1  0
 15 16  2  3
 16 17  1  0
 17 18  2  0
 18 19  1  0
 19 20  2  0
 16 21  1  0
 20 21  1  0
 15 22  1  0
 22 23  2  0
 22 24  1  0
 23 25  1  0
 25 26  2  0
 24 27  1  0
 26 27  1  0
 27 28  1  1
 28 29  2  0
 28 30  1  0
 31 30  1  1
 25 32  1  0
 31 33  1  0
 33 34  2  0
 34 35  1  0
 35 36  2  0
 31 37  1  0
 36 37  1  0
 19 38  1  0
M  END
$$$$
