No_8927-complexes_sdf/6BKW-FPZ/2024-09-17-14-21-01/
     RDKit          3D

 40 44  0  0  0  0  0  0  0  0999 V2000
   -7.7129    4.2099   27.0854 C   0  0  0  0  0  0  0  0  0  0  0  0
   -8.2112    3.0637   26.9225 C   0  0  0  0  0  0  0  0  0  0  0  0
   -7.5138    1.9223   27.4249 C   0  0  0  0  0  0  0  0  0  0  0  0
   -8.5309    5.4147   26.8151 C   0  0  0  0  0  0  0  0  0  0  0  0
   -9.6817    5.2393   26.1100 C   0  0  0  0  0  0  0  0  0  0  0  0
  -10.1032    3.9957   25.8534 C   0  0  0  0  0  0  0  0  0  0  0  0
   -9.4035    2.8430   26.2573 C   0  0  0  0  0  0  0  0  0  0  0  0
   -6.5034    2.1795   28.1772 F   0  0  0  0  0  0  0  0  0  0  0  0
   -8.2283    0.9493   27.5666 F   0  0  0  0  0  0  0  0  0  0  0  0
   -8.0085    6.7517   27.1180 C   0  0  0  0  0  0  0  0  0  0  0  0
   -7.0761    6.8926   27.9652 N   0  0  0  0  0  0  0  0  0  0  0  0
   -8.4440    8.1450   26.2362 Cl  0  0  0  0  0  0  0  0  0  0  0  0
  -11.2987    3.9854   24.9959 C   0  0  0  0  0  0  0  0  0  0  0  0
  -12.4760    3.5891   25.5692 C   0  0  0  0  0  0  0  0  0  0  0  0
  -13.6696    3.5625   24.7764 C   0  0  0  0  0  0  0  0  0  0  0  0
  -11.2611    4.1590   23.6439 C   0  0  0  0  0  0  0  0  0  0  0  0
   -9.9875    4.4548   22.9479 C   0  0  0  0  0  0  0  0  0  0  0  0
  -13.6031    3.8462   23.4401 C   0  0  0  0  0  0  0  0  0  0  0  0
  -12.4304    4.1695   22.8464 C   0  0  0  0  0  0  0  0  0  0  0  0
  -14.9942    3.3248   25.4292 C   0  0  0  0  0  0  0  0  0  0  0  0
  -15.1937    2.7799   26.3814 O   0  0  0  0  0  0  0  0  0  0  0  0
  -16.0417    3.8275   24.7907 O   0  0  0  0  0  0  0  0  0  0  0  0
  -10.1524    4.6376   21.5179 C   0  0  0  0  0  0  0  0  0  0  0  0
  -11.2937    4.6146   20.8351 C   0  0  0  0  0  0  0  0  0  0  0  0
  -12.4828    4.4027   21.4832 C   0  0  0  0  0  0  0  0  0  0  0  0
  -17.3005    3.4951   25.1292 C   0  0  0  0  0  0  0  0  0  0  0  0
  -18.3177    3.5957   24.1415 C   0  0  0  0  0  0  0  0  0  0  0  0
  -18.0676    4.3017   23.0550 C   0  0  0  0  0  0  0  0  0  0  0  0
  -17.6954    5.4827   23.1065 C   0  0  0  0  0  0  0  0  0  0  0  0
  -17.7506    6.2497   24.2365 C   0  0  0  0  0  0  0  0  0  0  0  0
  -17.1405    6.9919   24.7471 C   0  0  0  0  0  0  0  0  0  0  0  0
  -15.7551    7.3179   24.2666 C   0  0  0  0  0  0  0  0  0  0  0  0
  -15.4917    6.9252   22.9506 C   0  0  0  0  0  0  0  0  0  0  0  0
  -16.3359    5.8526   22.4631 C   0  0  0  0  0  0  0  0  0  0  0  0
  -18.3609    3.8180   21.7421 C   0  0  0  0  0  0  0  0  0  0  0  0
  -18.6132    2.8777   21.3426 C   0  0  0  0  0  0  0  0  0  0  0  0
  -18.9221    2.4858   19.9443 C   0  0  0  0  0  0  0  0  0  0  0  0
  -18.7225    3.4916   19.0519 C   0  0  0  0  0  0  0  0  0  0  0  0
  -18.3230    4.7038   19.4358 C   0  0  0  0  0  0  0  0  0  0  0  0
  -18.1044    5.0045   20.7522 C   0  0  0  0  0  0  0  0  0  0  0  0
  2  3  1  0
  3  8  1  0
  3  9  1  0
  4 10  1  0
 10 11  2  0
 10 12  1  0
  6 13  1  0
 15 20  1  0
 20 21  2  0
 20 22  1  0
 22 26  1  0
 26 27  1  0
 27 28  1  0
 28 35  1  0
 28 29  1  0
 16 17  2  0
 17 23  1  0
 23 24  2  0
 24 25  1  0
 25 19  2  0
 35 36  2  0
 36 37  1  0
 37 38  2  0
 38 39  1  0
 39 40  2  0
 40 35  1  0
  1  2  2  0
  2  7  1  0
  7  6  2  0
  6  5  1  0
  5  4  2  0
  4  1  1  0
 13 14  2  0
 14 15  1  0
 15 18  2  0
 18 19  1  0
 19 16  1  0
 16 13  1  0
 29 30  2  0
 30 31  1  0
 31 32  2  0
 32 33  1  0
 33 34  2  0
 34 29  1  0
M  END
$$$$
