No_8438-complexes_sdf/6BKW-FPZ/2024-09-17-14-21-01/
     RDKit          3D

 15 16  0  0  0  0  0  0  0  0999 V2000
   -7.9040    3.9820   27.1177 C   0  0  0  0  0  0  0  0  0  0  0  0
   -8.2057    2.8231   26.8733 C   0  0  0  0  0  0  0  0  0  0  0  0
   -7.0130    4.3706   28.1140 C   0  0  0  0  0  0  0  0  0  0  0  0
   -9.3829    2.4374   26.1668 C   0  0  0  0  0  0  0  0  0  0  0  0
  -10.0975    3.4171   25.5988 C   0  0  1  0  0  0  0  0  0  0  0  0
   -9.7335    4.7745   25.7705 C   0  0  0  0  0  0  0  0  0  0  0  0
   -8.7317    5.1107   26.5933 C   0  0  0  0  0  0  0  0  0  0  0  0
  -11.2130    3.0904   24.6733 C   0  0  0  0  0  0  0  0  0  0  0  0
  -11.2313    3.6225   23.4744 C   0  0  0  0  0  0  0  0  0  0  0  0
  -10.2811    4.3259   22.9383 C   0  0  0  0  0  0  0  0  0  0  0  0
  -12.4434    3.3443   22.6177 C   0  0  0  0  0  0  0  0  0  0  0  0
  -10.3774    4.8573   21.5721 C   0  0  0  0  0  0  0  0  0  0  0  0
  -12.4908    3.7496   21.2956 C   0  0  0  0  0  0  0  0  0  0  0  0
  -11.4463    4.5699   20.7912 C   0  0  0  0  0  0  0  0  0  0  0  0
  -12.1710    2.1839   25.1901 C   0  0  0  0  0  0  0  0  0  0  0  0
  1  2  1  0
  1  3  2  0
  2  4  1  0
  4  5  1  0
  5  6  1  0
  1  7  1  0
  6  7  3  0
  5  8  1  6
  8  9  1  0
  8 15  1  0
  9 10  2  0
 10 12  1  0
 12 14  2  0
 14 13  1  0
 13 11  2  0
 11  9  1  0
M  END
$$$$
