No_8258-complexes_sdf/6BKW-FPZ/2024-09-17-14-21-01/
     RDKit          3D

 17 17  0  0  0  0  0  0  0  0999 V2000
   -7.7129    4.2099   27.0854 C   0  0  0  0  0  0  0  0  0  0  0  0
   -8.2112    3.0637   26.9225 C   0  0  0  0  0  0  0  0  0  0  0  0
   -8.5108    5.3904   26.9436 C   0  0  0  0  0  0  0  0  0  0  0  0
   -7.9752    6.6981   27.2112 C   0  0  0  0  0  0  0  0  0  0  0  0
   -9.5213    2.8208   26.4688 C   0  0  0  0  0  0  0  0  0  0  0  0
  -10.2979    3.9327   26.2378 C   0  0  0  0  0  0  0  0  0  0  0  0
   -9.7894    5.2123   26.4395 C   0  0  0  0  0  0  0  0  0  0  0  0
   -7.3451    1.8185   27.1796 C   0  0  1  0  0  0  0  0  0  0  0  0
   -5.8757    2.0824   27.9310 Cl  0  0  0  0  0  0  0  0  0  0  0  0
   -7.8757    0.5080   27.2729 C   0  0  0  0  0  0  0  0  0  0  0  0
   -7.1421   -0.5262   27.2195 C   0  0  0  0  0  0  0  0  0  0  0  0
   -5.8307   -0.4318   26.9745 C   0  0  0  0  0  0  0  0  0  0  0  0
   -5.0534   -1.5319   26.6673 C   0  0  0  0  0  0  0  0  0  0  0  0
   -8.6329    7.8041   26.8213 N   0  0  0  0  0  0  0  0  0  0  0  0
   -3.6559   -1.3725   26.3866 C   0  0  0  0  0  0  0  0  0  0  0  0
   -3.0468   -0.1085   26.5789 C   0  0  0  0  0  0  0  0  0  0  0  0
   -3.8262    0.9182   26.9691 C   0  0  0  0  0  0  0  0  0  0  0  0
  3  4  1  0
  2  8  1  0
  8  9  1  1
  8 10  1  0
 10 11  1  0
 11 12  2  3
 12 13  1  0
  4 14  1  0
 13 15  2  3
 15 16  1  0
 16 17  2  0
  1  2  2  0
  2  5  1  0
  5  6  2  0
  6  7  1  0
  7  3  2  0
  3  1  1  0
M  END
$$$$
