No_8843-complexes_sdf/6BKW-FPZ/2024-09-17-14-21-01/
     RDKit          3D

 29 34  0  0  0  0  0  0  0  0999 V2000
   -7.9040    3.9820   27.1177 C   0  0  0  0  0  0  0  0  0  0  0  0
   -7.8663    4.8694   27.9238 C   0  0  0  0  0  0  0  0  0  0  0  0
   -9.0491    3.8523   26.2542 C   0  0  0  0  0  0  0  0  0  0  0  0
   -9.4067    2.6808   25.6532 C   0  0  0  0  0  0  0  0  0  0  0  0
   -8.5275    6.1191   27.7061 C   0  0  0  0  0  0  0  0  0  0  0  0
  -10.3221    2.7328   24.5970 C   0  0  0  0  0  0  0  0  0  0  0  0
  -10.8248    4.0079   24.2320 C   0  0  0  0  0  0  0  0  0  0  0  0
  -10.3271    5.1638   24.8387 C   0  0  0  0  0  0  0  0  0  0  0  0
   -9.3795    5.1413   25.7597 C   0  0  0  0  0  0  0  0  0  0  0  0
   -9.2607    6.2961   26.5895 C   0  0  0  0  0  0  0  0  0  0  0  0
   -7.2660    2.6366   27.5651 C   0  0  0  0  0  0  0  0  0  0  0  0
   -5.9274    2.5910   27.9355 C   0  0  0  0  0  0  0  0  0  0  0  0
   -5.2437    1.2842   27.9158 C   0  0  0  0  0  0  0  0  0  0  0  0
   -5.9681    0.1360   27.7472 C   0  0  0  0  0  0  0  0  0  0  0  0
   -7.7831    1.3606   27.1491 C   0  0  0  0  0  0  0  0  0  0  0  0
   -7.1895    0.1992   27.4008 C   0  0  0  0  0  0  0  0  0  0  0  0
   -9.1499    1.4250   26.5923 C   0  0  0  0  0  0  0  0  0  0  0  0
   -5.0338   -0.9763   27.8864 C   0  0  0  0  0  0  0  0  0  0  0  0
   -5.4576   -2.1338   28.1167 C   0  0  0  0  0  0  0  0  0  0  0  0
   -3.5824   -0.7912   27.7807 C   0  0  0  0  0  0  0  0  0  0  0  0
   -2.9356   -1.4841   27.0376 C   0  0  0  0  0  0  0  0  0  0  0  0
   -4.6691   -3.2344   27.5422 C   0  0  0  0  0  0  0  0  0  0  0  0
   -3.2855   -2.9450   27.1747 C   0  0  0  0  0  0  0  0  0  0  0  0
  -10.7181    1.5409   24.0012 C   0  0  0  0  0  0  0  0  0  0  0  0
  -11.6602    0.8317   24.4218 C   0  0  0  0  0  0  0  0  0  0  0  0
  -11.9379   -0.4168   23.9573 C   0  0  0  0  0  0  0  0  0  0  0  0
   -9.8718    1.1041   22.9156 C   0  0  0  0  0  0  0  0  0  0  0  0
  -10.0559   -0.1255   22.2815 C   0  0  0  0  0  0  0  0  0  0  0  0
  -11.1369   -0.8767   22.7991 C   0  0  0  0  0  0  0  0  0  0  0  0
  1 11  1  0
  4 17  1  0
 15 17  1  0
 14 18  1  0
  6 24  1  0
  3  4  2  0
  4  6  1  0
  6  7  2  0
  7  8  1  0
  8  9  2  0
 24 25  2  0
 25 26  1  0
 26 29  2  0
 29 28  1  0
 28 27  2  0
 27 24  1  0
  1  2  2  0
  2  5  1  0
  5 10  2  0
 10  9  1  0
  9  3  1  0
  3  1  1  0
 18 19  2  0
 19 22  1  0
 22 23  2  0
 23 21  1  0
 21 20  2  0
 20 18  1  0
 11 12  2  0
 12 13  1  0
 13 14  2  0
 14 16  1  0
 16 15  2  0
 15 11  1  0
M  END
$$$$
