No_8035-complexes_sdf/6BKW-FPZ/2024-09-17-14-21-01/
     RDKit          3D

  8  8  0  0  0  0  0  0  0  0999 V2000
   -7.2496    3.8871   27.4508 C   0  0  0  0  0  0  0  0  0  0  0  0
   -7.6161    2.7143   27.1523 C   0  0  0  0  0  0  0  0  0  0  0  0
   -6.9719    1.5838   27.5324 C   0  0  0  0  0  0  0  0  0  0  0  0
   -5.6316    1.7305   27.9933 C   0  0  0  0  0  0  0  0  0  0  0  0
   -8.0254    5.1110   27.1378 C   0  0  0  0  0  0  0  0  0  0  0  0
   -9.1307    5.0275   26.3442 C   0  0  0  0  0  0  0  0  0  0  0  0
   -8.9363    2.5379   26.5136 C   0  0  0  0  0  0  0  0  0  0  0  0
   -9.6278    3.7153   26.1046 C   0  0  0  0  0  0  0  0  0  0  0  0
  2  3  1  0
  3  4  3  0
  1  2  2  0
  2  7  1  0
  7  8  2  0
  8  6  1  0
  6  5  2  0
  5  1  1  0
M  END
$$$$
