No_8486-complexes_sdf/6BKW-FPZ/2024-09-17-14-21-01/
     RDKit          3D

 37 41  0  0  0  0  0  0  0  0999 V2000
   -7.7129    4.2099   27.0854 C   0  0  0  0  0  0  0  0  0  0  0  0
   -8.9133    4.4736   27.0998 C   0  0  0  0  0  0  0  0  0  0  0  0
   -9.4616    5.6470   27.6290 C   0  0  0  0  0  0  0  0  0  0  0  0
   -6.8722    5.1130   27.9248 C   0  0  0  0  0  0  0  0  0  0  0  0
   -7.3801    6.2535   28.4126 C   0  0  0  0  0  0  0  0  0  0  0  0
   -8.6734    6.5530   28.2150 C   0  0  0  0  0  0  0  0  0  0  0  0
   -9.8157    3.4887   26.3527 C   0  0  0  0  0  0  0  0  0  0  0  0
   -9.9163    3.5905   24.9383 C   0  0  0  0  0  0  0  0  0  0  0  0
   -9.3798    4.6578   24.2682 C   0  0  0  0  0  0  0  0  0  0  0  0
   -9.8906    4.8910   22.9621 C   0  0  0  0  0  0  0  0  0  0  0  0
  -10.7395    4.0950   22.4127 C   0  0  0  0  0  0  0  0  0  0  0  0
  -11.2589    2.9357   23.0313 C   0  0  0  0  0  0  0  0  0  0  0  0
  -10.8555    2.7613   24.3633 C   0  0  0  0  0  0  0  0  0  0  0  0
  -10.3540    2.4640   27.1300 C   0  0  1  0  0  0  0  0  0  0  0  0
  -11.5483    2.4272   27.7872 C   0  0  0  0  0  0  0  0  0  0  0  0
  -11.9961    1.5390   28.5147 C   0  0  0  0  0  0  0  0  0  0  0  0
  -13.2084    1.6277   29.3104 C   0  0  0  0  0  0  0  0  0  0  0  0
  -13.8914    2.8521   29.1898 C   0  0  0  0  0  0  0  0  0  0  0  0
  -13.4638    3.8477   28.4245 C   0  0  0  0  0  0  0  0  0  0  0  0
  -12.2325    3.7162   27.7466 C   0  0  0  0  0  0  0  0  0  0  0  0
   -9.7753    1.2282   26.7771 N   0  0  0  0  0  0  0  0  0  0  0  0
   -9.7807    0.3016   27.5699 C   0  0  0  0  0  0  0  0  0  0  0  0
   -9.2498   -0.9671   27.0952 C   0  0  0  0  0  0  0  0  0  0  0  0
   -9.8602   -1.6149   26.3132 C   0  0  0  0  0  0  0  0  0  0  0  0
   -9.3662   -2.8095   25.7674 C   0  0  0  0  0  0  0  0  0  0  0  0
   -7.9496   -1.3647   27.5999 C   0  0  0  0  0  0  0  0  0  0  0  0
   -7.3807   -2.5213   27.2110 C   0  0  0  0  0  0  0  0  0  0  0  0
   -6.1109   -2.9227   27.7246 C   0  0  0  0  0  0  0  0  0  0  0  0
   -8.1323   -3.2415   26.2544 C   0  0  0  0  0  0  0  0  0  0  0  0
   -5.5013   -2.1480   28.2579 C   0  0  0  0  0  0  0  0  0  0  0  0
   -4.7800   -1.3100   28.2332 C   0  0  0  0  0  0  0  0  0  0  0  0
   -4.1597   -0.3149   29.1860 C   0  0  0  0  0  0  0  0  0  0  0  0
   -3.4209    0.8679   28.8980 C   0  0  0  0  0  0  0  0  0  0  0  0
   -3.1480    1.0686   27.5444 C   0  0  0  0  0  0  0  0  0  0  0  0
   -3.5996    0.2058   26.5416 C   0  0  0  0  0  0  0  0  0  0  0  0
   -4.4071   -0.8424   26.8178 C   0  0  0  0  0  0  0  0  0  0  0  0
   -4.5929   -0.5748   30.5819 C   0  0  0  0  0  0  0  0  0  0  0  0
  2  7  1  0
  7 14  1  0
 14 21  1  6
 21 22  1  0
 22 23  1  0
 27 28  1  0
 28 30  2  3
 30 31  1  0
 32 37  1  0
  7  8  1  0
 14 15  1  0
 15 16  2  0
 16 17  1  0
 17 18  2  0
 18 19  1  0
 19 20  2  0
 20 15  1  0
  1  2  2  0
  2  3  1  0
  3  6  2  0
  6  5  1  0
  5  4  2  0
  4  1  1  0
 23 24  2  0
 24 25  1  0
 25 29  2  0
 29 27  1  0
 27 26  2  0
 26 23  1  0
 31 32  2  0
 32 33  1  0
 33 34  2  0
 34 35  1  0
 35 36  2  0
 36 31  1  0
  8  9  2  0
  9 10  1  0
 10 11  2  0
 11 12  1  0
 12 13  2  0
 13  8  1  0
M  END
$$$$
