No_8803-complexes_sdf/6BKW-FPZ/2024-09-17-14-21-01/
     RDKit          3D

 27 29  0  0  0  0  0  0  0  0999 V2000
   -7.7129    4.2099   27.0854 C   0  0  0  0  0  0  0  0  0  0  0  0
   -8.9133    4.4736   27.0998 C   0  0  0  0  0  0  0  0  0  0  0  0
   -9.4616    5.6470   27.6290 C   0  0  0  0  0  0  0  0  0  0  0  0
   -7.2326    2.9175   26.7557 C   0  0  0  0  0  0  0  0  0  0  0  0
   -8.1546    1.9086   26.5054 C   0  0  0  0  0  0  0  0  0  0  0  0
   -7.6739    0.6359   26.2014 C   0  0  1  0  0  0  0  0  0  0  0  0
   -9.4930    2.2687   26.4745 C   0  0  0  0  0  0  0  0  0  0  0  0
   -9.8736    3.4966   26.8152 C   0  0  0  0  0  0  0  0  0  0  0  0
   -6.8468    0.0080   26.8810 O   0  0  0  0  0  0  0  0  0  0  0  0
   -8.1706   -0.0420   25.1535 N   0  0  0  0  0  0  0  0  0  0  0  0
   -7.7081   -1.3277   24.7229 C   0  0  0  0  0  0  0  0  0  0  0  0
  -10.6973    5.8919   27.9787 F   0  0  0  0  0  0  0  0  0  0  0  0
   -9.1482    6.8359   26.7768 F   0  0  0  0  0  0  0  0  0  0  0  0
   -8.6322    6.1426   28.7227 F   0  0  0  0  0  0  0  0  0  0  0  0
   -9.2260    0.4648   24.2761 C   0  0  0  0  0  0  0  0  0  0  0  0
  -10.2390    0.2689   24.2291 C   0  0  0  0  0  0  0  0  0  0  0  0
  -11.1932    0.8286   23.2541 C   0  0  0  0  0  0  0  0  0  0  0  0
  -10.7306    1.8668   22.4480 C   0  0  0  0  0  0  0  0  0  0  0  0
   -9.3717    2.2240   22.4869 C   0  0  0  0  0  0  0  0  0  0  0  0
   -8.5595    1.5778   23.3702 C   0  0  0  0  0  0  0  0  0  0  0  0
   -8.1564   -2.3962   25.3769 C   0  0  0  0  0  0  0  0  0  0  0  0
   -6.7539   -1.3398   23.6791 C   0  0  0  0  0  0  0  0  0  0  0  0
   -7.9387   -3.6328   24.8279 C   0  0  0  0  0  0  0  0  0  0  0  0
   -6.3576   -2.5821   23.1702 C   0  0  0  0  0  0  0  0  0  0  0  0
   -6.8936   -3.7498   23.7783 C   0  0  0  0  0  0  0  0  0  0  0  0
   -6.5289   -5.0502   23.2484 C   0  0  0  0  0  0  0  0  0  0  0  0
   -6.3081   -5.9800   23.8561 O   0  0  0  0  0  0  0  0  0  0  0  0
  2  3  1  0
  5  6  1  0
  6  9  1  1
  6 10  1  0
 10 11  1  0
  3 12  1  0
  3 13  1  0
  3 14  1  0
 10 15  1  0
 25 26  1  0
 26 27  2  0
 15 16  2  0
 16 17  1  0
 17 18  2  0
 18 19  1  0
 19 20  2  0
 20 15  1  0
  1  2  2  0
  2  8  1  0
  8  7  2  0
  7  5  1  0
  5  4  2  0
  4  1  1  0
 11 21  2  0
 21 23  1  0
 23 25  2  0
 25 24  1  0
 24 22  2  0
 22 11  1  0
M  END
$$$$
