No_8060-complexes_sdf/6BKW-FPZ/2024-09-17-14-21-01/
     RDKit          3D

 27 29  0  0  0  0  0  0  0  0999 V2000
   -7.7129    4.2099   27.0854 C   0  0  0  0  0  0  0  0  0  0  0  0
   -8.9133    4.4736   27.0998 C   0  0  0  0  0  0  0  0  0  0  0  0
   -9.7135    3.9633   26.0300 C   0  0  0  0  0  0  0  0  0  0  0  0
   -6.8420    4.9760   28.0851 C   0  0  0  0  0  0  0  0  0  0  0  0
  -10.9164    3.4776   26.1172 C   0  0  0  0  0  0  0  0  0  0  0  0
  -11.6897    3.8137   27.2914 C   0  0  0  0  0  0  0  0  0  0  0  0
  -11.2341    4.2254   28.1774 C   0  0  0  0  0  0  0  0  0  0  0  0
   -9.7634    4.5641   28.3135 C   0  0  0  0  0  0  0  0  0  0  0  0
  -13.2033    3.4542   27.2161 C   0  0  1  0  0  0  0  0  0  0  0  0
  -13.6248    2.7014   27.8945 C   0  0  0  0  0  0  0  0  0  0  0  0
  -13.0454    1.9185   28.6866 C   0  0  0  0  0  0  0  0  0  0  0  0
  -13.6581    0.8576   29.5804 C   0  0  0  0  0  0  0  0  0  0  0  0
  -14.9442    0.8670   29.6129 C   0  0  0  0  0  0  0  0  0  0  0  0
  -15.7231    1.6904   28.8527 C   0  0  0  0  0  0  0  0  0  0  0  0
  -15.1585    2.5751   28.0904 C   0  0  0  0  0  0  0  0  0  0  0  0
  -13.8351    4.2654   26.3551 F   0  0  0  0  0  0  0  0  0  0  0  0
   -7.3493    6.0812   28.4321 O   0  0  0  0  0  0  0  0  0  0  0  0
   -5.8017    4.4553   28.5564 O   0  0  0  0  0  0  0  0  0  0  0  0
  -15.5985   -0.1038   30.4113 O   0  0  0  0  0  0  0  0  0  0  0  0
  -15.5493   -1.2484   30.2435 C   0  0  0  0  0  0  0  0  0  0  0  0
  -14.4712   -1.8966   29.9598 C   0  0  0  0  0  0  0  0  0  0  0  0
  -13.5675   -2.0373   30.9201 C   0  0  0  0  0  0  0  0  0  0  0  0
  -12.5901   -2.6645   30.9781 C   0  0  0  0  0  0  0  0  0  0  0  0
  -11.5025   -2.6364   32.0547 C   0  0  0  0  0  0  0  0  0  0  0  0
  -11.8714   -2.0238   33.2750 C   0  0  0  0  0  0  0  0  0  0  0  0
  -13.0640   -1.3025   33.3318 C   0  0  0  0  0  0  0  0  0  0  0  0
  -13.8710   -1.2465   32.2496 C   0  0  0  0  0  0  0  0  0  0  0  0
  1  2  1  0
  1  4  1  0
  6  9  1  0
  9 10  1  0
  9 16  1  1
  4 17  2  0
  4 18  1  0
 13 19  1  0
 19 20  1  0
 20 21  1  0
 21 22  1  0
 22 23  2  0
 23 24  1  0
 24 25  2  0
 25 26  1  0
 26 27  2  0
 27 22  1  0
  2  3  2  0
  3  5  1  0
  5  6  2  0
  6  7  1  0
  7  8  2  0
  8  2  1  0
 10 11  2  0
 11 12  1  0
 12 13  2  0
 13 14  1  0
 14 15  2  0
 15 10  1  0
M  END
$$$$
