No_8898-complexes_sdf/6BKW-FPZ/2024-09-17-14-21-01/
     RDKit          3D

 26 28  0  0  0  0  0  0  0  0999 V2000
   -7.2496    3.8871   27.4508 C   0  0  0  0  0  0  0  0  0  0  0  0
   -7.9379    4.9063   27.8518 C   0  0  1  0  0  0  0  0  0  0  0  0
   -7.5112    6.1898   27.6280 C   0  0  0  0  0  0  0  0  0  0  0  0
   -9.3085    4.6933   28.2930 C   0  0  0  0  0  0  0  0  0  0  0  0
   -6.9422    2.7756   27.7940 C   0  0  0  0  0  0  0  0  0  0  0  0
   -6.5263    1.6485   27.1808 C   0  0  0  0  0  0  0  0  0  0  0  0
   -6.4534    0.4570   27.8002 C   0  0  0  0  0  0  0  0  0  0  0  0
   -5.5367   -0.0991   28.4199 C   0  0  0  0  0  0  0  0  0  0  0  0
   -5.6040   -1.3984   29.1149 C   0  0  0  0  0  0  0  0  0  0  0  0
   -6.8362   -2.0153   28.9991 C   0  0  0  0  0  0  0  0  0  0  0  0
   -7.5770   -0.5704   27.9556 C   0  0  0  0  0  0  0  0  0  0  0  0
   -4.0748    0.5888   28.5918 C   0  0  0  0  0  0  0  0  0  0  0  0
   -3.2987    0.1905   29.5415 N   0  0  0  0  0  0  0  0  0  0  0  0
   -3.8400    1.4846   27.7904 O   0  0  0  0  0  0  0  0  0  0  0  0
   -8.4693    7.2375   27.1180 C   0  0  0  0  0  0  0  0  0  0  0  0
   -9.7654    3.4512   28.4532 C   0  0  0  0  0  0  0  0  0  0  0  0
  -11.1469    3.2342   28.2624 C   0  0  0  0  0  0  0  0  0  0  0  0
  -12.0240    4.3092   28.2779 C   0  0  0  0  0  0  0  0  0  0  0  0
  -13.4151    4.0806   28.2569 C   0  0  0  0  0  0  0  0  0  0  0  0
  -14.2742    5.1793   28.1242 C   0  0  0  0  0  0  0  0  0  0  0  0
  -13.9796    2.8212   28.4735 C   0  0  0  0  0  0  0  0  0  0  0  0
  -13.1490    1.7208   28.5409 C   0  0  0  0  0  0  0  0  0  0  0  0
  -11.7140    1.9067   28.5773 C   0  0  0  0  0  0  0  0  0  0  0  0
  -15.5678    5.3057   28.1655 C   0  0  0  0  0  0  0  0  0  0  0  0
  -16.2819    4.1011   28.4188 C   0  0  0  0  0  0  0  0  0  0  0  0
  -15.4707    2.8799   28.5273 C   0  0  0  0  0  0  0  0  0  0  0  0
  2  1  1  6
  2  3  1  0
  2  4  1  0
  1  5  1  0
  5  6  2  3
  6  7  1  0
  7  8  2  0
  8  9  1  0
  9 10  2  0
  7 11  1  0
 10 11  1  0
  8 12  1  0
 12 13  1  0
 12 14  2  0
  3 15  2  0
  4 16  1  0
 16 17  1  0
 19 20  2  0
 20 24  1  0
 24 25  2  0
 25 26  1  0
 26 21  2  0
 17 18  2  0
 18 19  1  0
 19 21  1  0
 21 22  1  0
 22 23  2  0
 23 17  1  0
M  END
$$$$
