No_8170-complexes_sdf/6BKW-FPZ/2024-09-17-14-21-01/
     RDKit          3D

 16 17  0  0  0  0  0  0  0  0999 V2000
   -7.7129    4.2099   27.0854 C   0  0  0  0  0  0  0  0  0  0  0  0
   -7.7814    5.1722   27.8972 C   0  0  0  0  0  0  0  0  0  0  0  0
   -8.8776    3.8408   26.3416 C   0  0  0  0  0  0  0  0  0  0  0  0
   -9.9844    4.6492   26.4743 C   0  0  0  0  0  0  0  0  0  0  0  0
   -8.7830    6.1594   27.8870 C   0  0  0  0  0  0  0  0  0  0  0  0
   -9.9269    5.8191   27.1183 C   0  0  0  0  0  0  0  0  0  0  0  0
   -8.8655    2.7019   25.6158 O   0  0  0  0  0  0  0  0  0  0  0  0
   -8.5310    1.5794   26.2807 C   0  0  0  0  0  0  0  0  0  0  0  0
   -8.2570    0.4939   25.4702 C   0  0  0  0  0  0  0  0  0  0  0  0
   -7.7857   -0.7043   26.0587 C   0  0  0  0  0  0  0  0  0  0  0  0
   -7.5940   -0.7665   27.4668 C   0  0  0  0  0  0  0  0  0  0  0  0
   -7.8803    0.4235   28.1867 C   0  0  0  0  0  0  0  0  0  0  0  0
   -8.2730    1.5591   27.6448 C   0  0  0  0  0  0  0  0  0  0  0  0
  -11.0404    4.1488   25.6287 C   0  0  0  0  0  0  0  0  0  0  0  0
  -11.0649    4.3268   24.2375 C   0  0  0  0  0  0  0  0  0  0  0  0
  -12.0276    3.9583   23.4197 C   0  0  0  0  0  0  0  0  0  0  0  0
  3  7  1  0
  7  8  1  0
  4 14  1  0
 14 15  2  3
 15 16  1  0
  8  9  2  0
  9 10  1  0
 10 11  2  0
 11 12  1  0
 12 13  2  0
 13  8  1  0
  1  2  2  0
  2  5  1  0
  5  6  2  0
  6  4  1  0
  4  3  2  0
  3  1  1  0
M  END
$$$$
