No_8410-complexes_sdf/6BKW-FPZ/2024-09-17-14-21-01/
     RDKit          3D

 16 17  0  0  0  0  0  0  0  0999 V2000
   -7.2496    3.8871   27.4508 C   0  0  0  0  0  0  0  0  0  0  0  0
   -7.9379    4.9063   27.8518 C   0  0  0  0  0  0  0  0  0  0  0  0
   -9.3460    4.8223   27.8695 C   0  0  0  0  0  0  0  0  0  0  0  0
   -7.8628    2.6163   27.1065 C   0  0  0  0  0  0  0  0  0  0  0  0
   -9.2787    2.5744   27.1970 C   0  0  0  0  0  0  0  0  0  0  0  0
  -10.0108    3.6770   27.6340 C   0  0  0  0  0  0  0  0  0  0  0  0
  -11.4486    3.3729   27.7139 C   0  0  0  0  0  0  0  0  0  0  0  0
  -12.3457    4.0577   27.9549 C   0  0  0  0  0  0  0  0  0  0  0  0
  -13.7388    3.8000   28.1272 C   0  0  0  0  0  0  0  0  0  0  0  0
  -14.0890    2.5168   27.8621 C   0  0  0  0  0  0  0  0  0  0  0  0
  -12.0979    2.0060   27.6138 C   0  0  0  0  0  0  0  0  0  0  0  0
  -13.2497    1.6197   27.7038 C   0  0  0  0  0  0  0  0  0  0  0  0
   -7.0855    1.4819   26.7646 C   0  0  0  0  0  0  0  0  0  0  0  0
   -7.6865    0.3068   25.7609 Cl  0  0  0  0  0  0  0  0  0  0  0  0
   -5.9434    1.2836   27.3997 O   0  0  0  0  0  0  0  0  0  0  0  0
   -7.1603    6.4084   28.1980 Cl  0  0  0  0  0  0  0  0  0  0  0  0
  6  7  1  0
  4 13  1  0
 13 14  1  0
 13 15  2  0
  2 16  1  0
  7  8  2  0
  8  9  1  0
  9 10  2  0
 10 12  1  0
 12 11  2  0
 11  7  1  0
  1  2  2  0
  2  3  1  0
  3  6  2  0
  6  5  1  0
  5  4  2  0
  4  1  1  0
M  END
$$$$
