No_862-complexes_sdf/6BKW-FPZ/2024-09-17-14-21-01/
     RDKit          3D

 16 18  0  0  0  0  0  0  0  0999 V2000
   -7.7129    4.2099   27.0854 C   0  0  0  0  0  0  0  0  0  0  0  0
   -8.2112    3.0637   26.9225 C   0  0  0  0  0  0  0  0  0  0  0  0
   -7.0021    4.5281   28.2396 C   0  0  0  0  0  0  0  0  0  0  0  0
   -9.4237    2.7810   26.2714 C   0  0  0  0  0  0  0  0  0  0  0  0
   -9.8781    3.7859   25.4663 C   0  0  0  0  0  0  0  0  0  0  0  0
   -9.3216    5.0929   25.5901 C   0  0  0  0  0  0  0  0  0  0  0  0
   -8.4485    5.3451   26.5217 C   0  0  0  0  0  0  0  0  0  0  0  0
  -10.9762    3.5523   24.5115 C   0  0  0  0  0  0  0  0  0  0  0  0
  -12.1663    3.2167   24.9313 C   0  0  0  0  0  0  0  0  0  0  0  0
  -10.7203    3.7246   23.1279 C   0  0  0  0  0  0  0  0  0  0  0  0
  -11.6800    3.5855   22.1663 C   0  0  0  0  0  0  0  0  0  0  0  0
  -12.4744    3.0587   26.3172 C   0  0  0  0  0  0  0  0  0  0  0  0
  -11.5986    3.4381   27.2991 C   0  0  0  0  0  0  0  0  0  0  0  0
  -10.5779    2.4645   27.4911 C   0  0  0  0  0  0  0  0  0  0  0  0
  -13.0030    3.2623   22.6793 C   0  0  0  0  0  0  0  0  0  0  0  0
  -13.2298    3.1479   23.9491 C   0  0  0  0  0  0  0  0  0  0  0  0
  5  8  1  0
  9 12  1  0
 12 13  1  0
  4 14  1  0
 13 14  1  0
  3  1  1  0
  8  9  2  0
  9 16  1  0
 16 15  2  0
 15 11  1  0
 11 10  2  0
 10  8  1  0
  1  2  2  0
  2  4  1  0
  4  5  2  0
  5  6  1  0
  6  7  2  0
  7  1  1  0
M  END
$$$$
