No_8732-complexes_sdf/6BKW-FPZ/2024-09-17-14-21-01/
     RDKit          3D

 22 24  0  0  0  0  0  0  0  0999 V2000
   -7.7129    4.2099   27.0854 C   0  0  0  0  0  0  0  0  0  0  0  0
   -8.9133    4.4736   27.0998 C   0  0  0  0  0  0  0  0  0  0  0  0
   -9.4643    5.5426   27.7628 C   0  0  0  0  0  0  0  0  0  0  0  0
   -7.2009    2.9448   26.6134 C   0  0  0  0  0  0  0  0  0  0  0  0
   -8.1365    1.9533   26.2981 C   0  0  0  0  0  0  0  0  0  0  0  0
   -9.4501    2.2651   26.2497 C   0  0  0  0  0  0  0  0  0  0  0  0
   -9.8615    3.4703   26.6763 C   0  0  0  0  0  0  0  0  0  0  0  0
   -7.5886    0.6540   25.9006 C   0  0  0  0  0  0  0  0  0  0  0  0
   -6.4057   -0.0380   26.7558 Cl  0  0  0  0  0  0  0  0  0  0  0  0
   -8.0409   -0.0259   24.7758 C   0  0  0  0  0  0  0  0  0  0  0  0
   -8.5835   -1.1201   24.8683 C   0  0  0  0  0  0  0  0  0  0  0  0
   -9.1536   -1.7208   23.7530 C   0  0  0  0  0  0  0  0  0  0  0  0
   -9.1061   -1.0200   22.4675 C   0  0  0  0  0  0  0  0  0  0  0  0
   -8.5072    0.2640   22.4265 C   0  0  0  0  0  0  0  0  0  0  0  0
   -7.9871    0.7925   23.6220 C   0  0  0  0  0  0  0  0  0  0  0  0
  -11.3093    3.7568   26.6428 C   0  0  0  0  0  0  0  0  0  0  0  0
  -12.1827    2.8280   27.1625 C   0  0  0  0  0  0  0  0  0  0  0  0
  -13.3651    3.1039   27.4680 C   0  0  0  0  0  0  0  0  0  0  0  0
  -14.2006    2.2894   28.1536 C   0  0  0  0  0  0  0  0  0  0  0  0
  -13.7054    0.9632   28.4611 C   0  0  0  0  0  0  0  0  0  0  0  0
  -12.4304    0.6307   28.1600 C   0  0  0  0  0  0  0  0  0  0  0  0
  -11.6033    1.5787   27.5702 C   0  0  0  0  0  0  0  0  0  0  0  0
  5  8  1  0
  8  9  1  0
  8 10  1  0
  7 16  1  0
 16 17  1  0
  3  2  1  0
 17 18  2  0
 18 19  1  0
 19 20  2  0
 20 21  1  0
 21 22  2  0
 22 17  1  0
  1  2  2  0
  2  7  1  0
  7  6  2  0
  6  5  1  0
  5  4  2  0
  4  1  1  0
 10 11  2  0
 11 12  1  0
 12 13  2  0
 13 14  1  0
 14 15  2  0
 15 10  1  0
M  END
$$$$
