No_8508-complexes_sdf/6BKW-FPZ/2024-09-17-14-21-01/
     RDKit          3D

 14 15  0  0  0  0  0  0  0  0999 V2000
   -7.7129    4.2099   27.0854 C   0  0  0  0  0  0  0  0  0  0  0  0
   -7.7814    5.1722   27.8972 C   0  0  0  0  0  0  0  0  0  0  0  0
   -8.8776    3.8408   26.3416 C   0  0  0  0  0  0  0  0  0  0  0  0
   -9.9844    4.6492   26.4743 C   0  0  0  0  0  0  0  0  0  0  0  0
   -8.8033    6.1375   27.8728 C   0  0  0  0  0  0  0  0  0  0  0  0
   -9.9554    5.8280   27.1737 C   0  0  0  0  0  0  0  0  0  0  0  0
   -8.8752    2.6155   25.5663 C   0  0  0  0  0  0  0  0  0  0  0  0
   -8.2802    1.4553   26.1648 C   0  0  0  0  0  0  0  0  0  0  0  0
   -8.0950    0.3065   25.4661 C   0  0  0  0  0  0  0  0  0  0  0  0
   -7.4414   -0.7524   26.0605 C   0  0  0  0  0  0  0  0  0  0  0  0
   -6.9524   -0.6641   27.3924 C   0  0  0  0  0  0  0  0  0  0  0  0
   -7.0664    0.5810   28.0257 C   0  0  0  0  0  0  0  0  0  0  0  0
   -7.6586    1.6314   27.4816 C   0  0  0  0  0  0  0  0  0  0  0  0
   -9.8982    2.4954   24.9005 C   0  0  0  0  0  0  0  0  0  0  0  0
  3  7  1  0
  7  8  1  0
  7 14  1  0
  8  9  2  0
  9 10  1  0
 10 11  2  0
 11 12  1  0
 12 13  2  0
 13  8  1  0
  1  2  2  0
  2  5  1  0
  5  6  2  0
  6  4  1  0
  4  3  2  0
  3  1  1  0
M  END
$$$$
