No_8567-complexes_sdf/6BKW-FPZ/2024-09-17-14-21-01/
     RDKit          3D

 20 21  0  0  0  0  0  0  0  0999 V2000
   -7.9040    3.9820   27.1177 C   0  0  0  0  0  0  0  0  0  0  0  0
   -9.0711    4.3164   27.0630 C   0  0  0  0  0  0  0  0  0  0  0  0
   -9.9692    3.7224   26.1073 C   0  0  0  0  0  0  0  0  0  0  0  0
   -6.9787    4.6761   28.1003 C   0  0  0  0  0  0  0  0  0  0  0  0
   -9.4538    2.6801   25.3673 C   0  0  0  0  0  0  0  0  0  0  0  0
   -8.1927    2.1957   25.6621 C   0  0  0  0  0  0  0  0  0  0  0  0
   -7.4333    2.8255   26.6299 C   0  0  0  0  0  0  0  0  0  0  0  0
  -10.3181    2.0008   24.3846 C   0  0  0  0  0  0  0  0  0  0  0  0
  -11.0588    1.3198   24.5434 C   0  0  0  0  0  0  0  0  0  0  0  0
   -9.9950    2.4561   22.9780 C   0  0  0  0  0  0  0  0  0  0  0  0
  -10.4336    1.7594   21.8914 C   0  0  0  0  0  0  0  0  0  0  0  0
  -11.8038    0.5479   23.4956 C   0  0  0  0  0  0  0  0  0  0  0  0
  -11.4464    0.8442   22.1792 C   0  0  0  0  0  0  0  0  0  0  0  0
   -5.8836    4.2699   28.3432 F   0  0  0  0  0  0  0  0  0  0  0  0
   -6.8287    6.0150   27.6699 F   0  0  0  0  0  0  0  0  0  0  0  0
   -7.7635    4.8990   29.2456 F   0  0  0  0  0  0  0  0  0  0  0  0
  -12.2240    0.0185   20.8153 P   0  0  0  0  0  0  0  0  0  0  0  0
  -12.9054    0.6683   20.0103 O   0  0  0  0  0  0  0  0  0  0  0  0
  -11.4000   -0.7279   20.6642 O   0  0  0  0  0  0  0  0  0  0  0  0
  -13.4129   -0.7440   21.7744 O   0  0  0  0  0  0  0  0  0  0  0  0
  1  4  1  0
  5  8  1  0
  4 14  1  0
  4 15  1  0
  4 16  1  0
 13 17  1  0
 17 18  2  0
 17 19  1  0
 17 20  1  0
  8  9  2  0
  9 12  1  0
 12 13  2  0
 13 11  1  0
 11 10  2  0
 10  8  1  0
  1  2  2  0
  2  3  1  0
  3  5  2  0
  5  6  1  0
  6  7  2  0
  7  1  1  0
M  END
$$$$
