No_8652-complexes_sdf/6BKW-FPZ/2024-09-17-14-21-01/
     RDKit          3D

 18 20  0  0  0  0  0  0  0  0999 V2000
   -7.9040    3.9820   27.1177 C   0  0  0  0  0  0  0  0  0  0  0  0
   -7.8663    4.8694   27.9238 C   0  0  1  0  0  0  0  0  0  0  0  0
   -9.0491    3.8523   26.2542 C   0  0  0  0  0  0  0  0  0  0  0  0
   -6.5926    5.1015   28.6929 C   0  0  0  0  0  0  0  0  0  0  0  0
   -9.2836    2.7234   25.4168 C   0  0  0  0  0  0  0  0  0  0  0  0
  -10.2978    2.8567   24.4923 C   0  0  0  0  0  0  0  0  0  0  0  0
  -10.6980    3.8295   24.2169 C   0  0  0  0  0  0  0  0  0  0  0  0
  -10.4343    5.1343   24.8215 C   0  0  0  0  0  0  0  0  0  0  0  0
   -9.4327    5.0924   25.7689 C   0  0  0  0  0  0  0  0  0  0  0  0
   -7.4173    2.6919   27.6806 C   0  0  0  0  0  0  0  0  0  0  0  0
   -7.7946    1.4865   27.1863 C   0  0  0  0  0  0  0  0  0  0  0  0
   -8.6681    1.4710   25.9562 C   0  0  0  0  0  0  0  0  0  0  0  0
   -8.7181    6.0409   28.0487 C   0  0  0  0  0  0  0  0  0  0  0  0
   -9.4274    6.3235   26.7145 C   0  0  0  0  0  0  0  0  0  0  0  0
   -8.8980    0.2233   25.2826 C   0  0  0  0  0  0  0  0  0  0  0  0
   -8.5449    0.2853   24.1595 F   0  0  0  0  0  0  0  0  0  0  0  0
   -8.1462   -0.7067   25.9083 F   0  0  0  0  0  0  0  0  0  0  0  0
  -10.1794   -0.0815   25.4017 F   0  0  0  0  0  0  0  0  0  0  0  0
  1  2  1  0
  2  4  1  6
  2 13  1  0
  9 14  1  0
 13 14  1  0
 12 15  1  0
 15 16  1  0
 15 17  1  0
 15 18  1  0
  1  3  2  0
  5 12  2  0
 12 11  1  0
 11 10  2  0
 10  1  1  0
  3  5  1  0
  5  6  1  0
  6  7  2  0
  7  8  1  0
  8  9  2  0
  9  3  1  0
M  END
$$$$
