No_8654-complexes_sdf/6BKW-FPZ/2024-09-17-14-21-01/
     RDKit          3D

 36 40  0  0  0  0  0  0  0  0999 V2000
   -7.9040    3.9820   27.1177 C   0  0  0  0  0  0  0  0  0  0  0  0
   -8.2057    2.8231   26.8733 C   0  0  0  0  0  0  0  0  0  0  0  0
   -7.0130    4.3706   28.1140 C   0  0  0  0  0  0  0  0  0  0  0  0
   -9.3829    2.4374   26.1668 C   0  0  0  0  0  0  0  0  0  0  0  0
  -10.0975    3.4171   25.5988 C   0  0  0  0  0  0  0  0  0  0  0  0
   -9.7085    4.7741   25.7618 C   0  0  0  0  0  0  0  0  0  0  0  0
   -8.7070    5.1118   26.5885 C   0  0  0  0  0  0  0  0  0  0  0  0
   -8.3796    6.4505   26.8989 C   0  0  0  0  0  0  0  0  0  0  0  0
   -6.7947    5.6977   28.5155 C   0  0  0  0  0  0  0  0  0  0  0  0
   -7.4385    6.7105   27.8679 C   0  0  0  0  0  0  0  0  0  0  0  0
   -7.4490    1.6282   27.4591 C   0  0  0  0  0  0  0  0  0  0  0  0
   -7.7954    0.2898   27.1862 C   0  0  0  0  0  0  0  0  0  0  0  0
   -7.0333   -0.7075   27.6754 C   0  0  0  0  0  0  0  0  0  0  0  0
   -5.7879   -0.4030   28.2896 C   0  0  0  0  0  0  0  0  0  0  0  0
   -5.3256    0.9241   28.3601 C   0  0  0  0  0  0  0  0  0  0  0  0
   -6.0863    1.9023   27.9201 C   0  0  0  0  0  0  0  0  0  0  0  0
   -4.9541   -1.5388   28.8187 C   0  0  0  0  0  0  0  0  0  0  0  0
   -3.9530   -1.6870   28.4400 O   0  0  0  0  0  0  0  0  0  0  0  0
   -5.6764   -2.4605   29.5250 O   0  0  0  0  0  0  0  0  0  0  0  0
  -11.2150    3.1533   24.6552 C   0  0  0  0  0  0  0  0  0  0  0  0
  -11.2537    3.6915   23.4816 C   0  0  0  0  0  0  0  0  0  0  0  0
  -12.2622    3.6548   22.5748 C   0  0  0  0  0  0  0  0  0  0  0  0
  -13.3488    2.8401   22.9441 C   0  0  0  0  0  0  0  0  0  0  0  0
  -12.3307    2.4183   25.0554 C   0  0  0  0  0  0  0  0  0  0  0  0
  -13.4045    2.3118   24.1826 C   0  0  0  0  0  0  0  0  0  0  0  0
  -14.6378    2.7216   21.8459 Cl  0  0  0  0  0  0  0  0  0  0  0  0
   -6.5527   -2.3412   30.1653 C   0  0  0  0  0  0  0  0  0  0  0  0
   -6.2816   -2.1735   31.6131 C   0  0  0  0  0  0  0  0  0  0  0  0
   -7.3663   -2.1977   32.6316 C   0  0  0  0  0  0  0  0  0  0  0  0
   -8.6432   -2.5608   32.1315 C   0  0  0  0  0  0  0  0  0  0  0  0
   -7.9672   -2.7039   29.9462 C   0  0  0  0  0  0  0  0  0  0  0  0
   -8.9184   -2.7657   30.8733 C   0  0  0  0  0  0  0  0  0  0  0  0
   -9.7163   -2.6834   33.1868 C   0  0  0  0  0  0  0  0  0  0  0  0
   -9.4696   -2.5863   34.3041 O   0  0  0  0  0  0  0  0  0  0  0  0
  -10.9603   -2.6291   32.6805 O   0  0  0  0  0  0  0  0  0  0  0  0
   -3.7937    1.2796   29.0352 Cl  0  0  0  0  0  0  0  0  0  0  0  0
  2 11  1  0
 14 17  1  0
 17 18  2  0
 17 19  1  0
  5 20  1  0
 23 26  1  0
 19 27  1  0
 30 33  1  0
 33 34  1  0
 33 35  2  0
 15 36  1  0
 11 12  2  0
 12 13  1  0
 13 14  2  0
 14 15  1  0
 15 16  2  0
 16 11  1  0
 20 21  2  0
 21 22  1  0
 22 23  2  0
 23 25  1  0
 25 24  2  0
 24 20  1  0
  1  3  2  0
  3  9  1  0
  9 10  2  0
 10  8  1  0
  8  7  2  0
 27 28  2  0
 28 29  1  0
 29 30  2  0
 30 32  1  0
 32 31  2  0
 31 27  1  0
  1  2  1  0
  2  4  2  0
  4  5  1  0
  5  6  2  0
  6  7  1  0
  7  1  1  0
M  END
$$$$
