No_8281-complexes_sdf/6BKW-FPZ/2024-09-17-14-21-01/
     RDKit          3D

 30 33  0  0  0  0  0  0  0  0999 V2000
   -7.7129    4.2099   27.0854 C   0  0  0  0  0  0  0  0  0  0  0  0
   -8.9133    4.4736   27.0998 C   0  0  0  0  0  0  0  0  0  0  0  0
   -9.4643    5.5426   27.7628 C   0  0  0  0  0  0  0  0  0  0  0  0
   -7.2009    2.9448   26.6134 C   0  0  0  0  0  0  0  0  0  0  0  0
   -8.1365    1.9533   26.2981 C   0  0  0  0  0  0  0  0  0  0  0  0
   -9.4514    2.2934   26.2667 C   0  0  0  0  0  0  0  0  0  0  0  0
   -9.8600    3.4834   26.7068 C   0  0  0  0  0  0  0  0  0  0  0  0
   -7.6599    0.7928   25.9255 F   0  0  0  0  0  0  0  0  0  0  0  0
  -10.3631    1.2336   25.7773 C   0  0  0  0  0  0  0  0  0  0  0  0
  -10.8312    0.3462   26.6473 C   0  0  0  0  0  0  0  0  0  0  0  0
  -10.5845    0.5548   28.1162 C   0  0  0  0  0  0  0  0  0  0  0  0
  -11.1688   -0.3756   29.0604 C   0  0  0  0  0  0  0  0  0  0  0  0
  -11.9214   -1.4402   28.5835 C   0  0  0  0  0  0  0  0  0  0  0  0
  -12.1295   -1.6165   27.2318 C   0  0  0  0  0  0  0  0  0  0  0  0
  -11.5931   -0.7464   26.3170 C   0  0  0  0  0  0  0  0  0  0  0  0
  -10.6998    1.2307   24.4323 C   0  0  0  0  0  0  0  0  0  0  0  0
  -11.7446    2.0277   23.9946 C   0  0  0  0  0  0  0  0  0  0  0  0
  -12.0413    2.0218   22.5927 C   0  0  0  0  0  0  0  0  0  0  0  0
  -10.0115    0.4396   23.5405 C   0  0  0  0  0  0  0  0  0  0  0  0
  -10.2287    0.4672   22.1572 C   0  0  0  0  0  0  0  0  0  0  0  0
   -9.4504   -0.3040   21.1943 C   0  0  0  0  0  0  0  0  0  0  0  0
  -11.2534    1.3021   21.6592 C   0  0  0  0  0  0  0  0  0  0  0  0
  -10.1183   -1.1171   20.3527 N   0  0  0  0  0  0  0  0  0  0  0  0
  -10.9929   -0.8709   19.6849 C   0  0  0  0  0  0  0  0  0  0  0  0
  -11.0329   -1.0688   18.5019 C   0  0  0  0  0  0  0  0  0  0  0  0
   -9.5224   -2.4400   20.2785 C   0  0  0  0  0  0  0  0  0  0  0  0
   -9.6122   -3.0013   18.9596 C   0  0  0  0  0  0  0  0  0  0  0  0
  -10.5511   -2.4308   18.0913 C   0  0  0  0  0  0  0  0  0  0  0  0
  -10.7474   -2.9530   16.8049 C   0  0  0  0  0  0  0  0  0  0  0  0
  -11.8617   -2.8199   16.1862 C   0  0  0  0  0  0  0  0  0  0  0  0
  5  8  1  0
  6  9  1  0
  9 16  1  0
 20 21  1  0
 21 23  1  0
 23 24  1  0
 23 26  1  0
 26 27  1  0
 25 28  1  0
 27 28  1  0
 28 29  1  0
 29 30  2  0
  9 10  1  0
  3  2  1  0
 24 25  1  0
 16 17  2  0
 17 18  1  0
 18 22  2  0
 22 20  1  0
 20 19  2  0
 19 16  1  0
  1  2  2  0
  2  7  1  0
  7  6  2  0
  6  5  1  0
  5  4  2  0
  4  1  1  0
 10 11  2  0
 11 12  1  0
 12 13  2  0
 13 14  1  0
 14 15  2  0
 15 10  1  0
M  END
$$$$
