No_8946-complexes_sdf/6BKW-FPZ/2024-09-17-14-21-01/
     RDKit          3D

 17 19  0  0  0  0  0  0  0  0999 V2000
   -7.9040    3.9820   27.1177 C   0  0  0  0  0  0  0  0  0  0  0  0
   -7.8663    4.8694   27.9238 C   0  0  0  0  0  0  0  0  0  0  0  0
   -7.4547    2.7080   27.4594 C   0  0  0  0  0  0  0  0  0  0  0  0
   -7.9337    1.5946   26.8372 C   0  0  0  0  0  0  0  0  0  0  0  0
   -8.9032    1.7881   25.8510 C   0  0  0  0  0  0  0  0  0  0  0  0
   -9.3787    2.9871   25.5530 C   0  0  0  0  0  0  0  0  0  0  0  0
   -8.9781    4.0300   26.2200 C   0  0  0  0  0  0  0  0  0  0  0  0
   -7.9493    6.0343   27.8952 N   0  0  0  0  0  0  0  0  0  0  0  0
  -10.3836    3.1260   24.4284 C   0  0  0  0  0  0  0  0  0  0  0  0
  -10.5489    2.2792   23.5520 N   0  0  0  0  0  0  0  0  0  0  0  0
  -11.2700    2.4973   22.4506 C   0  0  0  0  0  0  0  0  0  0  0  0
  -11.8743    3.7269   22.3271 C   0  0  0  0  0  0  0  0  0  0  0  0
  -11.0042    4.4149   24.0833 C   0  0  0  0  0  0  0  0  0  0  0  0
  -11.6337    4.7606   23.1216 C   0  0  0  0  0  0  0  0  0  0  0  0
   -8.2359    6.7415   26.7610 C   0  0  0  0  0  0  0  0  0  0  0  0
   -9.2478    6.5123   25.9915 C   0  0  0  0  0  0  0  0  0  0  0  0
   -9.3821    5.3456   25.7061 C   0  0  0  0  0  0  0  0  0  0  0  0
  1  2  1  0
  2  8  2  0
  6  9  1  0
  8 15  1  0
 15 16  2  0
  7 17  1  0
 16 17  1  0
  9 10  2  0
 10 11  1  0
 11 12  2  0
 12 14  1  0
 14 13  2  0
 13  9  1  0
  1  3  2  0
  3  4  1  0
  4  5  2  0
  5  6  1  0
  6  7  2  0
  7  1  1  0
M  END
$$$$
