No_88-complexes_sdf/6BKW-FPZ/2024-09-17-14-21-01/
     RDKit          3D

 19 21  0  0  0  0  0  0  0  0999 V2000
   -7.2496    3.8871   27.4508 C   0  0  0  0  0  0  0  0  0  0  0  0
   -7.9379    4.9063   27.8518 C   0  0  0  0  0  0  0  0  0  0  0  0
   -9.3376    4.8647   27.7795 C   0  0  0  0  0  0  0  0  0  0  0  0
   -7.8544    2.6294   27.0414 C   0  0  0  0  0  0  0  0  0  0  0  0
   -9.2665    2.6175   27.0340 C   0  0  0  0  0  0  0  0  0  0  0  0
   -9.9111    1.3868   26.6335 C   0  0  0  0  0  0  0  0  0  0  0  0
   -9.9845    3.7153   27.4660 C   0  0  0  0  0  0  0  0  0  0  0  0
  -10.8907    1.3640   26.0163 C   0  0  0  0  0  0  0  0  0  0  0  0
   -9.2884    0.1458   27.1734 C   0  0  0  0  0  0  0  0  0  0  0  0
  -10.0142   -1.0234   27.1500 C   0  0  0  0  0  0  0  0  0  0  0  0
  -11.6153    0.1137   25.7400 C   0  0  0  0  0  0  0  0  0  0  0  0
  -11.0996   -1.0811   26.2736 C   0  0  0  0  0  0  0  0  0  0  0  0
   -7.1549    6.4100   28.2358 Cl  0  0  0  0  0  0  0  0  0  0  0  0
  -12.8092    0.0693   24.9191 C   0  0  0  0  0  0  0  0  0  0  0  0
  -13.3116   -0.7502   24.4666 C   0  0  0  0  0  0  0  0  0  0  0  0
  -14.5276   -0.7035   23.6104 C   0  0  0  0  0  0  0  0  0  0  0  0
  -15.0006    0.5589   23.3552 C   0  0  0  0  0  0  0  0  0  0  0  0
  -14.3883    1.6512   23.8620 C   0  0  0  0  0  0  0  0  0  0  0  0
  -13.2735    1.5528   24.6717 C   0  0  0  0  0  0  0  0  0  0  0  0
  5  6  1  0
  2 13  1  0
 11 14  1  0
 14 15  2  0
 15 16  1  0
 16 17  2  0
 17 18  1  0
 18 19  2  0
 19 14  1  0
  6  8  2  0
  8 11  1  0
 11 12  2  0
 12 10  1  0
 10  9  2  0
  9  6  1  0
  1  2  2  0
  2  3  1  0
  3  7  2  0
  7  5  1  0
  5  4  2  0
  4  1  1  0
M  END
$$$$
