No_8210-complexes_sdf/6BKW-FPZ/2024-09-17-14-21-01/
     RDKit          3D

 27 30  0  0  0  0  0  0  0  0999 V2000
   -7.7129    4.2099   27.0854 C   0  0  0  0  0  0  0  0  0  0  0  0
   -7.7814    5.1722   27.8972 C   0  0  0  0  0  0  0  0  0  0  0  0
   -8.8776    3.8408   26.3416 C   0  0  0  0  0  0  0  0  0  0  0  0
   -9.9844    4.6492   26.4743 C   0  0  0  0  0  0  0  0  0  0  0  0
   -8.7830    6.1594   27.8870 C   0  0  0  0  0  0  0  0  0  0  0  0
   -9.9269    5.8191   27.1183 C   0  0  0  0  0  0  0  0  0  0  0  0
   -8.8833    2.5999   25.5655 C   0  0  0  0  0  0  0  0  0  0  0  0
   -8.2775    1.4603   26.1626 C   0  0  1  0  0  0  0  0  0  0  0  0
   -7.8852    1.5176   27.4500 C   0  0  0  0  0  0  0  0  0  0  0  0
   -7.1250    2.7842   27.8486 C   0  0  0  0  0  0  0  0  0  0  0  0
  -11.1172    4.4303   25.5564 C   0  0  0  0  0  0  0  0  0  0  0  0
  -12.2275    3.8308   25.9589 C   0  0  0  0  0  0  0  0  0  0  0  0
  -13.3512    3.7032   25.2491 C   0  0  0  0  0  0  0  0  0  0  0  0
  -10.9392    4.5782   24.1490 C   0  0  0  0  0  0  0  0  0  0  0  0
  -11.9705    4.4621   23.3078 C   0  0  0  0  0  0  0  0  0  0  0  0
  -13.2085    4.0622   23.8320 C   0  0  0  0  0  0  0  0  0  0  0  0
   -8.4778    0.1888   25.5213 C   0  0  0  0  0  0  0  0  0  0  0  0
   -9.4846   -0.3541   25.3893 C   0  0  0  0  0  0  0  0  0  0  0  0
   -9.6895   -1.5925   24.6670 C   0  0  0  0  0  0  0  0  0  0  0  0
   -7.3866   -0.7789   25.9256 C   0  0  0  0  0  0  0  0  0  0  0  0
  -10.9059   -1.9426   24.1407 C   0  0  0  0  0  0  0  0  0  0  0  0
   -7.3647   -2.0066   25.1854 C   0  0  0  0  0  0  0  0  0  0  0  0
   -8.5760   -2.4264   24.6763 C   0  0  0  0  0  0  0  0  0  0  0  0
  -11.8902   -1.1448   24.0446 C   0  0  0  0  0  0  0  0  0  0  0  0
  -13.1097   -1.4157   23.4606 C   0  0  0  0  0  0  0  0  0  0  0  0
  -13.2510   -2.6725   22.9571 C   0  0  0  0  0  0  0  0  0  0  0  0
  -12.2579   -3.5762   23.0182 C   0  0  0  0  0  0  0  0  0  0  0  0
  3  7  1  0
  7  8  1  0
  8  9  1  0
  1 10  1  0
  9 10  1  0
  4 11  1  0
  8 17  1  1
 21 24  1  0
 24 25  2  3
 25 26  1  0
 26 27  2  0
 21 19  1  0
 17 18  2  0
 18 19  1  0
 19 23  2  0
 23 22  1  0
 22 20  2  0
 20 17  1  0
  1  2  2  0
  2  5  1  0
  5  6  2  0
  6  4  1  0
  4  3  2  0
  3  1  1  0
 11 12  2  0
 12 13  1  0
 13 16  2  0
 16 15  1  0
 15 14  2  0
 14 11  1  0
M  END
$$$$
