No_8685-complexes_sdf/6BKW-FPZ/2024-09-17-14-21-01/
     RDKit          3D

 14 15  0  0  0  0  0  0  0  0999 V2000
   -7.7129    4.2099   27.0854 C   0  0  0  0  0  0  0  0  0  0  0  0
   -7.7814    5.1722   27.8972 C   0  0  0  0  0  0  0  0  0  0  0  0
   -8.8998    3.8713   26.3707 C   0  0  0  0  0  0  0  0  0  0  0  0
   -8.9563    2.6796   25.5490 C   0  0  0  0  0  0  0  0  0  0  0  0
   -8.8131    6.1334   27.9344 C   0  0  0  0  0  0  0  0  0  0  0  0
   -9.9804    5.8121   27.1929 C   0  0  0  0  0  0  0  0  0  0  0  0
   -9.9861    4.6836   26.4532 C   0  0  0  0  0  0  0  0  0  0  0  0
   -9.7347    1.7154   26.0600 C   0  0  0  0  0  0  0  0  0  0  0  0
  -10.6598    1.6623   26.7473 C   0  0  0  0  0  0  0  0  0  0  0  0
  -11.3329    0.4263   27.2887 C   0  0  0  0  0  0  0  0  0  0  0  0
  -10.7785   -0.7291   26.8217 C   0  0  0  0  0  0  0  0  0  0  0  0
   -9.3187    0.2121   25.7423 C   0  0  0  0  0  0  0  0  0  0  0  0
   -9.8482   -0.8437   26.1026 C   0  0  0  0  0  0  0  0  0  0  0  0
   -7.6767   -0.0519   24.6489 Br  0  0  0  0  0  0  0  0  0  0  0  0
  3  4  1  0
  4  8  1  0
 12 14  1  0
  1  2  2  0
  2  5  1  0
  5  6  2  0
  6  7  1  0
  7  3  2  0
  3  1  1  0
  8  9  2  0
  9 10  1  0
 10 11  2  0
 11 13  1  0
 13 12  2  0
 12  8  1  0
M  END
$$$$
