No_8558-complexes_sdf/6BKW-FPZ/2024-09-17-14-21-01/
     RDKit          3D

 23 26  0  0  0  0  0  0  0  0999 V2000
   -7.2496    3.8871   27.4508 C   0  0  0  0  0  0  0  0  0  0  0  0
   -7.9379    4.9063   27.8518 C   0  0  0  0  0  0  0  0  0  0  0  0
   -7.4895    6.2027   27.7481 C   0  0  0  0  0  0  0  0  0  0  0  0
   -7.8057    2.6324   27.3137 C   0  0  0  0  0  0  0  0  0  0  0  0
   -7.1675    1.4766   26.8108 C   0  0  0  0  0  0  0  0  0  0  0  0
   -9.2368    2.5282   27.5897 C   0  0  0  0  0  0  0  0  0  0  0  0
   -9.8761    1.2499   27.3233 C   0  0  0  0  0  0  0  0  0  0  0  0
   -7.7874    0.3140   26.5977 C   0  0  0  0  0  0  0  0  0  0  0  0
   -9.1776    0.1930   26.9300 C   0  0  0  0  0  0  0  0  0  0  0  0
   -9.3717    4.7835   28.1848 C   0  0  0  0  0  0  0  0  0  0  0  0
  -10.0086    3.5702   28.0764 C   0  0  0  0  0  0  0  0  0  0  0  0
   -7.5833    7.2948   27.0685 N   0  0  0  0  0  0  0  0  0  0  0  0
  -11.3805    3.4479   28.4400 C   0  0  0  0  0  0  0  0  0  0  0  0
  -12.3027    4.2671   27.8792 C   0  0  0  0  0  0  0  0  0  0  0  0
  -13.6851    4.2632   28.1950 C   0  0  0  0  0  0  0  0  0  0  0  0
  -14.5532    5.0841   27.5208 C   0  0  0  0  0  0  0  0  0  0  0  0
  -15.6919    5.5222   28.0703 C   0  0  0  0  0  0  0  0  0  0  0  0
  -16.1494    4.9260   29.2472 C   0  0  0  0  0  0  0  0  0  0  0  0
  -15.3440    4.1288   29.9409 C   0  0  0  0  0  0  0  0  0  0  0  0
  -14.0329    3.8898   29.5440 C   0  0  0  0  0  0  0  0  0  0  0  0
   -8.6441    7.3504   26.1912 C   0  0  0  0  0  0  0  0  0  0  0  0
  -13.1745    3.0137   30.3560 C   0  0  0  0  0  0  0  0  0  0  0  0
  -11.6978    3.2755   30.0392 C   0  0  0  0  0  0  0  0  0  0  0  0
  2  3  1  0
  3 12  1  0
 11 13  1  0
 12 21  1  0
 13 14  2  0
 14 15  1  0
 20 22  1  0
 22 23  2  0
 23 13  1  0
  1  2  2  0
  2 10  1  0
 10 11  2  0
 11  6  1  0
  4  1  1  0
 15 16  2  0
 16 17  1  0
 17 18  2  0
 18 19  1  0
 19 20  2  0
 20 15  1  0
  4  5  2  0
  5  8  1  0
  8  9  2  0
  9  7  1  0
  7  6  2  0
  6  4  1  0
M  END
$$$$
