No_8022-complexes_sdf/6BKW-FPZ/2024-09-17-14-21-01/
     RDKit          3D

 36 41  0  0  0  0  0  0  0  0999 V2000
   -7.7129    4.2099   27.0854 C   0  0  0  0  0  0  0  0  0  0  0  0
   -7.7814    5.1722   27.8972 C   0  0  0  0  0  0  0  0  0  0  0  0
   -8.8255    3.2789   27.1191 C   0  0  0  0  0  0  0  0  0  0  0  0
   -9.9209    3.4734   27.9101 C   0  0  0  0  0  0  0  0  0  0  0  0
   -9.9736    4.7085   28.6831 C   0  0  0  0  0  0  0  0  0  0  0  0
   -8.8840    5.5441   28.6612 C   0  0  0  0  0  0  0  0  0  0  0  0
   -8.7059    2.0159   26.3410 C   0  0  0  0  0  0  0  0  0  0  0  0
   -9.1116    1.1510   26.6765 C   0  0  0  0  0  0  0  0  0  0  0  0
  -10.3573    1.1585   27.6163 C   0  0  0  0  0  0  0  0  0  0  0  0
  -10.7209    2.3583   28.1982 C   0  0  0  0  0  0  0  0  0  0  0  0
   -9.0668   -0.2665   25.9983 C   0  0  1  0  0  0  0  0  0  0  0  0
   -9.3088   -0.4761   24.8588 C   0  0  0  0  0  0  0  0  0  0  0  0
   -8.9660   -1.5929   24.1891 C   0  0  0  0  0  0  0  0  0  0  0  0
   -9.1880   -1.7571   22.7455 C   0  0  0  0  0  0  0  0  0  0  0  0
   -9.6375   -0.6392   21.9814 C   0  0  0  0  0  0  0  0  0  0  0  0
   -9.8310    0.5759   22.6190 C   0  0  0  0  0  0  0  0  0  0  0  0
   -9.6175    0.7297   23.9292 C   0  0  0  0  0  0  0  0  0  0  0  0
   -8.4792   -1.2905   26.9329 C   0  0  0  0  0  0  0  0  0  0  0  0
   -7.0853   -1.3531   26.9712 C   0  0  0  0  0  0  0  0  0  0  0  0
   -6.2461   -0.6580   26.9816 C   0  0  0  0  0  0  0  0  0  0  0  0
   -4.8161   -0.8571   27.1286 C   0  0  0  0  0  0  0  0  0  0  0  0
   -4.4035   -2.1295   27.0910 C   0  0  0  0  0  0  0  0  0  0  0  0
   -6.6167   -2.8184   27.1424 C   0  0  0  0  0  0  0  0  0  0  0  0
   -5.3072   -3.1224   27.1790 C   0  0  0  0  0  0  0  0  0  0  0  0
   -9.4316   -2.0209   27.6693 C   0  0  0  0  0  0  0  0  0  0  0  0
  -10.1408   -3.0583   27.0901 C   0  0  0  0  0  0  0  0  0  0  0  0
  -11.1147   -3.7254   27.8019 C   0  0  0  0  0  0  0  0  0  0  0  0
  -11.2641   -3.4408   29.1858 C   0  0  0  0  0  0  0  0  0  0  0  0
  -10.5298   -2.4562   29.8152 C   0  0  0  0  0  0  0  0  0  0  0  0
   -9.5817   -1.7473   29.0765 C   0  0  0  0  0  0  0  0  0  0  0  0
  -10.1921    1.7330   21.7394 C   0  0  0  0  0  0  0  0  0  0  0  0
   -9.5583    2.9310   21.9727 C   0  0  0  0  0  0  0  0  0  0  0  0
  -10.0269    4.0872   21.2321 C   0  0  0  0  0  0  0  0  0  0  0  0
  -10.8507    3.9249   20.1137 C   0  0  0  0  0  0  0  0  0  0  0  0
  -11.0246    1.6075   20.6584 C   0  0  0  0  0  0  0  0  0  0  0  0
  -11.3407    2.7074   19.8439 C   0  0  0  0  0  0  0  0  0  0  0  0
  8 11  1  0
 11 12  1  0
 11 18  1  6
 18 19  1  0
 18 25  1  0
 16 31  1  0
 12 13  2  0
 13 14  1  0
 14 15  2  0
 15 16  1  0
 16 17  2  0
 17 12  1  0
 25 26  2  0
 26 27  1  0
 27 28  2  0
 28 29  1  0
 29 30  2  0
 30 25  1  0
 31 32  2  0
 32 33  1  0
 33 34  2  0
 34 36  1  0
 36 35  2  0
 35 31  1  0
  4 10  2  0
 10  9  1  0
  9  8  2  0
  8  7  1  0
  7  3  2  0
 19 20  2  0
 20 21  1  0
 21 22  2  0
 22 24  1  0
 24 23  2  0
 23 19  1  0
  1  2  2  0
  2  6  1  0
  6  5  2  0
  5  4  1  0
  4  3  1  0
  3  1  1  0
M  END
$$$$
