No_8854-complexes_sdf/6BKW-FPZ/2024-09-17-14-21-01/
     RDKit          3D

 29 31  0  0  0  0  0  0  0  0999 V2000
   -7.9040    3.9820   27.1177 C   0  0  0  0  0  0  0  0  0  0  0  0
   -8.2057    2.8231   26.8733 C   0  0  0  0  0  0  0  0  0  0  0  0
   -8.7695    5.0740   26.7916 C   0  0  0  0  0  0  0  0  0  0  0  0
   -9.9618    4.7598   26.1630 C   0  0  0  0  0  0  0  0  0  0  0  0
   -7.3763    1.7038   27.3414 C   0  0  1  0  0  0  0  0  0  0  0  0
   -9.4562    2.5223   26.2873 C   0  0  0  0  0  0  0  0  0  0  0  0
  -10.2710    3.4837   25.9308 C   0  0  0  0  0  0  0  0  0  0  0  0
   -7.7225    0.4091   27.2145 N   0  0  0  0  0  0  0  0  0  0  0  0
   -8.8784   -0.0013   27.1209 C   0  0  0  0  0  0  0  0  0  0  0  0
   -9.9010    1.0770   26.3072 C   0  0  1  0  0  0  0  0  0  0  0  0
   -6.1708    2.0065   27.7649 F   0  0  0  0  0  0  0  0  0  0  0  0
   -8.3189    6.5076   27.0233 C   0  0  0  0  0  0  0  0  0  0  0  0
   -8.3035    6.8668   28.1996 F   0  0  0  0  0  0  0  0  0  0  0  0
   -9.1844    7.3650   26.3285 F   0  0  0  0  0  0  0  0  0  0  0  0
   -7.0777    6.7280   26.5719 F   0  0  0  0  0  0  0  0  0  0  0  0
   -6.7564   -0.6341   27.6091 C   0  0  2  0  0  0  0  0  0  0  0  0
   -6.1858   -1.2283   26.7003 C   0  0  0  0  0  0  0  0  0  0  0  0
   -4.9215   -1.3354   26.6382 C   0  0  0  0  0  0  0  0  0  0  0  0
   -4.0271   -1.1434   27.7669 C   0  0  0  0  0  0  0  0  0  0  0  0
   -4.6778   -0.5089   28.8961 C   0  0  0  0  0  0  0  0  0  0  0  0
   -3.9090   -0.2408   30.1112 C   0  0  0  0  0  0  0  0  0  0  0  0
   -7.0106   -1.2185   28.8537 C   0  0  0  0  0  0  0  0  0  0  0  0
   -5.9797   -0.7365   29.4096 C   0  0  0  0  0  0  0  0  0  0  0  0
   -2.5925    0.1789   29.9346 N   0  0  0  0  0  0  0  0  0  0  0  0
   -4.3840    0.0781   31.2160 F   0  0  0  0  0  0  0  0  0  0  0  0
  -11.1029    0.6330   25.8992 C   0  0  0  0  0  0  0  0  0  0  0  0
  -11.6490   -0.2388   26.5554 N   0  0  0  0  0  0  0  0  0  0  0  0
  -12.5918   -0.4785   27.0830 C   0  0  0  0  0  0  0  0  0  0  0  0
  -12.9605   -1.6767   27.8410 C   0  0  0  0  0  0  0  0  0  0  0  0
  2  5  1  0
  5  8  1  0
  8  9  1  0
  6 10  1  0
  9 10  1  0
  5 11  1  6
  3 12  1  0
 12 13  1  0
 12 14  1  0
 12 15  1  0
 16  8  1  6
 16 17  1  0
 17 18  2  0
 18 19  1  0
 19 20  2  0
 20 21  1  0
 16 22  1  0
 20 23  1  0
 22 23  2  0
 21 24  2  0
 21 25  1  0
 10 26  1  1
 26 27  1  0
 27 28  1  0
 28 29  2  0
  1  2  2  0
  2  6  1  0
  6  7  2  0
  7  4  1  0
  4  3  2  0
  3  1  1  0
M  END
$$$$
