No_8673-complexes_sdf/6BKW-FPZ/2024-09-17-14-21-01/
     RDKit          3D

 31 34  0  0  0  0  0  0  0  0999 V2000
   -7.9040    3.9820   27.1177 C   0  0  0  0  0  0  0  0  0  0  0  0
   -8.2057    2.8231   26.8733 C   0  0  0  0  0  0  0  0  0  0  0  0
   -8.7695    5.0740   26.7916 C   0  0  0  0  0  0  0  0  0  0  0  0
   -9.9618    4.7598   26.1630 C   0  0  0  0  0  0  0  0  0  0  0  0
   -9.4200    2.4524   26.2849 C   0  0  0  0  0  0  0  0  0  0  0  0
  -10.7989    5.8003   25.8260 C   0  0  0  0  0  0  0  0  0  0  0  0
  -10.2599    3.4425   25.9002 C   0  0  0  0  0  0  0  0  0  0  0  0
   -7.2417    1.6701   27.2668 C   0  0  0  0  0  0  0  0  0  0  0  0
   -6.6468    0.9737   26.7458 C   0  0  1  0  0  0  0  0  0  0  0  0
   -5.6405    0.1345   27.4365 C   0  0  0  0  0  0  0  0  0  0  0  0
   -4.4054    0.3517   27.2370 C   0  0  0  0  0  0  0  0  0  0  0  0
   -3.3890   -0.1590   28.1430 C   0  0  0  0  0  0  0  0  0  0  0  0
   -3.6385   -0.7368   28.9981 C   0  0  0  0  0  0  0  0  0  0  0  0
   -4.9798   -1.0632   29.4496 C   0  0  0  0  0  0  0  0  0  0  0  0
   -6.0009   -0.5096   28.6536 C   0  0  0  0  0  0  0  0  0  0  0  0
   -5.4093   -1.7978   30.6523 C   0  0  0  0  0  0  0  0  0  0  0  0
   -6.2421   -2.3033   30.9824 C   0  0  0  0  0  0  0  0  0  0  0  0
   -6.5837   -2.9080   32.2693 C   0  0  0  0  0  0  0  0  0  0  0  0
   -5.9646   -2.4771   33.0888 C   0  0  0  0  0  0  0  0  0  0  0  0
   -4.6272   -1.4075   32.0388 C   0  0  0  0  0  0  0  0  0  0  0  0
   -4.8451   -1.7198   33.1664 C   0  0  0  0  0  0  0  0  0  0  0  0
   -8.3621    6.4725   27.1135 C   0  0  0  0  0  0  0  0  0  0  0  0
   -7.8250    7.3884   26.5144 C   0  0  0  0  0  0  0  0  0  0  0  0
   -7.2746   -0.0180   25.7949 O   0  0  0  0  0  0  0  0  0  0  0  0
   -6.9372    0.0626   24.5413 C   0  0  0  0  0  0  0  0  0  0  0  0
   -8.1667   -0.0894   23.7448 C   0  0  0  0  0  0  0  0  0  0  0  0
   -9.2685    0.1716   24.2095 C   0  0  0  0  0  0  0  0  0  0  0  0
  -10.4945    0.1159   23.4119 C   0  0  0  0  0  0  0  0  0  0  0  0
  -10.2750   -0.1662   22.0347 C   0  0  0  0  0  0  0  0  0  0  0  0
   -9.0116   -0.4202   21.4988 C   0  0  0  0  0  0  0  0  0  0  0  0
   -7.9214   -0.3721   22.3654 C   0  0  0  0  0  0  0  0  0  0  0  0
  4  6  1  0
  2  8  1  0
  9  8  1  1
  9 10  1  0
 14 16  1  0
  3 22  1  0
 22 23  2  0
  9 24  1  0
 24 25  1  0
 25 26  1  0
 26 27  2  0
 27 28  1  0
 28 29  2  0
 29 30  1  0
 30 31  2  0
 31 26  1  0
 16 17  2  0
 17 18  1  0
 18 19  2  0
 19 21  1  0
 21 20  2  0
 20 16  1  0
 10 11  2  0
 11 12  1  0
 12 13  2  0
 13 14  1  0
 14 15  2  0
 15 10  1  0
  1  2  2  0
  2  5  1  0
  5  7  2  0
  7  4  1  0
  4  3  2  0
  3  1  1  0
M  END
$$$$
