No_8766-complexes_sdf/6BKW-FPZ/2024-09-17-14-21-01/
     RDKit          3D

 17 19  0  0  0  0  0  0  0  0999 V2000
   -7.7129    4.2099   27.0854 C   0  0  0  0  0  0  0  0  0  0  0  0
   -7.7814    5.1722   27.8972 C   0  0  0  0  0  0  0  0  0  0  0  0
   -7.3155    2.9699   27.6145 C   0  0  0  0  0  0  0  0  0  0  0  0
   -7.9010    1.7962   27.2023 C   0  0  0  0  0  0  0  0  0  0  0  0
   -8.9578    1.9047   26.2707 C   0  0  0  0  0  0  0  0  0  0  0  0
   -9.3989    3.1000   25.8096 C   0  0  0  0  0  0  0  0  0  0  0  0
   -8.8948    4.1615   26.3218 C   0  0  0  0  0  0  0  0  0  0  0  0
   -8.2271    6.4668   27.5438 N   0  0  0  0  0  0  0  0  0  0  0  0
   -9.1092    6.6799   26.5572 C   0  0  0  0  0  0  0  0  0  0  0  0
   -9.5065    5.5006   25.9551 C   0  0  0  0  0  0  0  0  0  0  0  0
   -7.2777    0.5034   27.5378 C   0  0  0  0  0  0  0  0  0  0  0  0
   -5.9580    0.3713   27.9713 C   0  0  0  0  0  0  0  0  0  0  0  0
   -5.4308   -0.8509   28.3879 C   0  0  0  0  0  0  0  0  0  0  0  0
   -4.0658   -0.9017   28.8326 C   0  0  0  0  0  0  0  0  0  0  0  0
   -3.2659    0.2331   28.7493 C   0  0  0  0  0  0  0  0  0  0  0  0
   -3.8270    1.4202   28.2839 C   0  0  0  0  0  0  0  0  0  0  0  0
   -5.0809    1.5119   27.9172 C   0  0  0  0  0  0  0  0  0  0  0  0
  4 11  1  0
 11 12  1  0
 12 13  2  0
 13 14  1  0
 14 15  2  0
 15 16  1  0
 16 17  2  0
 17 12  1  0
  1  2  2  0
  2  8  1  0
  8  9  2  0
  9 10  1  0
 10  7  2  0
  1  3  1  0
  3  4  2  0
  4  5  1  0
  5  6  2  0
  6  7  1  0
  7  1  1  0
M  END
$$$$
