No_8544-complexes_sdf/6BKW-FPZ/2024-09-17-14-21-01/
     RDKit          3D

 27 29  0  0  0  0  0  0  0  0999 V2000
   -7.7129    4.2099   27.0854 C   0  0  0  0  0  0  0  0  0  0  0  0
   -8.9133    4.4736   27.0998 C   0  0  0  0  0  0  0  0  0  0  0  0
   -9.7937    3.7367   26.2091 C   0  0  0  0  0  0  0  0  0  0  0  0
   -6.8266    5.0441   28.0594 C   0  0  0  0  0  0  0  0  0  0  0  0
   -9.2322    2.6276   25.6126 C   0  0  0  0  0  0  0  0  0  0  0  0
   -7.9794    2.1924   25.9863 C   0  0  0  0  0  0  0  0  0  0  0  0
   -7.2411    2.9387   26.9009 C   0  0  0  0  0  0  0  0  0  0  0  0
  -10.0593    1.7685   24.7435 C   0  0  0  0  0  0  0  0  0  0  0  0
  -10.6600    2.2245   23.7631 C   0  0  0  0  0  0  0  0  0  0  0  0
  -11.2378    1.4890   22.7359 C   0  0  0  0  0  0  0  0  0  0  0  0
  -11.1249    0.0580   22.8504 C   0  0  0  0  0  0  0  0  0  0  0  0
   -9.8316    0.3472   24.7189 C   0  0  0  0  0  0  0  0  0  0  0  0
  -10.4058   -0.4600   23.8149 C   0  0  0  0  0  0  0  0  0  0  0  0
   -9.2774    5.9205   27.3954 C   0  0  0  0  0  0  0  0  0  0  0  0
   -8.8377    7.0067   26.5641 C   0  0  0  0  0  0  0  0  0  0  0  0
  -10.8699    3.7519   23.4962 C   0  0  2  0  0  0  0  0  0  0  0  0
  -11.7447    4.4442   24.2463 C   0  0  0  0  0  0  0  0  0  0  0  0
  -10.2072    4.4095   22.4087 C   0  0  0  0  0  0  0  0  0  0  0  0
  -10.2855   -1.9325   23.9306 C   0  0  0  0  0  0  0  0  0  0  0  0
   -9.5210   -2.5334   23.3919 O   0  0  0  0  0  0  0  0  0  0  0  0
  -11.3369   -2.4626   24.5917 O   0  0  0  0  0  0  0  0  0  0  0  0
  -13.0200    4.7342   23.6184 C   0  0  0  0  0  0  0  0  0  0  0  0
  -13.9355    4.0052   23.4680 C   0  0  0  0  0  0  0  0  0  0  0  0
  -15.0775    4.3221   22.6715 C   0  0  0  0  0  0  0  0  0  0  0  0
  -15.1412    5.6131   22.1773 C   0  0  0  0  0  0  0  0  0  0  0  0
  -14.1274    6.5202   22.3740 C   0  0  0  0  0  0  0  0  0  0  0  0
  -13.0003    6.1117   23.0254 C   0  0  0  0  0  0  0  0  0  0  0  0
  1  4  1  0
  5  8  1  0
  2 14  1  0
 14 15  1  0
  9 16  1  0
 16 17  1  0
 16 18  1  6
 13 19  1  0
 19 20  2  0
 19 21  1  0
 17 22  1  0
 22 23  2  0
 23 24  1  0
 24 25  2  0
 25 26  1  0
 26 27  2  0
 27 22  1  0
  8  9  1  0
  9 10  2  0
 10 11  1  0
 11 13  2  0
 13 12  1  0
 12  8  2  0
  1  2  2  0
  2  3  1  0
  3  5  2  0
  5  6  1  0
  6  7  2  0
  7  1  1  0
M  END
$$$$
