No_898-complexes_sdf/6BKW-FPZ/2024-09-17-14-21-01/
     RDKit          3D

 15 16  0  0  0  0  0  0  0  0999 V2000
   -7.9040    3.9820   27.1177 C   0  0  0  0  0  0  0  0  0  0  0  0
   -7.8663    4.8694   27.9238 C   0  0  0  0  0  0  0  0  0  0  0  0
   -9.0501    3.8017   26.2617 C   0  0  0  0  0  0  0  0  0  0  0  0
  -10.0189    4.7608   26.3707 C   0  0  0  0  0  0  0  0  0  0  0  0
   -8.6770    5.9780   27.9222 C   0  0  0  0  0  0  0  0  0  0  0  0
   -9.8040    5.8752   27.0958 C   0  0  0  0  0  0  0  0  0  0  0  0
   -9.1434    2.6226   25.4210 C   0  0  0  0  0  0  0  0  0  0  0  0
  -10.1282    1.8348   25.6605 C   0  0  0  0  0  0  0  0  0  0  0  0
  -11.0884    1.8353   26.2092 C   0  0  0  0  0  0  0  0  0  0  0  0
  -12.0092    0.7182   26.4592 C   0  0  0  0  0  0  0  0  0  0  0  0
  -11.6647   -0.4250   25.7950 C   0  0  0  0  0  0  0  0  0  0  0  0
   -9.9654    0.4814   24.8619 C   0  0  0  0  0  0  0  0  0  0  0  0
  -10.7011   -0.5672   25.0336 C   0  0  0  0  0  0  0  0  0  0  0  0
  -12.8023   -1.7954   26.0222 Cl  0  0  0  0  0  0  0  0  0  0  0  0
   -6.6581    2.5279   27.2017 Br  0  0  0  0  0  0  0  0  0  0  0  0
  3  7  1  0
  7  8  1  0
 11 14  1  0
  1 15  1  0
  1  2  2  0
  2  5  1  0
  5  6  2  0
  6  4  1  0
  4  3  2  0
  3  1  1  0
  8  9  2  0
  9 10  1  0
 10 11  2  0
 11 13  1  0
 13 12  2  0
 12  8  1  0
M  END
$$$$
