No_8788-complexes_sdf/6BKW-FPZ/2024-09-17-14-21-01/
     RDKit          3D

 18 20  0  0  0  0  0  0  0  0999 V2000
   -7.9040    3.9820   27.1177 C   0  0  0  0  0  0  0  0  0  0  0  0
   -9.0711    4.3164   27.0630 C   0  0  0  0  0  0  0  0  0  0  0  0
   -9.5294    5.4517   27.7215 C   0  0  0  0  0  0  0  0  0  0  0  0
   -6.9328    4.7309   27.8881 C   0  0  0  0  0  0  0  0  0  0  0  0
   -7.3666    5.8455   28.5488 C   0  0  0  0  0  0  0  0  0  0  0  0
   -8.6669    6.2428   28.4199 C   0  0  0  0  0  0  0  0  0  0  0  0
   -9.9775    3.4523   26.2361 C   0  0  0  0  0  0  0  0  0  0  0  0
  -10.4565    3.9065   25.1434 C   0  0  0  0  0  0  0  0  0  0  0  0
  -11.2377    3.2175   24.1693 C   0  0  0  0  0  0  0  0  0  0  0  0
  -11.4612    1.9087   24.4373 C   0  0  0  0  0  0  0  0  0  0  0  0
  -10.2068    2.1250   26.2320 C   0  0  0  0  0  0  0  0  0  0  0  0
  -10.8693    1.3286   25.4900 C   0  0  0  0  0  0  0  0  0  0  0  0
  -11.9453    3.7217   22.9885 C   0  0  0  0  0  0  0  0  0  0  0  0
  -12.0523    5.0364   22.9106 C   0  0  0  0  0  0  0  0  0  0  0  0
  -12.2248    2.9070   21.9314 C   0  0  0  0  0  0  0  0  0  0  0  0
  -12.9591    3.3460   20.9813 C   0  0  0  0  0  0  0  0  0  0  0  0
  -13.3294    4.6781   20.8630 C   0  0  0  0  0  0  0  0  0  0  0  0
  -12.9268    5.5912   21.8963 C   0  0  0  0  0  0  0  0  0  0  0  0
  2  7  1  0
  9 13  1  0
  7  8  2  0
  8  9  1  0
  9 10  2  0
 10 12  1  0
 12 11  2  0
 11  7  1  0
  1  2  2  0
  2  3  1  0
  3  6  2  0
  6  5  1  0
  5  4  2  0
  4  1  1  0
 13 14  2  0
 14 18  1  0
 18 17  2  0
 17 16  1  0
 16 15  2  0
 15 13  1  0
M  END
$$$$
