No_8638-complexes_sdf/6BKW-FPZ/2024-09-17-14-21-01/
     RDKit          3D

 39 44  0  0  0  0  0  0  0  0999 V2000
   -7.9040    3.9820   27.1177 C   0  0  0  0  0  0  0  0  0  0  0  0
   -9.0711    4.3164   27.0630 C   0  0  0  0  0  0  0  0  0  0  0  0
   -9.5182    5.5541   27.5777 C   0  0  0  0  0  0  0  0  0  0  0  0
   -6.9424    4.7983   27.8424 C   0  0  0  0  0  0  0  0  0  0  0  0
   -7.3526    5.9739   28.3909 C   0  0  0  0  0  0  0  0  0  0  0  0
   -8.6479    6.3742   28.2170 C   0  0  0  0  0  0  0  0  0  0  0  0
  -10.0793    3.4689   26.3368 C   0  0  0  0  0  0  0  0  0  0  0  0
   -9.6567    2.5965   25.4483 C   0  0  0  0  0  0  0  0  0  0  0  0
  -10.5086    1.8159   24.6228 C   0  0  0  0  0  0  0  0  0  0  0  0
  -11.8698    2.1070   24.6818 C   0  0  0  0  0  0  0  0  0  0  0  0
  -11.4792    3.7192   26.2197 C   0  0  0  0  0  0  0  0  0  0  0  0
  -12.3318    3.0883   25.5324 C   0  0  0  0  0  0  0  0  0  0  0  0
   -9.9693    0.7864   23.7389 C   0  0  0  0  0  0  0  0  0  0  0  0
  -10.4518   -0.1393   23.5984 C   0  0  0  0  0  0  0  0  0  0  0  0
   -9.9343   -1.1787   22.5593 C   0  0  0  0  0  0  0  0  0  0  0  0
   -8.7684   -0.8561   21.8893 C   0  0  0  0  0  0  0  0  0  0  0  0
   -8.1533    0.3521   22.1088 C   0  0  0  0  0  0  0  0  0  0  0  0
   -8.6893    1.2351   23.0325 C   0  0  0  0  0  0  0  0  0  0  0  0
   -8.1661   -1.7791   20.9308 C   0  0  0  0  0  0  0  0  0  0  0  0
   -8.7768   -2.1274   19.7982 N   0  0  0  0  0  0  0  0  0  0  0  0
   -9.7977   -1.5615   19.3910 C   0  0  0  0  0  0  0  0  0  0  0  0
  -10.3056   -1.9026   18.0505 C   0  0  0  0  0  0  0  0  0  0  0  0
   -8.0435   -2.8276   18.7019 C   0  0  0  0  0  0  0  0  0  0  0  0
   -9.2548   -2.6933   17.5742 C   0  0  0  0  0  0  0  0  0  0  0  0
   -6.9803   -2.2392   21.1765 O   0  0  0  0  0  0  0  0  0  0  0  0
   -9.0833   -3.3040   16.3532 C   0  0  0  0  0  0  0  0  0  0  0  0
   -9.8780   -3.1996   15.5189 C   0  0  0  0  0  0  0  0  0  0  0  0
  -11.0908   -2.4148   15.7257 C   0  0  0  0  0  0  0  0  0  0  0  0
  -11.2738   -1.7017   17.1524 C   0  0  0  0  0  0  0  0  0  0  0  0
  -13.7668    3.3784   25.5955 C   0  0  0  0  0  0  0  0  0  0  0  0
  -14.4127    3.8997   24.5946 C   0  0  0  0  0  0  0  0  0  0  0  0
  -14.5364    2.3355   26.3032 C   0  0  0  0  0  0  0  0  0  0  0  0
  -15.8043    2.4349   26.3140 C   0  0  0  0  0  0  0  0  0  0  0  0
  -15.7784    4.1455   24.5478 C   0  0  0  0  0  0  0  0  0  0  0  0
  -16.5025    3.3124   25.4021 C   0  0  0  0  0  0  0  0  0  0  0  0
  -17.9709    3.3492   25.3311 C   0  0  0  0  0  0  0  0  0  0  0  0
  -18.5729    3.2562   24.4492 C   0  0  0  0  0  0  0  0  0  0  0  0
  -20.0670    3.3021   24.4193 C   0  0  0  0  0  0  0  0  0  0  0  0
  -20.8400    3.2082   23.2580 C   0  0  0  0  0  0  0  0  0  0  0  0
  2  7  1  0
  9 13  1  0
 16 19  1  0
 19 20  1  0
 20 21  1  0
 20 23  1  0
 23 24  1  0
 19 25  2  0
 12 30  1  0
 35 36  1  0
 36 37  2  3
 37 38  1  0
 38 39  2  0
 21 22  1  0
  1  2  2  0
  2  3  1  0
  3  6  2  0
  6  5  1  0
  5  4  2  0
  4  1  1  0
 22 24  2  0
 24 26  1  0
 26 27  2  0
 27 28  1  0
 28 29  2  0
 29 22  1  0
 30 31  2  0
 31 34  1  0
 34 35  2  0
 35 33  1  0
 33 32  2  0
 32 30  1  0
  7  8  2  0
  8  9  1  0
  9 10  2  0
 10 12  1  0
 12 11  2  0
 11  7  1  0
 13 14  2  0
 14 15  1  0
 15 16  2  0
 16 17  1  0
 17 18  2  0
 18 13  1  0
M  END
$$$$
