No_8994-complexes_sdf/6BKW-FPZ/2024-09-17-14-21-01/
     RDKit          3D

 15 16  0  0  0  0  0  0  0  0999 V2000
   -7.7129    4.2099   27.0854 C   0  0  0  0  0  0  0  0  0  0  0  0
   -8.9133    4.4736   27.0998 C   0  0  0  0  0  0  0  0  0  0  0  0
   -9.4643    5.5426   27.7628 C   0  0  0  0  0  0  0  0  0  0  0  0
   -7.2009    2.9448   26.6134 C   0  0  0  0  0  0  0  0  0  0  0  0
   -8.1365    1.9533   26.2981 C   0  0  0  0  0  0  0  0  0  0  0  0
   -9.4501    2.2651   26.2497 C   0  0  0  0  0  0  0  0  0  0  0  0
   -9.8615    3.4703   26.6763 C   0  0  0  0  0  0  0  0  0  0  0  0
   -7.5886    0.6540   25.9006 C   0  0  0  0  0  0  0  0  0  0  0  0
   -6.7764   -0.0640   26.8362 C   0  0  0  0  0  0  0  0  0  0  0  0
   -6.5038    0.5405   28.1628 C   0  0  0  0  0  0  0  0  0  0  0  0
   -5.5699   -0.1313   29.0028 C   0  0  0  0  0  0  0  0  0  0  0  0
   -5.0209   -1.3016   28.5434 C   0  0  0  0  0  0  0  0  0  0  0  0
   -5.2768   -1.8168   27.3288 C   0  0  0  0  0  0  0  0  0  0  0  0
   -6.1403   -1.1784   26.4774 C   0  0  0  0  0  0  0  0  0  0  0  0
   -3.8545   -2.0631   29.6216 Cl  0  0  0  0  0  0  0  0  0  0  0  0
  5  8  1  0
 12 15  1  0
  3  2  1  0
  8  9  1  0
  1  2  2  0
  2  7  1  0
  7  6  2  0
  6  5  1  0
  5  4  2  0
  4  1  1  0
  9 10  2  0
 10 11  1  0
 11 12  2  0
 12 13  1  0
 13 14  2  0
 14  9  1  0
M  END
$$$$
