No_8323-complexes_sdf/6BKW-FPZ/2024-09-17-14-21-01/
     RDKit          3D

 20 22  0  0  0  0  0  0  0  0999 V2000
   -7.9040    3.9820   27.1177 C   0  0  0  0  0  0  0  0  0  0  0  0
   -9.0711    4.3164   27.0630 C   0  0  0  0  0  0  0  0  0  0  0  0
   -9.5294    5.4517   27.7215 C   0  0  0  0  0  0  0  0  0  0  0  0
   -6.9328    4.7309   27.8881 C   0  0  0  0  0  0  0  0  0  0  0  0
   -7.3666    5.8455   28.5488 C   0  0  0  0  0  0  0  0  0  0  0  0
   -8.6669    6.2428   28.4199 C   0  0  0  0  0  0  0  0  0  0  0  0
   -9.8911    3.3806   26.1705 C   0  0  0  0  0  0  0  0  0  0  0  0
  -10.3490    3.8418   25.1016 N   0  0  0  0  0  0  0  0  0  0  0  0
  -10.2635    5.0661   24.6570 C   0  0  0  0  0  0  0  0  0  0  0  0
  -11.0414    2.8990   24.1940 C   0  0  0  0  0  0  0  0  0  0  0  0
  -11.3783    3.1863   23.1111 C   0  0  0  0  0  0  0  0  0  0  0  0
  -10.4258    5.2291   23.3466 N   0  0  0  0  0  0  0  0  0  0  0  0
  -11.0784    4.5077   22.5558 C   0  0  0  0  0  0  0  0  0  0  0  0
  -10.1401    2.2984   26.7301 O   0  0  0  0  0  0  0  0  0  0  0  0
  -11.3786    4.8925   21.3103 N   0  0  0  0  0  0  0  0  0  0  0  0
  -11.9814    2.3828   22.0115 C   0  0  0  0  0  0  0  0  0  0  0  0
  -12.3858    2.7223   20.8954 C   0  0  0  0  0  0  0  0  0  0  0  0
  -11.9881    4.0913   20.4356 C   0  0  0  0  0  0  0  0  0  0  0  0
   -5.6892    4.2956   28.0604 F   0  0  0  0  0  0  0  0  0  0  0  0
   -7.1016    2.5232   26.4963 Cl  0  0  0  0  0  0  0  0  0  0  0  0
  2  7  1  0
  7  8  1  0
  8  9  1  0
  8 10  1  0
  9 12  1  0
  7 14  2  0
  4 19  1  0
  1 20  1  0
 12 13  1  0
 11 10  1  0
  1  2  2  0
  2  3  1  0
  3  6  2  0
  6  5  1  0
  5  4  2  0
  4  1  1  0
 11 13  2  0
 13 15  1  0
 15 18  2  0
 18 17  1  0
 17 16  2  0
 16 11  1  0
M  END
$$$$
