No_8913-complexes_sdf/6BKW-FPZ/2024-09-17-14-21-01/
     RDKit          3D

 17 19  0  0  0  0  0  0  0  0999 V2000
   -7.7129    4.2099   27.0854 C   0  0  0  0  0  0  0  0  0  0  0  0
   -7.7814    5.1722   27.8972 C   0  0  0  0  0  0  0  0  0  0  0  0
   -7.2983    2.9533   27.5684 C   0  0  0  0  0  0  0  0  0  0  0  0
   -7.6908    1.8111   26.9553 C   0  0  1  0  0  0  0  0  0  0  0  0
   -8.6533    1.9165   25.9430 C   0  0  0  0  0  0  0  0  0  0  0  0
   -9.2376    3.0581   25.6387 C   0  0  0  0  0  0  0  0  0  0  0  0
   -8.8901    4.1760   26.2867 C   0  0  0  0  0  0  0  0  0  0  0  0
   -7.0384    5.3090   28.9540 N   0  0  0  0  0  0  0  0  0  0  0  0
   -8.3416    6.4369   27.4921 N   0  0  0  0  0  0  0  0  0  0  0  0
   -9.4458    5.4395   25.9045 C   0  0  0  0  0  0  0  0  0  0  0  0
   -9.0907    6.5316   26.5907 N   0  0  0  0  0  0  0  0  0  0  0  0
   -7.0303    0.5260   27.2625 C   0  0  0  0  0  0  0  0  0  0  0  0
   -5.7318    0.5001   27.7932 C   0  0  0  0  0  0  0  0  0  0  0  0
   -5.1379   -0.6931   28.1891 C   0  0  0  0  0  0  0  0  0  0  0  0
   -5.8647   -1.8460   28.0724 C   0  0  0  0  0  0  0  0  0  0  0  0
   -7.6285   -0.7156   27.3218 C   0  0  0  0  0  0  0  0  0  0  0  0
   -7.1394   -1.8367   27.6992 C   0  0  0  0  0  0  0  0  0  0  0  0
  1  3  1  0
  3  4  1  0
  4  5  1  0
  5  6  1  0
  6  7  1  0
  2  8  1  0
  4 12  1  6
 12 13  2  0
 13 14  1  0
 14 15  2  0
 15 17  1  0
 17 16  2  0
 16 12  1  0
  1  2  2  0
  2  9  1  0
  9 11  2  0
 11 10  1  0
 10  7  2  0
  7  1  1  0
M  END
$$$$
