No_8820-complexes_sdf/6BKW-FPZ/2024-09-17-14-21-01/
     RDKit          3D

 10 11  0  0  0  0  0  0  0  0999 V2000
   -7.7129    4.2099   27.0854 C   0  0  0  0  0  0  0  0  0  0  0  0
   -7.7814    5.1722   27.8972 C   0  0  0  0  0  0  0  0  0  0  0  0
   -8.8998    3.8713   26.3707 C   0  0  0  0  0  0  0  0  0  0  0  0
   -8.9563    2.6796   25.5490 C   0  0  0  0  0  0  0  0  0  0  0  0
   -8.8501    6.0071   27.8467 N   0  0  0  0  0  0  0  0  0  0  0  0
   -9.9490    5.7837   27.2002 C   0  0  0  0  0  0  0  0  0  0  0  0
   -9.9821    4.6597   26.4501 C   0  0  0  0  0  0  0  0  0  0  0  0
   -9.8588    2.5060   24.5406 C   0  0  0  0  0  0  0  0  0  0  0  0
  -10.9238    3.5307   24.5186 C   0  0  0  0  0  0  0  0  0  0  0  0
  -11.0051    4.4904   25.4513 C   0  0  0  0  0  0  0  0  0  0  0  0
  1  2  2  0
  2  5  1  0
  5  6  2  0
  6  7  1  0
  3  1  1  0
  3  4  2  0
  4  8  1  0
  8  9  2  0
  9 10  1  0
 10  7  2  0
  7  3  1  0
M  END
$$$$
