No_8381-complexes_sdf/6BKW-FPZ/2024-09-17-14-21-01/
     RDKit          3D

 32 36  0  0  0  0  0  0  0  0999 V2000
   -7.9040    3.9820   27.1177 C   0  0  0  0  0  0  0  0  0  0  0  0
   -9.0711    4.3164   27.0630 C   0  0  0  0  0  0  0  0  0  0  0  0
   -9.9692    3.7224   26.1073 C   0  0  0  0  0  0  0  0  0  0  0  0
   -6.9787    4.6761   28.1003 C   0  0  0  0  0  0  0  0  0  0  0  0
  -11.1978    4.2793   25.7845 C   0  0  0  0  0  0  0  0  0  0  0  0
  -11.9722    3.7671   24.7671 C   0  0  0  0  0  0  0  0  0  0  0  0
  -11.4321    2.7931   23.9433 C   0  0  0  0  0  0  0  0  0  0  0  0
  -10.2070    2.2970   24.1835 C   0  0  0  0  0  0  0  0  0  0  0  0
   -9.3944    2.8078   25.1975 C   0  0  0  0  0  0  0  0  0  0  0  0
   -7.5777    5.6148   28.8385 N   0  0  0  0  0  0  0  0  0  0  0  0
   -9.3431    5.3976   27.9859 C   0  0  0  0  0  0  0  0  0  0  0  0
   -8.6385    6.0244   28.7618 N   0  0  0  0  0  0  0  0  0  0  0  0
  -12.2390    2.2032   22.8370 C   0  0  0  0  0  0  0  0  0  0  0  0
  -11.7144    1.6844   21.9138 C   0  0  0  0  0  0  0  0  0  0  0  0
  -10.2696    1.1252   22.0510 C   0  0  0  0  0  0  0  0  0  0  0  0
   -9.5306    1.4629   23.1804 C   0  0  0  0  0  0  0  0  0  0  0  0
   -5.7222    4.2536   28.2512 N   0  0  0  0  0  0  0  0  0  0  0  0
  -12.3701    1.0604   20.7058 C   0  0  0  0  0  0  0  0  0  0  0  0
  -12.8541    1.9774   19.8703 C   0  0  0  0  0  0  0  0  0  0  0  0
  -12.4768   -0.2803   20.4341 C   0  0  0  0  0  0  0  0  0  0  0  0
  -13.0795   -0.7483   19.3928 C   0  0  0  0  0  0  0  0  0  0  0  0
  -13.5743    1.5663   18.6896 C   0  0  0  0  0  0  0  0  0  0  0  0
  -13.6423    0.2076   18.4629 C   0  0  0  0  0  0  0  0  0  0  0  0
  -14.3553   -0.2841   17.2641 C   0  0  0  0  0  0  0  0  0  0  0  0
  -15.4563    0.1691   16.8882 C   0  0  0  0  0  0  0  0  0  0  0  0
  -16.1139   -0.3269   15.7027 C   0  0  0  0  0  0  0  0  0  0  0  0
  -15.4919   -1.3602   15.0221 C   0  0  0  0  0  0  0  0  0  0  0  0
  -14.3018   -1.8462   15.4272 C   0  0  0  0  0  0  0  0  0  0  0  0
  -13.6253   -1.3496   16.5718 C   0  0  0  0  0  0  0  0  0  0  0  0
  -13.6479   -2.9415   14.6969 C   0  0  0  0  0  0  0  0  0  0  0  0
  -13.6468   -3.9772   15.0448 O   0  0  0  0  0  0  0  0  0  0  0  0
  -13.2979   -2.5182   13.4175 O   0  0  0  0  0  0  0  0  0  0  0  0
  2  3  1  0
  4 17  1  0
 14 18  1  0
 23 24  1  0
 28 30  1  0
 30 31  2  0
 30 32  1  0
  8 16  1  0
 16 15  2  0
 15 14  1  0
 14 13  2  0
 13  7  1  0
 24 25  2  0
 25 26  1  0
 26 27  2  0
 27 28  1  0
 28 29  2  0
 29 24  1  0
  3  5  2  0
  5  6  1  0
  6  7  2  0
  7  8  1  0
  8  9  2  0
  9  3  1  0
  1  2  2  0
  2 11  1  0
 11 12  2  0
 12 10  1  0
 10  4  2  0
  4  1  1  0
 18 19  2  0
 19 22  1  0
 22 23  2  0
 23 21  1  0
 21 20  2  0
 20 18  1  0
M  END
$$$$
