No_8028-complexes_sdf/6BKW-FPZ/2024-09-17-14-21-01/
     RDKit          3D

 40 44  0  0  0  0  0  0  0  0999 V2000
   -7.2496    3.8871   27.4508 C   0  0  0  0  0  0  0  0  0  0  0  0
   -7.9379    4.9063   27.8518 C   0  0  0  0  0  0  0  0  0  0  0  0
   -9.3460    4.8223   27.8695 C   0  0  0  0  0  0  0  0  0  0  0  0
   -7.8628    2.6163   27.1065 C   0  0  0  0  0  0  0  0  0  0  0  0
   -9.2787    2.5744   27.1970 C   0  0  0  0  0  0  0  0  0  0  0  0
  -10.0108    3.6770   27.6340 C   0  0  0  0  0  0  0  0  0  0  0  0
  -11.4834    3.5674   27.7432 C   0  0  0  0  0  0  0  0  0  0  0  0
  -11.9395    2.6434   28.4995 C   0  0  0  0  0  0  0  0  0  0  0  0
  -13.3550    2.4593   28.7913 C   0  0  0  0  0  0  0  0  0  0  0  0
  -14.1867    3.4420   28.2483 C   0  0  0  0  0  0  0  0  0  0  0  0
  -15.5371    3.3423   28.4793 C   0  0  2  0  0  0  0  0  0  0  0  0
  -13.6393    4.4888   27.4862 C   0  0  0  0  0  0  0  0  0  0  0  0
  -12.2731    4.6469   27.2838 C   0  0  0  0  0  0  0  0  0  0  0  0
   -7.1182    1.4677   26.7641 C   0  0  1  0  0  0  0  0  0  0  0  0
   -6.0704    1.0582   27.5337 N   0  0  0  0  0  0  0  0  0  0  0  0
   -5.3924   -0.0683   27.4033 C   0  0  0  0  0  0  0  0  0  0  0  0
   -5.9026   -0.9219   26.4897 C   0  0  0  0  0  0  0  0  0  0  0  0
   -7.7515    0.4724   25.6667 S   0  0  0  0  0  0  0  0  0  0  0  0
   -6.8761   -0.8035   25.6401 C   0  0  0  0  0  0  0  0  0  0  0  0
   -4.3983   -0.2443   28.2460 F   0  0  0  0  0  0  0  0  0  0  0  0
   -7.3229    6.0609   28.1500 F   0  0  0  0  0  0  0  0  0  0  0  0
  -15.9928    3.8983   29.4992 N   0  0  0  0  0  0  0  0  0  0  0  0
  -15.2804    4.2306   30.4929 C   0  0  0  0  0  0  0  0  0  0  0  0
  -15.8329    5.0720   31.6402 C   0  0  0  0  0  0  0  0  0  0  0  0
  -16.0158    2.1511   27.7924 C   0  0  0  0  0  0  0  0  0  0  0  0
  -16.3953    6.0442   31.4414 C   0  0  0  0  0  0  0  0  0  0  0  0
  -16.8421    6.3987   30.1159 C   0  0  1  0  0  0  0  0  0  0  0  0
  -16.7433    5.2423   29.1926 C   0  0  0  0  0  0  0  0  0  0  0  0
  -17.0705    5.4832   28.0393 O   0  0  0  0  0  0  0  0  0  0  0  0
  -16.8667    2.5083   26.7269 C   0  0  0  0  0  0  0  0  0  0  0  0
  -17.4932    1.4431   26.0143 C   0  0  0  0  0  0  0  0  0  0  0  0
  -17.2813    0.1367   26.4789 C   0  0  0  0  0  0  0  0  0  0  0  0
  -16.0092    0.8175   28.1139 C   0  0  0  0  0  0  0  0  0  0  0  0
  -16.5545   -0.1477   27.5271 C   0  0  0  0  0  0  0  0  0  0  0  0
  -17.6861    7.4869   29.7855 C   0  0  0  0  0  0  0  0  0  0  0  0
  -17.5589    8.4489   30.2771 O   0  0  0  0  0  0  0  0  0  0  0  0
  -18.2384    7.4373   28.5426 O   0  0  0  0  0  0  0  0  0  0  0  0
   -7.0565   -1.9114   24.6668 C   0  0  0  0  0  0  0  0  0  0  0  0
   -7.3985   -1.5303   23.4255 C   0  0  0  0  0  0  0  0  0  0  0  0
   -7.7148   -0.4106   23.0182 C   0  0  0  0  0  0  0  0  0  0  0  0
  6  7  1  0
 10 11  1  0
 14  4  1  1
 14 15  1  0
 15 16  2  0
 16 17  1  0
 14 18  1  0
 17 19  1  0
 18 19  2  0
 16 20  1  0
  2 21  1  0
 11 22  1  1
 22 23  1  0
 11 25  1  0
 24 26  1  0
 22 28  1  0
 27 28  1  0
 28 29  2  0
 27 35  1  1
 35 36  2  0
 35 37  1  0
 19 38  1  0
 38 39  1  0
 39 40  1  0
 23 24  1  0
 26 27  1  0
 25 30  2  0
 30 31  1  0
 31 32  2  0
 32 34  1  0
 34 33  2  0
 33 25  1  0
  7  8  2  0
  8  9  1  0
  9 10  2  0
 10 12  1  0
 12 13  2  0
 13  7  1  0
  1  2  2  0
  2  3  1  0
  3  6  2  0
  6  5  1  0
  5  4  2  0
  4  1  1  0
M  END
$$$$
