No_8120-complexes_sdf/6BKW-FPZ/2024-09-17-14-21-01/
     RDKit          3D

 15 16  0  0  0  0  0  0  0  0999 V2000
   -7.2496    3.8871   27.4508 C   0  0  0  0  0  0  0  0  0  0  0  0
   -7.6161    2.7143   27.1523 C   0  0  0  0  0  0  0  0  0  0  0  0
   -8.8302    2.4659   26.5056 C   0  0  0  0  0  0  0  0  0  0  0  0
   -8.1584    5.0089   27.3234 C   0  0  0  0  0  0  0  0  0  0  0  0
   -9.3788    4.7965   26.7695 C   0  0  0  0  0  0  0  0  0  0  0  0
   -9.7028    3.5649   26.3276 C   0  0  0  0  0  0  0  0  0  0  0  0
   -6.7190    1.5585   27.3667 C   0  0  0  0  0  0  0  0  0  0  0  0
   -5.5646    1.7458   28.0273 N   0  0  0  0  0  0  0  0  0  0  0  0
   -4.6670    0.6260   28.1961 C   0  0  0  0  0  0  0  0  0  0  0  0
   -3.4532    0.8437   28.8849 C   0  0  0  0  0  0  0  0  0  0  0  0
   -5.1120   -0.6237   27.8311 C   0  0  0  0  0  0  0  0  0  0  0  0
   -7.2186    0.4096   26.9534 O   0  0  0  0  0  0  0  0  0  0  0  0
   -2.6190   -0.2332   29.1967 C   0  0  0  0  0  0  0  0  0  0  0  0
   -4.2174   -1.7325   28.1810 C   0  0  0  0  0  0  0  0  0  0  0  0
   -2.9853   -1.4854   28.8409 C   0  0  0  0  0  0  0  0  0  0  0  0
  2  7  1  0
  7  8  1  0
  7 12  2  0
  8  9  1  0
  9 10  2  0
 10 13  1  0
 13 15  2  0
 15 14  1  0
 14 11  2  0
 11  9  1  0
  1  2  2  0
  2  3  1  0
  3  6  2  0
  6  5  1  0
  5  4  2  0
  4  1  1  0
M  END
$$$$
