No_8719-complexes_sdf/6BKW-FPZ/2024-09-17-14-21-01/
     RDKit          3D

 20 22  0  0  0  0  0  0  0  0999 V2000
   -7.2496    3.8871   27.4508 C   0  0  0  0  0  0  0  0  0  0  0  0
   -8.5096    4.0291   27.2770 C   0  0  0  0  0  0  0  0  0  0  0  0
   -9.3502    2.8685   26.8763 C   0  0  0  0  0  0  0  0  0  0  0  0
   -6.6288    2.5513   27.4938 C   0  0  0  0  0  0  0  0  0  0  0  0
   -7.4365    1.4714   27.2032 C   0  0  0  0  0  0  0  0  0  0  0  0
   -8.7772    1.6579   26.9338 C   0  0  0  0  0  0  0  0  0  0  0  0
   -9.1078    5.3660   27.2249 C   0  0  0  0  0  0  0  0  0  0  0  0
  -10.3243    5.4180   27.6589 F   0  0  0  0  0  0  0  0  0  0  0  0
   -9.0373    5.9352   25.9723 F   0  0  0  0  0  0  0  0  0  0  0  0
   -8.3350    6.3034   27.9535 F   0  0  0  0  0  0  0  0  0  0  0  0
   -6.8014    0.1883   27.1685 C   0  0  0  0  0  0  0  0  0  0  0  0
   -7.3343   -0.8805   26.7996 C   0  0  0  0  0  0  0  0  0  0  0  0
   -7.0583   -1.9034   26.7359 C   0  0  0  0  0  0  0  0  0  0  0  0
   -5.6009   -2.2173   27.0784 C   0  0  0  0  0  0  0  0  0  0  0  0
   -4.8373   -1.1714   27.4851 C   0  0  0  0  0  0  0  0  0  0  0  0
   -5.3790    0.0781   27.5907 C   0  0  0  0  0  0  0  0  0  0  0  0
   -3.4117   -1.3408   27.8885 C   0  0  0  0  0  0  0  0  0  0  0  0
   -2.5571   -0.2311   27.9410 C   0  0  0  0  0  0  0  0  0  0  0  0
   -3.2547    1.0592   28.1609 C   0  0  0  0  0  0  0  0  0  0  0  0
   -4.5407    1.1998   27.8778 C   0  0  0  0  0  0  0  0  0  0  0  0
  2  7  1  0
  7  8  1  0
  7  9  1  0
  7 10  1  0
  5 11  1  0
 11 12  2  0
 12 13  1  0
 13 14  2  0
 14 15  1  0
 16 11  1  0
  1  2  2  0
  2  3  1  0
  3  6  2  0
  6  5  1  0
  5  4  2  0
  4  1  1  0
 15 16  2  0
 16 20  1  0
 20 19  2  0
 19 18  1  0
 18 17  2  0
 17 15  1  0
M  END
$$$$
