No_860-complexes_sdf/6BKW-FPZ/2024-09-17-14-21-01/
     RDKit          3D

 40 44  0  0  0  0  0  0  0  0999 V2000
   -7.9040    3.9820   27.1177 C   0  0  0  0  0  0  0  0  0  0  0  0
   -8.2057    2.8231   26.8733 C   0  0  0  0  0  0  0  0  0  0  0  0
   -7.4766    1.7477   27.4593 C   0  0  0  0  0  0  0  0  0  0  0  0
   -8.7468    5.1251   26.6967 C   0  0  0  0  0  0  0  0  0  0  0  0
   -9.7234    4.8589   25.8202 C   0  0  0  0  0  0  0  0  0  0  0  0
   -9.9530    3.6960   25.4481 C   0  0  0  0  0  0  0  0  0  0  0  0
   -9.2267    2.5226   25.9518 C   0  0  0  0  0  0  0  0  0  0  0  0
   -6.8285    0.8579   26.9292 N   0  0  0  0  0  0  0  0  0  0  0  0
   -6.3109   -0.0305   27.4009 C   0  0  0  0  0  0  0  0  0  0  0  0
   -6.8260   -1.2524   27.6438 C   0  0  0  0  0  0  0  0  0  0  0  0
   -7.8188   -1.6650   27.3298 C   0  0  0  0  0  0  0  0  0  0  0  0
   -8.4825   -2.9314   27.7440 C   0  0  0  0  0  0  0  0  0  0  0  0
   -8.3981    6.5219   27.1153 C   0  0  0  0  0  0  0  0  0  0  0  0
   -7.8876    6.8298   28.2404 N   0  0  0  0  0  0  0  0  0  0  0  0
   -8.8028    7.4887   26.3572 O   0  0  0  0  0  0  0  0  0  0  0  0
   -7.7826   -3.6720   28.6666 C   0  0  0  0  0  0  0  0  0  0  0  0
   -6.5965   -3.2491   29.1648 C   0  0  0  0  0  0  0  0  0  0  0  0
   -6.0610   -2.0125   28.8109 C   0  0  0  0  0  0  0  0  0  0  0  0
   -4.9905    0.2692   27.6984 O   0  0  0  0  0  0  0  0  0  0  0  0
  -11.0211    3.3758   24.4307 C   0  0  2  0  0  0  0  0  0  0  0  0
  -12.2842    3.0385   24.8111 C   0  0  0  0  0  0  0  0  0  0  0  0
  -12.5750    2.6569   25.9360 C   0  0  0  0  0  0  0  0  0  0  0  0
  -13.9625    2.3325   26.3392 C   0  0  0  0  0  0  0  0  0  0  0  0
  -14.9165    2.4902   25.3696 C   0  0  0  0  0  0  0  0  0  0  0  0
  -13.3142    3.2067   23.8671 C   0  0  0  0  0  0  0  0  0  0  0  0
  -14.6233    2.9511   24.1474 C   0  0  0  0  0  0  0  0  0  0  0  0
  -10.5021    2.9948   23.0789 C   0  0  0  0  0  0  0  0  0  0  0  0
  -10.6750    3.9354   22.1352 C   0  0  0  0  0  0  0  0  0  0  0  0
  -10.1333    3.6954   20.8101 C   0  0  0  0  0  0  0  0  0  0  0  0
   -9.6006    2.3946   20.5841 C   0  0  0  0  0  0  0  0  0  0  0  0
   -9.5163    1.4784   21.6264 C   0  0  0  0  0  0  0  0  0  0  0  0
   -9.9366    1.7865   22.9112 C   0  0  0  0  0  0  0  0  0  0  0  0
   -8.9247    0.1655   21.3301 C   0  0  0  0  0  0  0  0  0  0  0  0
   -9.4060   -0.9243   22.0565 C   0  0  0  0  0  0  0  0  0  0  0  0
   -8.8292   -2.2164   21.7987 C   0  0  0  0  0  0  0  0  0  0  0  0
   -9.1593   -3.2686   22.5285 C   0  0  0  0  0  0  0  0  0  0  0  0
  -10.1589   -3.1071   23.5388 C   0  0  0  0  0  0  0  0  0  0  0  0
  -10.7289   -1.9098   23.8059 C   0  0  0  0  0  0  0  0  0  0  0  0
  -10.3517   -0.8127   23.1477 C   0  0  0  0  0  0  0  0  0  0  0  0
  -11.7023   -1.7917   24.9442 C   0  0  0  0  0  0  0  0  0  0  0  0
  2  3  1  0
  3  8  1  0
  8  9  1  0
  9 10  1  0
  4 13  1  0
 13 14  1  0
 13 15  2  0
  9 19  2  0
 20  6  1  1
 20 21  1  0
 20 27  1  0
 31 33  1  0
 38 40  1  0
 33 34  1  0
 21 22  2  0
 22 23  1  0
 23 24  2  0
 24 26  1  0
 26 25  2  0
 25 21  1  0
  1  2  2  0
  2  7  1  0
  7  6  2  0
  6  5  1  0
  5  4  2  0
  4  1  1  0
 27 28  2  0
 28 29  1  0
 29 30  2  0
 30 31  1  0
 31 32  2  0
 32 27  1  0
 34 35  2  0
 35 36  1  0
 36 37  2  0
 37 38  1  0
 38 39  2  0
 39 34  1  0
 10 11  2  0
 11 12  1  0
 12 16  2  0
 16 17  1  0
 17 18  2  0
 18 10  1  0
M  END
$$$$
