No_8468-complexes_sdf/6BKW-FPZ/2024-09-17-14-21-01/
     RDKit          3D

 20 22  0  0  0  0  0  0  0  0999 V2000
   -7.7129    4.2099   27.0854 C   0  0  0  0  0  0  0  0  0  0  0  0
   -8.9133    4.4736   27.0998 C   0  0  0  0  0  0  0  0  0  0  0  0
   -9.4643    5.5426   27.7628 C   0  0  0  0  0  0  0  0  0  0  0  0
   -6.8373    4.9942   27.9785 C   0  0  0  0  0  0  0  0  0  0  0  0
   -7.3717    6.0428   28.6744 C   0  0  0  0  0  0  0  0  0  0  0  0
   -8.6869    6.3937   28.5345 C   0  0  0  0  0  0  0  0  0  0  0  0
   -9.8077    3.6185   26.2213 C   0  0  0  0  0  0  0  0  0  0  0  0
   -9.9211    2.3431   26.3758 C   0  0  0  0  0  0  0  0  0  0  0  0
   -9.5330    1.7263   27.4233 C   0  0  0  0  0  0  0  0  0  0  0  0
   -9.5975    0.2799   27.7094 C   0  0  0  0  0  0  0  0  0  0  0  0
  -10.3958    4.3570   25.0910 C   0  0  0  0  0  0  0  0  0  0  0  0
  -10.9700    3.8731   24.1560 C   0  0  0  0  0  0  0  0  0  0  0  0
  -11.1038    2.3971   24.2533 C   0  0  0  0  0  0  0  0  0  0  0  0
  -10.6184    1.6385   25.3456 C   0  0  0  0  0  0  0  0  0  0  0  0
   -8.6401   -0.6292   27.4288 C   0  0  0  0  0  0  0  0  0  0  0  0
   -7.4658   -0.2007   26.9527 C   0  0  0  0  0  0  0  0  0  0  0  0
   -6.4606   -1.0864   26.6650 C   0  0  0  0  0  0  0  0  0  0  0  0
   -6.6383   -2.2809   26.7473 C   0  0  0  0  0  0  0  0  0  0  0  0
   -8.7819   -2.0142   27.5428 C   0  0  0  0  0  0  0  0  0  0  0  0
   -7.7991   -2.8784   27.2074 C   0  0  0  0  0  0  0  0  0  0  0  0
  2  7  1  0
  9 10  1  0
 10 15  1  0
  9  8  1  0
 15 16  2  0
 16 17  1  0
 17 18  2  0
 18 20  1  0
 20 19  2  0
 19 15  1  0
  1  2  2  0
  2  3  1  0
  3  6  2  0
  6  5  1  0
  5  4  2  0
  4  1  1  0
  7  8  2  0
  8 14  1  0
 14 13  2  0
 13 12  1  0
 12 11  2  0
 11  7  1  0
M  END
$$$$
