No_8417-complexes_sdf/6BKW-FPZ/2024-09-17-14-21-01/
     RDKit          3D

 12 13  0  0  0  0  0  0  0  0999 V2000
   -7.9040    3.9820   27.1177 C   0  0  0  0  0  0  0  0  0  0  0  0
   -8.2057    2.8231   26.8733 C   0  0  0  0  0  0  0  0  0  0  0  0
   -9.2962    2.4021   26.1155 C   0  0  0  0  0  0  0  0  0  0  0  0
   -6.8682    4.5169   28.0704 C   0  0  0  0  0  0  0  0  0  0  0  0
   -9.5736    0.9953   25.9283 C   0  0  0  0  0  0  0  0  0  0  0  0
   -8.6730    0.1252   26.5353 C   0  0  0  0  0  0  0  0  0  0  0  0
   -7.6250    0.4518   27.2671 C   0  0  0  0  0  0  0  0  0  0  0  0
   -7.3533    1.8830   27.4542 C   0  0  0  0  0  0  0  0  0  0  0  0
   -8.6618    5.1471   26.4909 C   0  0  0  0  0  0  0  0  0  0  0  0
   -8.4613    6.5227   26.9054 C   0  0  0  0  0  0  0  0  0  0  0  0
   -6.8541    5.8526   28.5118 C   0  0  0  0  0  0  0  0  0  0  0  0
   -7.5677    6.7999   27.8350 C   0  0  0  0  0  0  0  0  0  0  0  0
  2  1  1  0
  1  4  2  0
  4 11  1  0
 11 12  2  0
 12 10  1  0
 10  9  2  0
  9  1  1  0
  2  3  2  0
  3  5  1  0
  5  6  2  0
  6  7  1  0
  7  8  2  0
  8  2  1  0
M  END
$$$$
