No_8481-complexes_sdf/6BKW-FPZ/2024-09-17-14-21-01/
     RDKit          3D

 29 33  0  0  0  0  0  0  0  0999 V2000
   -7.9040    3.9820   27.1177 C   0  0  0  0  0  0  0  0  0  0  0  0
   -7.8663    4.8694   27.9238 C   0  0  0  0  0  0  0  0  0  0  0  0
   -9.0491    3.8523   26.2542 C   0  0  0  0  0  0  0  0  0  0  0  0
   -8.6019    5.9544   27.7203 C   0  0  0  0  0  0  0  0  0  0  0  0
   -9.7838    4.9247   26.0626 C   0  0  0  0  0  0  0  0  0  0  0  0
   -9.6083    6.0325   26.8808 C   0  0  0  0  0  0  0  0  0  0  0  0
   -7.0940    2.6762   27.3407 C   0  0  0  0  0  0  0  0  0  0  0  0
   -7.4717    1.3974   26.8830 C   0  0  0  0  0  0  0  0  0  0  0  0
   -6.7410    0.3719   27.3028 C   0  0  0  0  0  0  0  0  0  0  0  0
   -5.4667    0.5519   27.8978 C   0  0  0  0  0  0  0  0  0  0  0  0
   -5.0622    1.8748   28.2178 C   0  0  0  0  0  0  0  0  0  0  0  0
   -5.7899    2.8860   27.9585 C   0  0  0  0  0  0  0  0  0  0  0  0
   -4.6376   -0.6206   28.2519 C   0  0  0  0  0  0  0  0  0  0  0  0
   -5.1186   -1.7145   28.5246 C   0  0  0  0  0  0  0  0  0  0  0  0
   -6.1654   -2.1605   27.7867 C   0  0  0  0  0  0  0  0  0  0  0  0
   -7.1472   -1.0653   27.2613 C   0  0  0  0  0  0  0  0  0  0  0  0
  -10.7874    4.9063   24.9995 C   0  0  0  0  0  0  0  0  0  0  0  0
  -11.7609    3.9818   25.0464 C   0  0  0  0  0  0  0  0  0  0  0  0
  -11.7993    3.0647   24.5132 C   0  0  0  0  0  0  0  0  0  0  0  0
  -12.9159    2.0231   24.5827 C   0  0  0  0  0  0  0  0  0  0  0  0
  -13.9003    2.3151   25.4789 C   0  0  0  0  0  0  0  0  0  0  0  0
  -13.8447    3.4282   26.2510 C   0  0  0  0  0  0  0  0  0  0  0  0
  -12.7880    4.3477   26.1311 C   0  0  0  0  0  0  0  0  0  0  0  0
  -10.8368    2.5631   23.4104 C   0  0  0  0  0  0  0  0  0  0  0  0
  -10.4041    3.3813   22.4591 C   0  0  0  0  0  0  0  0  0  0  0  0
  -10.2064    1.2682   23.5280 C   0  0  0  0  0  0  0  0  0  0  0  0
   -9.5450    0.7198   22.5114 C   0  0  0  0  0  0  0  0  0  0  0  0
   -9.6203    2.9165   21.3553 C   0  0  0  0  0  0  0  0  0  0  0  0
   -9.1560    1.6204   21.4349 C   0  0  0  0  0  0  0  0  0  0  0  0
  1  7  1  0
  5 17  1  0
 17 18  1  0
 19 24  1  0
 18 19  1  0
 19 20  2  0
 20 21  1  0
 21 22  2  0
 22 23  1  0
 23 18  2  0
 10 13  2  0
 13 14  1  0
 14 15  2  0
 15 16  1  0
 16  9  2  0
  7  8  2  0
  8  9  1  0
  9 10  1  0
 10 11  1  0
 11 12  2  0
 12  7  1  0
 24 25  2  0
 25 28  1  0
 28 29  2  0
 29 27  1  0
 27 26  2  0
 26 24  1  0
  1  2  2  0
  2  4  1  0
  4  6  2  0
  6  5  1  0
  5  3  2  0
  3  1  1  0
M  END
$$$$
