No_8231-complexes_sdf/6BKW-FPZ/2024-09-17-14-21-01/
     RDKit          3D

 15 16  0  0  0  0  0  0  0  0999 V2000
   -7.9040    3.9820   27.1177 C   0  0  0  0  0  0  0  0  0  0  0  0
   -8.2057    2.8231   26.8733 C   0  0  0  0  0  0  0  0  0  0  0  0
   -9.2962    2.4021   26.1155 C   0  0  0  0  0  0  0  0  0  0  0  0
   -8.7358    5.0662   26.5917 C   0  0  0  0  0  0  0  0  0  0  0  0
   -8.4603    6.4492   26.8781 C   0  0  1  0  0  0  0  0  0  0  0  0
  -10.1146    3.3815   25.6105 C   0  0  0  0  0  0  0  0  0  0  0  0
   -9.8194    4.7235   25.8263 C   0  0  0  0  0  0  0  0  0  0  0  0
   -8.0995    6.9133   28.0601 N   0  0  0  0  0  0  0  0  0  0  0  0
   -8.2672    7.2140   25.8794 F   0  0  0  0  0  0  0  0  0  0  0  0
   -7.3703    1.7590   27.4199 N   0  0  0  0  0  0  0  0  0  0  0  0
   -6.0568    1.9356   27.7550 C   0  0  0  0  0  0  0  0  0  0  0  0
   -5.3365    0.7381   28.2589 C   0  0  0  0  0  0  0  0  0  0  0  0
   -7.7762    0.4188   27.4271 C   0  0  0  0  0  0  0  0  0  0  0  0
   -7.1270   -0.6307   27.9158 C   0  0  0  0  0  0  0  0  0  0  0  0
   -5.8348   -0.4181   28.3659 C   0  0  0  0  0  0  0  0  0  0  0  0
  4  5  1  0
  5  8  1  1
  5  9  1  0
  2 10  1  0
 10 11  1  0
 10 13  1  0
 12 15  1  0
 14 15  1  0
 11 12  1  0
 14 13  1  0
  1  2  2  0
  2  3  1  0
  3  6  2  0
  6  7  1  0
  7  4  2  0
  4  1  1  0
M  END
$$$$
