No_8111-complexes_sdf/6BKW-FPZ/2024-09-17-14-21-01/
     RDKit          3D

 10 10  0  0  0  0  0  0  0  0999 V2000
   -7.2496    3.8871   27.4508 C   0  0  0  0  0  0  0  0  0  0  0  0
   -7.9379    4.9063   27.8518 C   0  0  0  0  0  0  0  0  0  0  0  0
   -7.5112    6.1898   27.6280 C   0  0  0  0  0  0  0  0  0  0  0  0
   -9.4044    4.7330   27.8015 C   0  0  0  0  0  0  0  0  0  0  0  0
   -7.8289    2.5799   27.2061 C   0  0  0  0  0  0  0  0  0  0  0  0
   -7.0395    1.4885   26.9423 C   0  0  0  0  0  0  0  0  0  0  0  0
  -10.0233    3.4875   27.8333 C   0  0  0  0  0  0  0  0  0  0  0  0
   -9.1989    2.4317   27.5322 C   0  0  0  0  0  0  0  0  0  0  0  0
   -5.8008    1.6978   27.1581 F   0  0  0  0  0  0  0  0  0  0  0  0
   -7.1943    1.0724   25.6696 F   0  0  0  0  0  0  0  0  0  0  0  0
  2  3  1  0
  6  9  1  0
  6 10  1  0
  6  5  1  0
  1  2  2  0
  2  4  1  0
  4  7  2  0
  7  8  1  0
  8  5  2  0
  5  1  1  0
M  END
$$$$
