No_875-complexes_sdf/6BKW-FPZ/2024-09-17-14-21-01/
     RDKit          3D

 18 19  0  0  0  0  0  0  0  0999 V2000
   -7.9040    3.9820   27.1177 C   0  0  0  0  0  0  0  0  0  0  0  0
   -8.2057    2.8231   26.8733 C   0  0  0  0  0  0  0  0  0  0  0  0
   -9.2962    2.4021   26.1155 C   0  0  0  0  0  0  0  0  0  0  0  0
   -8.7358    5.0662   26.5917 C   0  0  0  0  0  0  0  0  0  0  0  0
   -9.7618    4.7023   25.7546 C   0  0  0  0  0  0  0  0  0  0  0  0
  -10.0066    3.4105   25.4922 C   0  0  0  0  0  0  0  0  0  0  0  0
   -8.3943    6.4761   26.8801 C   0  0  0  0  0  0  0  0  0  0  0  0
   -8.0574    7.5061   27.0291 N   0  0  0  0  0  0  0  0  0  0  0  0
   -7.3437    1.6766   27.4898 C   0  0  0  0  0  0  0  0  0  0  0  0
   -7.8829    0.5908   27.7220 F   0  0  0  0  0  0  0  0  0  0  0  0
   -6.6805    2.1216   28.6144 F   0  0  0  0  0  0  0  0  0  0  0  0
   -6.2953    1.3891   26.5249 F   0  0  0  0  0  0  0  0  0  0  0  0
  -11.0901    3.0826   24.5653 C   0  0  0  0  0  0  0  0  0  0  0  0
  -12.3218    2.8832   25.0244 C   0  0  0  0  0  0  0  0  0  0  0  0
  -13.3808    2.6177   24.2163 C   0  0  0  0  0  0  0  0  0  0  0  0
  -10.7967    2.9050   23.2162 C   0  0  0  0  0  0  0  0  0  0  0  0
  -11.7915    2.6969   22.2712 C   0  0  0  0  0  0  0  0  0  0  0  0
  -13.1078    2.5519   22.8134 C   0  0  0  0  0  0  0  0  0  0  0  0
  4  7  1  0
  7  8  3  0
  2  9  1  0
  9 10  1  0
  9 11  1  0
  9 12  1  0
  6 13  1  0
 13 14  2  0
 14 15  1  0
 15 18  2  0
 18 17  1  0
 17 16  2  0
 16 13  1  0
  1  2  2  0
  2  3  1  0
  3  6  2  0
  6  5  1  0
  5  4  2  0
  4  1  1  0
M  END
$$$$
