No_8194-complexes_sdf/6BKW-FPZ/2024-09-17-14-21-01/
     RDKit          3D

 14 13  0  0  0  0  0  0  0  0999 V2000
   -7.9040    3.9820   27.1177 C   0  0  0  0  0  0  0  0  0  0  0  0
   -7.8663    4.8694   27.9238 C   0  0  0  0  0  0  0  0  0  0  0  0
   -9.0953    3.1697   27.0532 C   0  0  0  0  0  0  0  0  0  0  0  0
   -9.1405    2.0104   26.1761 C   0  0  0  0  0  0  0  0  0  0  0  0
   -6.7288    5.7941   27.9701 C   0  0  0  0  0  0  0  0  0  0  0  0
   -8.2649    0.9862   26.4894 C   0  0  0  0  0  0  0  0  0  0  0  0
   -7.4461    1.0972   27.6089 C   0  0  0  0  0  0  0  0  0  0  0  0
  -10.2572    3.5454   27.6494 C   0  0  0  0  0  0  0  0  0  0  0  0
  -11.3009    2.7671   28.0273 C   0  0  0  0  0  0  0  0  0  0  0  0
  -12.3976    3.2395   28.8294 C   0  0  0  0  0  0  0  0  0  0  0  0
   -6.4636    0.0020   27.8786 C   0  0  0  0  0  0  0  0  0  0  0  0
   -5.4734    0.1147   28.8781 C   0  0  0  0  0  0  0  0  0  0  0  0
   -4.8030   -1.0025   29.2649 C   0  0  0  0  0  0  0  0  0  0  0  0
   -4.9986   -2.1909   28.6481 C   0  0  0  0  0  0  0  0  0  0  0  0
  1  2  2  3
  1  3  1  0
  3  4  1  0
  2  5  1  0
  4  6  2  3
  6  7  1  0
  3  8  1  0
  8  9  2  3
  9 10  1  0
  7 11  2  3
 11 12  1  0
 12 13  2  3
 13 14  1  0
M  END
$$$$
