No_8400-complexes_sdf/6BKW-FPZ/2024-09-17-14-21-01/
     RDKit          3D

 20 23  0  0  0  0  0  0  0  0999 V2000
   -7.7129    4.2099   27.0854 C   0  0  0  0  0  0  0  0  0  0  0  0
   -7.7814    5.1722   27.8972 C   0  0  0  0  0  0  0  0  0  0  0  0
   -8.8776    3.8408   26.3416 C   0  0  0  0  0  0  0  0  0  0  0  0
   -9.9844    4.6492   26.4743 C   0  0  0  0  0  0  0  0  0  0  0  0
   -8.8033    6.1375   27.8728 C   0  0  0  0  0  0  0  0  0  0  0  0
   -9.9554    5.8280   27.1736 C   0  0  0  0  0  0  0  0  0  0  0  0
   -8.8740    2.6184   25.5584 C   0  0  0  0  0  0  0  0  0  0  0  0
   -9.6846    2.5240   24.5290 N   0  0  0  0  0  0  0  0  0  0  0  0
  -10.4111    3.6054   24.2094 C   0  0  0  0  0  0  0  0  0  0  0  0
  -10.8417    4.5454   25.2996 N   0  0  0  0  0  0  0  0  0  0  0  0
  -11.0888    3.6442   23.1315 N   0  0  0  0  0  0  0  0  0  0  0  0
  -11.2291    4.7606   22.4649 C   0  0  0  0  0  0  0  0  0  0  0  0
  -12.2078    2.8683   22.8433 C   0  0  0  0  0  0  0  0  0  0  0  0
  -12.4054    1.8191   23.1206 C   0  0  0  0  0  0  0  0  0  0  0  0
  -13.0327    3.4937   21.6900 C   0  0  0  0  0  0  0  0  0  0  0  0
  -14.0659    2.9133   21.0551 C   0  0  0  0  0  0  0  0  0  0  0  0
  -12.3985    4.8049   21.4298 C   0  0  0  0  0  0  0  0  0  0  0  0
  -13.5550    1.0747   22.6397 C   0  0  0  0  0  0  0  0  0  0  0  0
  -14.3169    1.6297   21.5980 C   0  0  0  0  0  0  0  0  0  0  0  0
   -6.7124    5.5706   28.6936 O   0  0  0  0  0  0  0  0  0  0  0  0
  9 11  1  0
 11 12  1  0
 11 13  1  0
 12 17  2  0
 15 17  1  0
  2 20  1  0
 13 14  2  0
 14 18  1  0
 18 19  2  0
 19 16  1  0
 16 15  2  0
 15 13  1  0
  4 10  2  0
 10  9  1  0
  9  8  2  0
  8  7  1  0
  7  3  2  0
  1  2  2  0
  2  5  1  0
  5  6  2  0
  6  4  1  0
  4  3  1  0
  3  1  1  0
M  END
$$$$
