No_8687-complexes_sdf/6BKW-FPZ/2024-09-17-14-21-01/
     RDKit          3D

 31 34  0  0  0  0  0  0  0  0999 V2000
   -7.2496    3.8871   27.4508 C   0  0  0  0  0  0  0  0  0  0  0  0
   -7.9379    4.9063   27.8518 C   0  0  1  0  0  0  0  0  0  0  0  0
   -7.5112    6.1898   27.6280 C   0  0  0  0  0  0  0  0  0  0  0  0
   -9.4044    4.7330   27.8015 C   0  0  0  0  0  0  0  0  0  0  0  0
   -7.6918    2.5968   27.9026 C   0  0  1  0  0  0  0  0  0  0  0  0
   -9.0781    2.2804   27.6915 C   0  0  0  0  0  0  0  0  0  0  0  0
   -9.9269    3.4147   28.0701 C   0  0  2  0  0  0  0  0  0  0  0  0
  -11.4031    3.2064   27.9351 C   0  0  0  0  0  0  0  0  0  0  0  0
  -11.8526    2.7575   27.0337 C   0  0  0  0  0  0  0  0  0  0  0  0
  -13.2050    2.6163   26.9230 C   0  0  0  0  0  0  0  0  0  0  0  0
  -12.0504    3.5004   29.2092 C   0  0  0  0  0  0  0  0  0  0  0  0
  -13.3494    3.2627   29.2234 C   0  0  0  0  0  0  0  0  0  0  0  0
  -14.0228    2.8981   28.0959 C   0  0  0  0  0  0  0  0  0  0  0  0
   -6.7868    1.4154   27.5302 C   0  0  0  0  0  0  0  0  0  0  0  0
   -5.4258    1.4632   27.9894 C   0  0  0  0  0  0  0  0  0  0  0  0
   -4.5288    0.4107   27.8655 C   0  0  0  0  0  0  0  0  0  0  0  0
   -4.8756   -0.6957   27.1527 C   0  0  0  0  0  0  0  0  0  0  0  0
   -7.1778    0.1880   27.0139 C   0  0  0  0  0  0  0  0  0  0  0  0
   -6.2464   -0.8158   26.7435 C   0  0  0  0  0  0  0  0  0  0  0  0
   -3.1061    0.6294   28.3005 C   0  0  0  0  0  0  0  0  0  0  0  0
   -2.9407    0.4136   29.5879 N   0  0  0  0  0  0  0  0  0  0  0  0
   -3.2043   -0.7494   30.2766 C   0  0  0  0  0  0  0  0  0  0  0  0
   -3.0087   -0.7042   31.6988 C   0  0  0  0  0  0  0  0  0  0  0  0
   -3.1854    0.4677   32.2964 C   0  0  0  0  0  0  0  0  0  0  0  0
   -2.6572    0.3063   33.5734 F   0  0  0  0  0  0  0  0  0  0  0  0
  -14.2049    3.5921   30.4819 C   0  0  0  0  0  0  0  0  0  0  0  0
  -14.9351    4.6414   30.5354 C   0  0  0  0  0  0  0  0  0  0  0  0
  -15.6167    4.9889   31.7565 C   0  0  0  0  0  0  0  0  0  0  0  0
  -15.3685    4.3440   32.9249 C   0  0  0  0  0  0  0  0  0  0  0  0
  -13.8347    2.8312   31.6862 C   0  0  0  0  0  0  0  0  0  0  0  0
  -14.4574    3.2175   32.8759 C   0  0  0  0  0  0  0  0  0  0  0  0
  1  2  1  0
  2  3  1  6
  2  4  1  0
  1  5  1  0
  5  6  1  0
  4  7  1  0
  6  7  1  0
  7  8  1  6
  5 14  1  6
 16 20  1  0
 20 21  1  0
 21 22  2  3
 22 23  1  0
 23 24  2  3
 24 25  1  0
 12 26  1  0
 14 15  2  0
 15 16  1  0
 16 17  2  0
 17 19  1  0
 19 18  2  0
 18 14  1  0
  8  9  2  0
  9 10  1  0
 10 13  2  0
 13 12  1  0
 12 11  2  0
 11  8  1  0
 26 27  2  0
 27 28  1  0
 28 29  2  0
 29 31  1  0
 31 30  2  0
 30 26  1  0
M  END
$$$$
