No_8985-complexes_sdf/6BKW-FPZ/2024-09-17-14-21-01/
     RDKit          3D

 13 14  0  0  0  0  0  0  0  0999 V2000
   -7.9040    3.9820   27.1177 C   0  0  0  0  0  0  0  0  0  0  0  0
   -9.0711    4.3164   27.0630 C   0  0  0  0  0  0  0  0  0  0  0  0
   -9.5294    5.4517   27.7215 C   0  0  0  0  0  0  0  0  0  0  0  0
   -6.9328    4.7309   27.8881 C   0  0  0  0  0  0  0  0  0  0  0  0
   -7.3666    5.8455   28.5488 C   0  0  0  0  0  0  0  0  0  0  0  0
   -8.6669    6.2428   28.4199 C   0  0  0  0  0  0  0  0  0  0  0  0
   -9.9775    3.4523   26.2361 C   0  0  0  0  0  0  0  0  0  0  0  0
  -10.4565    3.9065   25.1434 C   0  0  0  0  0  0  0  0  0  0  0  0
  -11.1854    3.2161   24.1617 C   0  0  0  0  0  0  0  0  0  0  0  0
  -11.4074    1.9063   24.4406 C   0  0  0  0  0  0  0  0  0  0  0  0
  -10.1329    2.0796   26.3781 C   0  0  0  0  0  0  0  0  0  0  0  0
   -9.4532    1.4679   27.6144 C   0  0  0  0  0  0  0  0  0  0  0  0
  -10.8195    1.2957   25.5395 C   0  0  0  0  0  0  0  0  0  0  0  0
  2  7  1  0
 11 12  1  0
  1  2  2  0
  2  3  1  0
  3  6  2  0
  6  5  1  0
  5  4  2  0
  4  1  1  0
  7  8  2  0
  8  9  1  0
  9 10  2  0
 10 13  1  0
 13 11  2  0
 11  7  1  0
M  END
$$$$
