No_8063-complexes_sdf/6BKW-FPZ/2024-09-17-14-21-01/
     RDKit          3D

 32 35  0  0  0  0  0  0  0  0999 V2000
   -7.7129    4.2099   27.0854 C   0  0  0  0  0  0  0  0  0  0  0  0
   -8.9133    4.4736   27.0998 C   0  0  0  0  0  0  0  0  0  0  0  0
   -9.7135    3.9633   26.0300 C   0  0  0  0  0  0  0  0  0  0  0  0
   -7.3002    3.3277   27.8539 C   0  0  0  0  0  0  0  0  0  0  0  0
  -10.9296    3.4148   26.3683 C   0  0  0  0  0  0  0  0  0  0  0  0
  -11.6478    3.9096   27.4951 C   0  0  0  0  0  0  0  0  0  0  0  0
  -10.8808    4.5744   28.4960 C   0  0  0  0  0  0  0  0  0  0  0  0
   -9.3755    4.3783   28.4066 C   0  0  0  0  0  0  0  0  0  0  0  0
   -5.8934    2.7192   27.6469 C   0  0  0  0  0  0  0  0  0  0  0  0
   -5.5541    1.4566   28.1427 C   0  0  0  0  0  0  0  0  0  0  0  0
   -5.4099    0.2021   27.9136 C   0  0  0  0  0  0  0  0  0  0  0  0
   -4.8795   -0.5198   28.9339 C   0  0  0  0  0  0  0  0  0  0  0  0
   -4.9501   -1.9235   29.1524 C   0  0  0  0  0  0  0  0  0  0  0  0
   -6.4243   -0.4470   27.2604 C   0  0  0  0  0  0  0  0  0  0  0  0
   -6.6145   -1.8362   27.2588 C   0  0  0  0  0  0  0  0  0  0  0  0
   -5.8408   -2.5859   28.2035 C   0  0  0  0  0  0  0  0  0  0  0  0
   -4.2873    1.6628   28.9682 N   0  0  0  0  0  0  0  0  0  0  0  0
   -3.9537    0.3647   29.6231 C   0  0  0  0  0  0  0  0  0  0  0  0
  -13.0692    3.7803   27.6741 C   0  0  0  0  0  0  0  0  0  0  0  0
  -13.8145    4.1365   28.3941 C   0  0  0  0  0  0  0  0  0  0  0  0
  -13.3379    4.8778   29.6397 C   0  0  0  0  0  0  0  0  0  0  0  0
  -14.3316    5.1805   30.6243 C   0  0  0  0  0  0  0  0  0  0  0  0
  -14.0176    5.4344   31.9290 C   0  0  0  0  0  0  0  0  0  0  0  0
  -15.6846    5.4561   30.1335 C   0  0  0  0  0  0  0  0  0  0  0  0
  -16.0920    5.0447   28.8511 C   0  0  0  0  0  0  0  0  0  0  0  0
  -15.1625    4.4660   28.0227 C   0  0  0  0  0  0  0  0  0  0  0  0
  -13.2882    4.6012   32.7436 C   0  0  0  0  0  0  0  0  0  0  0  0
  -12.9306    4.8429   34.0704 C   0  0  0  0  0  0  0  0  0  0  0  0
  -11.8359    4.1139   34.6609 C   0  0  0  0  0  0  0  0  0  0  0  0
  -11.1713    4.7169   35.7495 C   0  0  0  0  0  0  0  0  0  0  0  0
  -11.8147    5.1516   36.8045 C   0  0  0  0  0  0  0  0  0  0  0  0
  -12.9289    5.3336   36.8989 C   0  0  0  0  0  0  0  0  0  0  0  0
  1  2  1  0
  1  4  1  0
  4  9  1  0
  9 10  2  3
 10 11  1  0
 10 17  1  0
 12 18  1  0
 17 18  1  0
  6 19  1  0
 22 23  1  0
 23 27  1  0
 27 28  1  0
 28 29  2  3
 29 30  1  0
 30 31  2  3
 31 32  1  0
 19 20  1  0
 20 21  2  0
 21 22  1  0
 22 24  2  0
 24 25  1  0
 25 26  2  0
 26 20  1  0
  2  3  2  0
  3  5  1  0
  5  6  2  0
  6  7  1  0
  7  8  2  0
  8  2  1  0
 11 12  1  0
 12 13  2  0
 13 16  1  0
 16 15  2  0
 15 14  1  0
 14 11  2  0
M  END
$$$$
