No_8413-complexes_sdf/6BKW-FPZ/2024-09-17-14-21-01/
     RDKit          3D

 22 24  0  0  0  0  0  0  0  0999 V2000
   -7.7129    4.2099   27.0854 C   0  0  0  0  0  0  0  0  0  0  0  0
   -7.7814    5.1722   27.8972 C   0  0  0  0  0  0  0  0  0  0  0  0
   -8.8255    3.2789   27.1191 C   0  0  0  0  0  0  0  0  0  0  0  0
   -8.7530    2.0643   26.3119 C   0  0  0  0  0  0  0  0  0  0  0  0
   -7.6193    1.3092   26.4290 C   0  0  0  0  0  0  0  0  0  0  0  0
   -7.5545    0.0972   25.6919 C   0  0  0  0  0  0  0  0  0  0  0  0
   -9.9829    3.6717   27.8130 C   0  0  0  0  0  0  0  0  0  0  0  0
  -10.0391    4.8825   28.5802 C   0  0  0  0  0  0  0  0  0  0  0  0
   -6.6702    6.1559   27.9624 C   0  0  0  0  0  0  0  0  0  0  0  0
   -8.9481    5.7005   28.5199 C   0  0  0  0  0  0  0  0  0  0  0  0
   -9.6262    1.8605   25.2936 C   0  0  0  0  0  0  0  0  0  0  0  0
   -9.5205    0.7970   24.4255 C   0  0  0  0  0  0  0  0  0  0  0  0
   -8.4297   -0.0718   24.6778 C   0  0  0  0  0  0  0  0  0  0  0  0
  -11.1396    2.7372   27.8442 C   0  0  0  0  0  0  0  0  0  0  0  0
  -12.1683    3.0769   28.7467 C   0  0  0  0  0  0  0  0  0  0  0  0
  -13.0521    2.0826   29.2342 C   0  0  0  0  0  0  0  0  0  0  0  0
  -14.0818    2.3804   30.0801 C   0  0  0  0  0  0  0  0  0  0  0  0
  -14.8281    1.4692   30.6747 C   0  0  0  0  0  0  0  0  0  0  0  0
  -14.5958    0.1083   30.3021 C   0  0  0  0  0  0  0  0  0  0  0  0
  -13.5982   -0.2457   29.4552 C   0  0  0  0  0  0  0  0  0  0  0  0
  -12.7559    0.7296   28.9475 C   0  0  0  0  0  0  0  0  0  0  0  0
  -11.8027    0.3532   28.1591 F   0  0  0  0  0  0  0  0  0  0  0  0
  3  4  1  0
  2  9  1  0
  7 14  1  0
 14 15  1  0
 21 22  1  0
 15 16  1  0
  4  5  2  0
  5  6  1  0
  6 13  2  0
 13 12  1  0
 12 11  2  0
 11  4  1  0
  1  2  2  0
  2 10  1  0
 10  8  2  0
  8  7  1  0
  7  3  2  0
  3  1  1  0
 16 17  2  0
 17 18  1  0
 18 19  2  0
 19 20  1  0
 20 21  2  0
 21 16  1  0
M  END
$$$$
