No_8553-complexes_sdf/6BKW-FPZ/2024-09-17-14-21-01/
     RDKit          3D

 17 18  0  0  0  0  0  0  0  0999 V2000
   -7.9040    3.9820   27.1177 C   0  0  0  0  0  0  0  0  0  0  0  0
   -8.2057    2.8231   26.8733 C   0  0  0  0  0  0  0  0  0  0  0  0
   -9.2962    2.4021   26.1155 C   0  0  0  0  0  0  0  0  0  0  0  0
   -8.7358    5.0662   26.5917 C   0  0  0  0  0  0  0  0  0  0  0  0
   -8.4603    6.4492   26.8781 C   0  0  0  0  0  0  0  0  0  0  0  0
  -10.1146    3.3815   25.6105 C   0  0  0  0  0  0  0  0  0  0  0  0
   -9.8194    4.7235   25.8263 C   0  0  0  0  0  0  0  0  0  0  0  0
   -8.1938    7.8637   26.0934 Br  0  0  0  0  0  0  0  0  0  0  0  0
   -9.5119    0.9597   25.8708 C   0  0  1  0  0  0  0  0  0  0  0  0
   -8.6623    0.2566   25.3200 C   0  0  0  0  0  0  0  0  0  0  0  0
   -7.6000    0.2133   25.3174 C   0  0  0  0  0  0  0  0  0  0  0  0
   -6.6252   -0.7465   24.6493 C   0  0  0  0  0  0  0  0  0  0  0  0
   -7.1913   -1.5450   23.7013 C   0  0  0  0  0  0  0  0  0  0  0  0
   -8.5822   -1.4843   23.5320 C   0  0  0  0  0  0  0  0  0  0  0  0
   -9.3375   -0.6549   24.2931 C   0  0  0  0  0  0  0  0  0  0  0  0
  -10.6498    0.4872   26.6464 C   0  0  0  0  0  0  0  0  0  0  0  0
  -11.9046    0.7243   26.1725 C   0  0  0  0  0  0  0  0  0  0  0  0
  4  5  1  0
  5  8  1  0
  3  9  1  0
  9 10  1  0
  9 16  1  1
 16 17  2  0
  1  2  2  0
  2  3  1  0
  3  6  2  0
  6  7  1  0
  7  4  2  0
  4  1  1  0
 10 11  2  0
 11 12  1  0
 12 13  2  0
 13 14  1  0
 14 15  2  0
 15 10  1  0
M  END
$$$$
