No_8970-complexes_sdf/6BKW-FPZ/2024-09-17-14-21-01/
     RDKit          3D

 20 21  0  0  0  0  0  0  0  0999 V2000
   -7.9040    3.9820   27.1177 C   0  0  0  0  0  0  0  0  0  0  0  0
   -8.2057    2.8231   26.8733 C   0  0  0  0  0  0  0  0  0  0  0  0
   -8.7695    5.0740   26.7916 C   0  0  0  0  0  0  0  0  0  0  0  0
   -9.9618    4.7598   26.1630 C   0  0  0  0  0  0  0  0  0  0  0  0
   -9.4200    2.4524   26.2850 C   0  0  0  0  0  0  0  0  0  0  0  0
  -10.2590    3.4815   25.9250 C   0  0  0  0  0  0  0  0  0  0  0  0
   -8.3837    6.4702   27.0872 C   0  0  0  0  0  0  0  0  0  0  0  0
   -8.8426    7.3370   26.4794 F   0  0  0  0  0  0  0  0  0  0  0  0
   -8.6028    6.6736   28.4517 F   0  0  0  0  0  0  0  0  0  0  0  0
   -6.9679    6.5739   27.0969 F   0  0  0  0  0  0  0  0  0  0  0  0
   -7.1093    1.7931   27.3492 C   0  0  0  0  0  0  0  0  0  0  0  0
   -6.2207    2.2158   28.0087 F   0  0  0  0  0  0  0  0  0  0  0  0
   -7.7244    0.7895   28.0195 F   0  0  0  0  0  0  0  0  0  0  0  0
   -6.6838    1.1167   26.1783 F   0  0  0  0  0  0  0  0  0  0  0  0
  -11.5161    3.1627   25.2199 C   0  0  0  0  0  0  0  0  0  0  0  0
  -11.6180    3.5937   23.9310 C   0  0  0  0  0  0  0  0  0  0  0  0
  -12.7724    3.4154   23.1599 C   0  0  0  0  0  0  0  0  0  0  0  0
  -13.8237    2.8326   23.6910 C   0  0  0  0  0  0  0  0  0  0  0  0
  -12.5657    2.5280   25.8638 C   0  0  0  0  0  0  0  0  0  0  0  0
  -13.7541    2.3821   25.0777 C   0  0  0  0  0  0  0  0  0  0  0  0
  3  7  1  0
  7  8  1  0
  7  9  1  0
  7 10  1  0
  2 11  1  0
 11 12  1  0
 11 13  1  0
 11 14  1  0
  6 15  1  0
 15 16  2  0
 16 17  1  0
 17 18  2  0
 18 20  1  0
 20 19  2  0
 19 15  1  0
  1  2  2  0
  2  5  1  0
  5  6  2  0
  6  4  1  0
  4  3  2  0
  3  1  1  0
M  END
$$$$
