No_8887-complexes_sdf/6BKW-FPZ/2024-09-17-14-21-01/
     RDKit          3D

 27 30  0  0  0  0  0  0  0  0999 V2000
   -7.9040    3.9820   27.1177 C   0  0  0  0  0  0  0  0  0  0  0  0
   -7.8663    4.8694   27.9238 C   0  0  0  0  0  0  0  0  0  0  0  0
   -9.0491    3.8523   26.2542 C   0  0  0  0  0  0  0  0  0  0  0  0
   -8.7661    5.9491   27.9690 C   0  0  0  0  0  0  0  0  0  0  0  0
   -9.9295    4.8502   26.2323 C   0  0  0  0  0  0  0  0  0  0  0  0
   -9.8077    5.9288   27.0933 C   0  0  0  0  0  0  0  0  0  0  0  0
   -6.8002    2.6256   27.2024 Cl  0  0  0  0  0  0  0  0  0  0  0  0
   -8.9698    2.4457   25.1479 Cl  0  0  0  0  0  0  0  0  0  0  0  0
  -10.8921    4.8132   25.2914 O   0  0  0  0  0  0  0  0  0  0  0  0
  -11.8253    3.8692   25.3869 C   0  0  0  0  0  0  0  0  0  0  0  0
  -12.5098    3.7314   26.3017 C   0  0  0  0  0  0  0  0  0  0  0  0
  -13.6427    2.8337   26.3766 C   0  0  0  0  0  0  0  0  0  0  0  0
  -13.8243    2.0739   25.2391 C   0  0  0  0  0  0  0  0  0  0  0  0
  -12.1611    2.9867   24.2621 C   0  0  0  0  0  0  0  0  0  0  0  0
  -11.2540    3.2410   23.0062 C   0  0  0  0  0  0  0  0  0  0  0  0
  -13.1174    2.1803   24.1857 C   0  0  0  0  0  0  0  0  0  0  0  0
  -11.0209    4.4757   22.5082 C   0  0  0  0  0  0  0  0  0  0  0  0
  -10.6306    2.1285   22.4412 C   0  0  0  0  0  0  0  0  0  0  0  0
  -10.2967    4.6828   21.3562 C   0  0  0  0  0  0  0  0  0  0  0  0
  -10.8277    0.8236   22.9474 C   0  0  0  0  0  0  0  0  0  0  0  0
   -9.7608    3.5888   20.6905 C   0  0  0  0  0  0  0  0  0  0  0  0
   -9.8941    2.2715   21.2614 C   0  0  0  0  0  0  0  0  0  0  0  0
   -9.8191    0.3099   23.7541 C   0  0  0  0  0  0  0  0  0  0  0  0
   -9.8138   -0.9465   24.1108 C   0  0  0  0  0  0  0  0  0  0  0  0
  -10.8633   -1.7617   23.7507 C   0  0  0  0  0  0  0  0  0  0  0  0
  -11.8702   -1.3017   22.9142 C   0  0  0  0  0  0  0  0  0  0  0  0
  -11.8172    0.0251   22.4798 C   0  0  0  0  0  0  0  0  0  0  0  0
  1  7  1  0
  3  8  1  0
  5  9  1  0
  9 10  1  0
 14 15  1  0
 18 20  1  0
 10 11  2  0
 11 12  1  0
 12 13  2  0
 13 16  1  0
 16 14  2  0
 14 10  1  0
  1  2  2  0
  2  4  1  0
  4  6  2  0
  6  5  1  0
  5  3  2  0
  3  1  1  0
 20 23  2  0
 23 24  1  0
 24 25  2  0
 25 26  1  0
 26 27  2  0
 27 20  1  0
 15 17  2  0
 17 19  1  0
 19 21  2  0
 21 22  1  0
 22 18  2  0
 18 15  1  0
M  END
$$$$
