No_8759-complexes_sdf/6BKW-FPZ/2024-09-17-14-21-01/
     RDKit          3D

 23 26  0  0  0  0  0  0  0  0999 V2000
   -7.7129    4.2099   27.0854 C   0  0  0  0  0  0  0  0  0  0  0  0
   -7.7814    5.1722   27.8972 C   0  0  0  0  0  0  0  0  0  0  0  0
   -7.3155    2.9700   27.6145 C   0  0  0  0  0  0  0  0  0  0  0  0
   -7.9010    1.7962   27.2023 C   0  0  0  0  0  0  0  0  0  0  0  0
   -8.9847    1.8780   26.3510 C   0  0  0  0  0  0  0  0  0  0  0  0
   -9.5420    0.6556   25.8878 C   0  0  0  0  0  0  0  0  0  0  0  0
   -8.8886    4.0370   26.2643 C   0  0  0  0  0  0  0  0  0  0  0  0
   -9.4103    5.2822   25.8138 N   0  0  0  0  0  0  0  0  0  0  0  0
   -9.3812    2.9721   25.7041 C   0  0  0  0  0  0  0  0  0  0  0  0
   -9.6933   -0.3898   26.3722 N   0  0  0  0  0  0  0  0  0  0  0  0
   -9.4524   -0.6169   27.5197 C   0  0  0  0  0  0  0  0  0  0  0  0
   -8.2165    6.5032   27.5148 N   0  0  0  0  0  0  0  0  0  0  0  0
   -9.0923    6.4944   26.4660 C   0  0  0  0  0  0  0  0  0  0  0  0
   -9.9341    0.7105   24.5167 O   0  0  0  0  0  0  0  0  0  0  0  0
   -9.8092   -1.9350   28.0666 C   0  0  0  0  0  0  0  0  0  0  0  0
  -10.3497   -2.6598   27.3796 C   0  0  0  0  0  0  0  0  0  0  0  0
  -10.3489   -1.5996   25.9729 C   0  0  0  0  0  0  0  0  0  0  0  0
  -10.9317   -3.8673   27.2761 C   0  0  0  0  0  0  0  0  0  0  0  0
  -11.1928   -4.6201   27.9072 C   0  0  0  0  0  0  0  0  0  0  0  0
  -11.7765   -5.9444   27.7091 C   0  0  0  0  0  0  0  0  0  0  0  0
  -12.0393   -6.1824   26.3739 C   0  0  0  0  0  0  0  0  0  0  0  0
  -11.7796   -5.2864   25.4257 C   0  0  0  0  0  0  0  0  0  0  0  0
  -11.2374   -4.1071   25.7102 C   0  0  0  0  0  0  0  0  0  0  0  0
  5  6  1  0
  6 10  1  0
 10 11  1  0
  6 14  2  0
 11 15  2  0
 15 16  1  0
 10 17  1  0
 16 17  1  0
 16 18  1  0
 18 19  2  0
 19 20  1  0
 20 21  2  0
 21 22  1  0
 22 23  2  0
 23 18  1  0
  1  2  2  0
  2 12  1  0
 12 13  2  0
 13  8  1  0
  8  7  2  0
  1  3  1  0
  3  4  2  0
  4  5  1  0
  5  9  2  0
  9  7  1  0
  7  1  1  0
M  END
$$$$
