No_8627-complexes_sdf/6BKW-FPZ/2024-09-17-14-21-01/
     RDKit          3D

 16 17  0  0  0  0  0  0  0  0999 V2000
   -7.9040    3.9820   27.1177 C   0  0  0  0  0  0  0  0  0  0  0  0
   -9.0711    4.3164   27.0630 C   0  0  0  0  0  0  0  0  0  0  0  0
   -9.8698    3.9665   25.9494 C   0  0  0  0  0  0  0  0  0  0  0  0
   -7.0332    4.5030   28.2025 C   0  0  0  0  0  0  0  0  0  0  0  0
   -9.4357    2.9501   25.1393 C   0  0  0  0  0  0  0  0  0  0  0  0
  -10.2810    2.6266   24.0411 C   0  0  0  0  0  0  0  0  0  0  0  0
   -7.6131    5.5379   28.9074 C   0  0  0  0  0  0  0  0  0  0  0  0
  -11.2591    3.4915   23.6182 C   0  0  0  0  0  0  0  0  0  0  0  0
  -11.6811    4.5571   24.4002 C   0  0  0  0  0  0  0  0  0  0  0  0
  -10.9529    4.8310   25.5525 C   0  0  0  0  0  0  0  0  0  0  0  0
   -9.3244    5.4452   27.9518 C   0  0  0  0  0  0  0  0  0  0  0  0
   -8.5271    6.2786   28.8142 C   0  0  0  0  0  0  0  0  0  0  0  0
   -9.8681    1.4863   23.1692 C   0  0  0  0  0  0  0  0  0  0  0  0
  -10.7959    0.8455   22.5416 Br  0  0  0  0  0  0  0  0  0  0  0  0
   -8.5458    1.1415   23.2969 O   0  0  0  0  0  0  0  0  0  0  0  0
   -5.4362    3.8910   28.3477 Cl  0  0  0  0  0  0  0  0  0  0  0  0
  6 13  1  0
 13 14  1  0
 13 15  2  0
  4 16  1  0
  2  3  1  0
  1  2  2  0
  2 11  1  0
 11 12  2  0
 12  7  1  0
  7  4  2  0
  4  1  1  0
  3  5  2  0
  5  6  1  0
  6  8  2  0
  8  9  1  0
  9 10  2  0
 10  3  1  0
M  END
$$$$
