No_8183-complexes_sdf/6BKW-FPZ/2024-09-17-14-21-01/
     RDKit          3D

 14 15  0  0  0  0  0  0  0  0999 V2000
   -7.2496    3.8871   27.4508 C   0  0  0  0  0  0  0  0  0  0  0  0
   -7.9379    4.9063   27.8518 C   0  0  0  0  0  0  0  0  0  0  0  0
   -9.3376    4.8647   27.7795 C   0  0  0  0  0  0  0  0  0  0  0  0
   -7.8544    2.6294   27.0414 C   0  0  0  0  0  0  0  0  0  0  0  0
   -9.2852    2.6570   27.0666 C   0  0  0  0  0  0  0  0  0  0  0  0
  -10.0126    3.7528   27.4890 C   0  0  0  0  0  0  0  0  0  0  0  0
   -9.9609    1.3640   26.7239 C   0  0  0  0  0  0  0  0  0  0  0  0
  -10.7586    0.8639   27.5578 C   0  0  0  0  0  0  0  0  0  0  0  0
  -11.4523   -0.3839   27.3796 C   0  0  0  0  0  0  0  0  0  0  0  0
  -11.1327   -1.0627   26.2490 C   0  0  0  0  0  0  0  0  0  0  0  0
   -9.5575    0.6816   25.5793 C   0  0  0  0  0  0  0  0  0  0  0  0
  -10.1860   -0.5269   25.3389 C   0  0  0  0  0  0  0  0  0  0  0  0
   -7.3221    6.0827   28.1631 O   0  0  0  0  0  0  0  0  0  0  0  0
  -11.7218    3.7087   27.5565 Cl  0  0  0  0  0  0  0  0  0  0  0  0
  5  7  1  0
  2 13  1  0
  6 14  1  0
  7  8  2  0
  8  9  1  0
  9 10  2  0
 10 12  1  0
 12 11  2  0
 11  7  1  0
  1  2  2  0
  2  3  1  0
  3  6  2  0
  6  5  1  0
  5  4  2  0
  4  1  1  0
M  END
$$$$
