No_8330-complexes_sdf/6BKW-FPZ/2024-09-17-14-21-01/
     RDKit          3D

 24 27  0  0  0  0  0  0  0  0999 V2000
   -7.2496    3.8871   27.4508 C   0  0  0  0  0  0  0  0  0  0  0  0
   -7.9379    4.9063   27.8518 C   0  0  0  0  0  0  0  0  0  0  0  0
   -7.5112    6.1898   27.6280 C   0  0  0  0  0  0  0  0  0  0  0  0
   -7.8078    2.6331   27.2522 C   0  0  0  0  0  0  0  0  0  0  0  0
   -7.1538    1.5087   26.7509 C   0  0  0  0  0  0  0  0  0  0  0  0
   -9.2767    2.6625   26.9122 C   0  0  0  0  0  0  0  0  0  0  0  0
   -9.9630    1.4290   27.2529 C   0  0  0  0  0  0  0  0  0  0  0  0
   -7.7991    0.2858   26.7816 C   0  0  0  0  0  0  0  0  0  0  0  0
   -9.1910    0.2595   27.0068 C   0  0  0  0  0  0  0  0  0  0  0  0
   -8.2640    7.2961   27.0586 C   0  0  0  0  0  0  0  0  0  0  0  0
   -9.9626   -1.0293   27.0568 C   0  0  0  0  0  0  0  0  0  0  0  0
  -10.9377   -1.2318   26.8465 C   0  0  0  0  0  0  0  0  0  0  0  0
  -11.6374   -2.5407   27.0002 C   0  0  0  0  0  0  0  0  0  0  0  0
   -9.3883   -1.9511   28.1337 C   0  0  0  0  0  0  0  0  0  0  0  0
   -9.8479   -3.1455   28.4096 C   0  0  0  0  0  0  0  0  0  0  0  0
  -11.0779   -3.4158   27.8342 C   0  0  0  0  0  0  0  0  0  0  0  0
   -9.6205    6.9968   26.6823 C   0  0  0  0  0  0  0  0  0  0  0  0
  -10.1080    5.7016   27.0710 C   0  0  0  0  0  0  0  0  0  0  0  0
   -9.3963    4.7329   27.6469 C   0  0  0  0  0  0  0  0  0  0  0  0
   -9.7911    3.8454   27.6465 N   0  0  0  0  0  0  0  0  0  0  0  0
  -11.0197    3.5850   28.5553 C   0  0  0  0  0  0  0  0  0  0  0  0
  -12.3419    3.6305   27.9848 C   0  0  0  0  0  0  0  0  0  0  0  0
  -12.6571    3.9042   26.8698 C   0  0  0  0  0  0  0  0  0  0  0  0
  -13.9897    4.0764   26.3853 C   0  0  0  0  0  0  0  0  0  0  0  0
  1  2  1  0
  1  4  1  0
  9 11  1  0
  6 20  1  0
 19 20  1  0
 20 21  1  0
 21 22  1  0
 22 23  2  3
 23 24  1  0
 11 12  2  0
 12 13  1  0
 13 16  2  0
 16 15  1  0
 15 14  2  0
 14 11  1  0
  2  3  2  0
  3 10  1  0
 10 17  2  0
 17 18  1  0
 18 19  2  0
 19  2  1  0
  4  5  2  0
  5  8  1  0
  8  9  2  0
  9  7  1  0
  7  6  2  0
  6  4  1  0
M  END
$$$$
