No_8568-complexes_sdf/6BKW-FPZ/2024-09-17-14-21-01/
     RDKit          3D

 38 42  0  0  0  0  0  0  0  0999 V2000
   -7.9040    3.9820   27.1177 C   0  0  0  0  0  0  0  0  0  0  0  0
   -9.0711    4.3164   27.0630 C   0  0  0  0  0  0  0  0  0  0  0  0
   -9.9692    3.7224   26.1073 C   0  0  0  0  0  0  0  0  0  0  0  0
   -6.9787    4.6761   28.1003 C   0  0  0  0  0  0  0  0  0  0  0  0
  -11.1978    4.2793   25.7845 C   0  0  0  0  0  0  0  0  0  0  0  0
  -11.9722    3.7671   24.7671 C   0  0  0  0  0  0  0  0  0  0  0  0
  -11.4321    2.7931   23.9433 C   0  0  0  0  0  0  0  0  0  0  0  0
  -10.2070    2.2970   24.1835 C   0  0  0  0  0  0  0  0  0  0  0  0
   -9.3944    2.8078   25.1975 C   0  0  0  0  0  0  0  0  0  0  0  0
   -7.5140    5.6743   28.8888 C   0  0  0  0  0  0  0  0  0  0  0  0
   -9.4880    5.3919   27.8970 C   0  0  0  0  0  0  0  0  0  0  0  0
   -8.7303    6.0841   28.7261 C   0  0  0  0  0  0  0  0  0  0  0  0
  -12.1505    2.2247   22.9494 F   0  0  0  0  0  0  0  0  0  0  0  0
   -9.6328    1.2186   23.3007 C   0  0  0  0  0  0  0  0  0  0  0  0
   -8.6851    0.3888   23.8131 C   0  0  0  0  0  0  0  0  0  0  0  0
   -8.1220   -0.6273   22.9552 C   0  0  0  0  0  0  0  0  0  0  0  0
   -8.6518   -0.7516   21.6581 C   0  0  0  0  0  0  0  0  0  0  0  0
   -9.6611    0.1106   21.2235 C   0  0  0  0  0  0  0  0  0  0  0  0
  -10.1143    1.1142   22.0582 C   0  0  0  0  0  0  0  0  0  0  0  0
   -8.1781   -1.8277   20.7869 C   0  0  0  0  0  0  0  0  0  0  0  0
   -8.2818   -3.0112   21.2715 C   0  0  0  0  0  0  0  0  0  0  0  0
   -7.7197   -4.1222   20.4278 C   0  0  0  0  0  0  0  0  0  0  0  0
   -7.1372   -3.8134   19.2138 C   0  0  0  0  0  0  0  0  0  0  0  0
   -7.0869   -2.5033   18.7858 C   0  0  0  0  0  0  0  0  0  0  0  0
   -7.5308   -1.5370   19.5385 C   0  0  0  0  0  0  0  0  0  0  0  0
   -6.6419   -4.8653   18.4667 O   0  0  0  0  0  0  0  0  0  0  0  0
   -6.5565   -4.8526   17.2848 C   0  0  2  0  0  0  0  0  0  0  0  0
   -6.5086   -5.9306   16.6211 C   0  0  0  0  0  0  0  0  0  0  0  0
   -6.4304   -7.0786   17.2036 C   0  0  0  0  0  0  0  0  0  0  0  0
   -6.5108   -8.3839   16.5090 C   0  0  0  0  0  0  0  0  0  0  0  0
   -6.6046   -8.2987   15.1050 C   0  0  0  0  0  0  0  0  0  0  0  0
   -6.6670   -7.1274   14.4409 C   0  0  0  0  0  0  0  0  0  0  0  0
   -6.6682   -5.8650   15.1591 C   0  0  0  0  0  0  0  0  0  0  0  0
   -5.2722   -3.8835   16.9231 C   0  0  0  0  0  0  0  0  0  0  0  0
   -4.2085   -3.9847   17.7142 C   0  0  0  0  0  0  0  0  0  0  0  0
   -3.7578   -4.6437   18.4531 C   0  0  0  0  0  0  0  0  0  0  0  0
   -2.5597   -4.4676   19.2651 C   0  0  0  0  0  0  0  0  0  0  0  0
   -2.1619   -5.1546   20.4452 C   0  0  0  0  0  0  0  0  0  0  0  0
  2  3  1  0
  7 13  1  0
  8 14  1  0
 17 20  1  0
 23 26  1  0
 26 27  1  0
 27 34  1  1
 34 35  1  0
 35 36  2  3
 36 37  1  0
 37 38  1  0
 27 28  1  0
  3  5  2  0
  5  6  1  0
  6  7  2  0
  7  8  1  0
  8  9  2  0
  9  3  1  0
  1  2  2  0
  2 11  1  0
 11 12  2  0
 12 10  1  0
 10  4  2  0
  4  1  1  0
 14 15  2  0
 15 16  1  0
 16 17  2  0
 17 18  1  0
 18 19  2  0
 19 14  1  0
 20 21  2  0
 21 22  1  0
 22 23  2  0
 23 24  1  0
 24 25  2  0
 25 20  1  0
 28 29  2  0
 29 30  1  0
 30 31  2  0
 31 32  1  0
 32 33  2  0
 33 28  1  0
M  END
$$$$
