No_8207-complexes_sdf/6BKW-FPZ/2024-09-17-14-21-01/
     RDKit          3D

 14 15  0  0  0  0  0  0  0  0999 V2000
   -7.2496    3.8871   27.4508 C   0  0  0  0  0  0  0  0  0  0  0  0
   -7.6161    2.7143   27.1523 C   0  0  0  0  0  0  0  0  0  0  0  0
   -8.8302    2.4659   26.5056 C   0  0  0  0  0  0  0  0  0  0  0  0
   -8.1584    5.0090   27.3234 C   0  0  0  0  0  0  0  0  0  0  0  0
   -9.3788    4.7965   26.7695 C   0  0  0  0  0  0  0  0  0  0  0  0
   -9.7028    3.5649   26.3276 C   0  0  0  0  0  0  0  0  0  0  0  0
   -6.8003    1.6684   27.3622 F   0  0  0  0  0  0  0  0  0  0  0  0
   -7.7380    6.2294   27.7219 F   0  0  0  0  0  0  0  0  0  0  0  0
  -11.0198    3.5748   25.6257 C   0  0  0  0  0  0  0  0  0  0  0  0
  -11.3787    2.3125   25.0061 C   0  0  0  0  0  0  0  0  0  0  0  0
  -12.4875    2.3251   24.2826 C   0  0  0  0  0  0  0  0  0  0  0  0
  -13.2873    3.5154   24.1770 C   0  0  0  0  0  0  0  0  0  0  0  0
  -12.9042    4.6789   24.8013 C   0  0  0  0  0  0  0  0  0  0  0  0
  -11.7410    4.7242   25.5191 C   0  0  0  0  0  0  0  0  0  0  0  0
  2  7  1  0
  4  8  1  0
  6  9  1  0
  1  2  2  0
  2  3  1  0
  3  6  2  0
  6  5  1  0
  5  4  2  0
  4  1  1  0
  9 10  2  0
 10 11  1  0
 11 12  2  0
 12 13  1  0
 13 14  2  0
 14  9  1  0
M  END
$$$$
