No_899-complexes_sdf/6BKW-FPZ/2024-09-17-14-21-01/
     RDKit          3D

 22 24  0  0  0  0  0  0  0  0999 V2000
   -7.2496    3.8871   27.4508 C   0  0  0  0  0  0  0  0  0  0  0  0
   -8.5096    4.0291   27.2770 C   0  0  0  0  0  0  0  0  0  0  0  0
   -9.2669    5.1645   27.5845 C   0  0  0  0  0  0  0  0  0  0  0  0
   -8.4566    6.3212   27.8001 C   0  0  0  0  0  0  0  0  0  0  0  0
   -6.4921    5.0197   27.7961 C   0  0  0  0  0  0  0  0  0  0  0  0
   -7.1702    6.2351   27.9936 C   0  0  0  0  0  0  0  0  0  0  0  0
   -9.3421    2.7548   27.0159 C   0  0  0  0  0  0  0  0  0  0  0  0
  -10.5578    2.6351   27.3780 C   0  0  0  0  0  0  0  0  0  0  0  0
  -11.3041    1.4053   27.1676 C   0  0  0  0  0  0  0  0  0  0  0  0
   -8.9812    2.1221   25.7885 C   0  0  0  0  0  0  0  0  0  0  0  0
   -9.5837    0.9647   25.3860 C   0  0  0  0  0  0  0  0  0  0  0  0
  -10.8290    0.6474   26.0715 C   0  0  0  0  0  0  0  0  0  0  0  0
  -11.5494   -0.5600   25.6665 C   0  0  0  0  0  0  0  0  0  0  0  0
  -12.3386   -0.5631   24.8013 C   0  0  0  0  0  0  0  0  0  0  0  0
  -13.0425   -1.7021   24.3944 C   0  0  0  0  0  0  0  0  0  0  0  0
  -11.2070   -1.7277   26.4338 C   0  0  0  0  0  0  0  0  0  0  0  0
  -11.9038   -2.9189   26.1293 C   0  0  0  0  0  0  0  0  0  0  0  0
  -12.7905   -2.8812   25.1068 C   0  0  0  0  0  0  0  0  0  0  0  0
  -13.6008   -3.8842   24.6974 O   0  0  0  0  0  0  0  0  0  0  0  0
  -12.4823    1.0901   27.8532 C   0  0  0  0  0  0  0  0  0  0  0  0
  -12.5204    0.3119   28.8637 C   0  0  0  0  0  0  0  0  0  0  0  0
  -13.6600   -0.0005   29.6739 C   0  0  0  0  0  0  0  0  0  0  0  0
  2  7  1  0
 12 13  1  0
 18 19  1  0
  9 20  1  0
 20 21  2  3
 21 22  1  0
 13 14  2  0
 14 15  1  0
 15 18  2  0
 18 17  1  0
 17 16  2  0
 16 13  1  0
  1  2  2  0
  2  3  1  0
  3  4  2  0
  4  6  1  0
  6  5  2  0
  5  1  1  0
  7  8  2  0
  8  9  1  0
  9 12  2  0
 12 11  1  0
 11 10  2  0
 10  7  1  0
M  END
$$$$
