No_8377-complexes_sdf/6BKW-FPZ/2024-09-17-14-21-01/
     RDKit          3D

 30 33  0  0  0  0  0  0  0  0999 V2000
   -7.7129    4.2099   27.0854 C   0  0  0  0  0  0  0  0  0  0  0  0
   -7.7814    5.1722   27.8972 C   0  0  0  0  0  0  0  0  0  0  0  0
   -8.8998    3.8713   26.3707 C   0  0  0  0  0  0  0  0  0  0  0  0
   -8.9563    2.6796   25.5490 C   0  0  0  0  0  0  0  0  0  0  0  0
   -8.8131    6.1334   27.9344 C   0  0  0  0  0  0  0  0  0  0  0  0
   -9.9804    5.8121   27.1929 C   0  0  0  0  0  0  0  0  0  0  0  0
   -9.9861    4.6836   26.4532 C   0  0  0  0  0  0  0  0  0  0  0  0
   -8.3357    1.4961   26.0703 C   0  0  0  0  0  0  0  0  0  0  0  0
   -8.9106    0.5792   26.3336 C   0  0  0  0  0  0  0  0  0  0  0  0
   -8.2434   -0.6431   26.9796 C   0  0  0  0  0  0  0  0  0  0  0  0
   -7.2262   -0.5452   27.2196 C   0  0  0  0  0  0  0  0  0  0  0  0
   -6.3290    0.5920   27.1107 C   0  0  0  0  0  0  0  0  0  0  0  0
   -6.9330    1.6773   26.5988 C   0  0  0  0  0  0  0  0  0  0  0  0
   -4.9749    0.6542   27.6710 C   0  0  0  0  0  0  0  0  0  0  0  0
   -4.4711    1.4746   28.1868 C   0  0  0  0  0  0  0  0  0  0  0  0
   -4.1848   -0.5040   27.3028 C   0  0  0  0  0  0  0  0  0  0  0  0
   -2.8045   -0.5383   27.6344 C   0  0  0  0  0  0  0  0  0  0  0  0
   -2.1001   -1.6785   27.3330 C   0  0  0  0  0  0  0  0  0  0  0  0
   -3.2285    1.0979   28.7602 C   0  0  0  0  0  0  0  0  0  0  0  0
   -2.2548    0.1358   28.3047 C   0  0  0  0  0  0  0  0  0  0  0  0
   -0.9280   -1.8539   27.3986 N   0  0  0  0  0  0  0  0  0  0  0  0
   -2.7694   -2.8448   26.9501 N   0  0  0  0  0  0  0  0  0  0  0  0
   -0.1188   -2.9501   26.9790 C   0  0  0  0  0  0  0  0  0  0  0  0
   -2.1741   -3.9349   26.4213 C   0  0  0  0  0  0  0  0  0  0  0  0
   -0.8226   -4.0399   26.5237 C   0  0  0  0  0  0  0  0  0  0  0  0
  -11.1736    4.4135   25.6576 C   0  0  0  0  0  0  0  0  0  0  0  0
  -12.3033    3.9125   26.1934 C   0  0  0  0  0  0  0  0  0  0  0  0
  -12.4075    3.8134   27.6763 C   0  0  0  0  0  0  0  0  0  0  0  0
  -13.6208    3.4139   28.2793 C   0  0  0  0  0  0  0  0  0  0  0  0
  -14.6896    3.2124   27.4219 C   0  0  0  0  0  0  0  0  0  0  0  0
  3  4  1  0
  4  8  1  0
 12 14  1  0
 17 18  1  0
  7 26  1  0
 26 27  2  3
 27 28  1  0
 28 29  2  3
 29 30  1  0
 18 21  2  0
 21 23  1  0
 23 25  2  0
 25 24  1  0
 24 22  2  0
 22 18  1  0
  8  9  2  0
  9 10  1  0
 10 11  2  0
 11 12  1  0
 12 13  2  0
 13  8  1  0
  1  2  2  0
  2  5  1  0
  5  6  2  0
  6  7  1  0
  7  3  2  0
  3  1  1  0
 14 15  2  0
 15 19  1  0
 19 20  2  0
 20 17  1  0
 17 16  2  0
 16 14  1  0
M  END
$$$$
