No_8332-complexes_sdf/6BKW-FPZ/2024-09-17-14-21-01/
     RDKit          3D

 39 42  0  0  0  0  0  0  0  0999 V2000
   -7.2496    3.8871   27.4508 C   0  0  0  0  0  0  0  0  0  0  0  0
   -7.9379    4.9063   27.8518 C   0  0  0  0  0  0  0  0  0  0  0  0
   -9.3376    4.8647   27.7795 C   0  0  0  0  0  0  0  0  0  0  0  0
   -7.8544    2.6294   27.0414 C   0  0  0  0  0  0  0  0  0  0  0  0
   -9.2852    2.6570   27.0666 C   0  0  0  0  0  0  0  0  0  0  0  0
  -10.0126    3.7528   27.4890 C   0  0  0  0  0  0  0  0  0  0  0  0
  -11.4946    3.6924   27.5201 C   0  0  0  0  0  0  0  0  0  0  0  0
  -12.0181    2.6419   28.0792 C   0  0  0  0  0  0  0  0  0  0  0  0
  -11.1682    1.5746   28.6283 C   0  0  0  0  0  0  0  0  0  0  0  0
   -9.9209    1.3590   27.7556 C   0  0  2  0  0  0  0  0  0  0  0  0
   -7.3909    6.1043   28.2134 O   0  0  0  0  0  0  0  0  0  0  0  0
  -13.4430    2.5315   28.4642 C   0  0  0  0  0  0  0  0  0  0  0  0
  -14.0466    1.8934   29.0499 O   0  0  0  0  0  0  0  0  0  0  0  0
  -14.1276    3.6267   27.8951 O   0  0  0  0  0  0  0  0  0  0  0  0
   -9.2772    0.1255   27.6819 C   0  0  0  0  0  0  0  0  0  0  0  0
   -8.1491   -0.0362   27.1185 C   0  0  0  0  0  0  0  0  0  0  0  0
   -7.2683    1.3218   26.8962 C   0  0  0  0  0  0  0  0  0  0  0  0
   -7.3588   -1.1916   26.9646 C   0  0  0  0  0  0  0  0  0  0  0  0
   -6.4328   -1.5701   27.4192 N   0  0  0  0  0  0  0  0  0  0  0  0
   -5.6635   -2.6459   27.2266 C   0  0  0  0  0  0  0  0  0  0  0  0
   -8.0171   -2.0765   26.1253 O   0  0  0  0  0  0  0  0  0  0  0  0
  -15.4283    3.8293   28.1837 C   0  0  0  0  0  0  0  0  0  0  0  0
  -15.9073    4.8646   27.4977 C   0  0  0  0  0  0  0  0  0  0  0  0
  -14.9501    5.6611   26.9953 C   0  0  0  0  0  0  0  0  0  0  0  0
  -17.2951    5.1340   27.2673 C   0  0  0  0  0  0  0  0  0  0  0  0
  -17.6499    6.0481   26.4332 C   0  0  0  0  0  0  0  0  0  0  0  0
  -15.4198    6.8184   26.0659 C   0  0  0  0  0  0  0  0  0  0  0  0
  -16.7233    7.0165   25.8425 C   0  0  0  0  0  0  0  0  0  0  0  0
  -17.1580    8.1111   24.9415 C   0  0  0  0  0  0  0  0  0  0  0  0
  -16.4005    8.2885   23.9962 F   0  0  0  0  0  0  0  0  0  0  0  0
  -18.3529    8.4105   24.7713 F   0  0  0  0  0  0  0  0  0  0  0  0
  -16.8829    9.3239   25.7645 F   0  0  0  0  0  0  0  0  0  0  0  0
   -5.6531   -0.6421   28.4611 C   0  0  0  0  0  0  0  0  0  0  0  0
   -4.3716   -0.8269   28.6331 C   0  0  0  0  0  0  0  0  0  0  0  0
   -3.5202   -0.2155   28.1209 C   0  0  0  0  0  0  0  0  0  0  0  0
   -2.5407   -0.1656   27.8411 C   0  0  0  0  0  0  0  0  0  0  0  0
   -1.6374    0.8764   27.1242 C   0  0  0  0  0  0  0  0  0  0  0  0
   -2.4661    1.7231   26.3323 C   0  0  0  0  0  0  0  0  0  0  0  0
   -3.7992    1.8948   26.5936 C   0  0  0  0  0  0  0  0  0  0  0  0
  1  2  2  0
  2  3  1  0
  1  4  1  0
  4  5  2  0
  3  6  2  0
  5  6  1  0
  6  7  1  0
  7  8  2  0
  8  9  1  0
  5 10  1  0
 10  9  1  1
  2 11  1  0
  8 12  1  0
 12 13  2  0
 12 14  1  0
 10 15  1  0
 15 16  2  0
  4 17  1  0
 16 17  1  0
 16 18  1  0
 18 19  1  0
 19 20  1  0
 18 21  2  0
 14 22  1  0
 22 23  1  0
 23 24  1  0
 23 25  1  0
 25 26  2  0
 24 27  2  0
 26 28  1  0
 27 28  1  0
 28 29  1  0
 29 30  1  0
 29 31  1  0
 29 32  1  0
 19 33  1  0
 33 34  2  3
 34 35  1  0
 35 36  3  0
 36 37  1  0
 37 38  2  3
 38 39  1  0
M  END
$$$$
