No_8436-complexes_sdf/6BKW-FPZ/2024-09-17-14-21-01/
     RDKit          3D

 23 25  0  0  0  0  0  0  0  0999 V2000
   -7.2496    3.8871   27.4508 C   0  0  0  0  0  0  0  0  0  0  0  0
   -7.6161    2.7143   27.1523 C   0  0  0  0  0  0  0  0  0  0  0  0
   -8.6007    2.2753   27.5344 C   0  0  0  0  0  0  0  0  0  0  0  0
   -8.1723    4.9076   27.9308 C   0  0  0  0  0  0  0  0  0  0  0  0
   -9.4370    4.4190   28.1790 C   0  0  0  0  0  0  0  0  0  0  0  0
   -9.7217    3.1013   28.0011 C   0  0  0  0  0  0  0  0  0  0  0  0
   -7.8223    6.1203   28.1492 F   0  0  0  0  0  0  0  0  0  0  0  0
   -8.9326    0.7575   27.2362 C   0  0  1  0  0  0  0  0  0  0  0  0
   -8.0470   -0.1333   27.6339 C   0  0  0  0  0  0  0  0  0  0  0  0
   -8.3373   -1.5159   27.5993 C   0  0  0  0  0  0  0  0  0  0  0  0
   -7.4661   -2.4560   28.0766 C   0  0  0  0  0  0  0  0  0  0  0  0
   -6.2096   -2.0362   28.5775 C   0  0  0  0  0  0  0  0  0  0  0  0
   -5.8381   -0.7064   28.5136 C   0  0  0  0  0  0  0  0  0  0  0  0
   -6.6787    0.2169   28.1140 C   0  0  0  0  0  0  0  0  0  0  0  0
  -10.2166    0.4146   26.7618 C   0  0  0  0  0  0  0  0  0  0  0  0
  -10.5462    0.2460   25.7491 C   0  0  0  0  0  0  0  0  0  0  0  0
   -9.6194    0.5732   24.5602 C   0  0  0  0  0  0  0  0  0  0  0  0
  -10.0200    0.5103   23.1940 C   0  0  0  0  0  0  0  0  0  0  0  0
  -11.1125   -0.0288   22.8659 C   0  0  0  0  0  0  0  0  0  0  0  0
  -11.5201   -0.0311   21.5169 C   0  0  0  0  0  0  0  0  0  0  0  0
  -11.0549    0.5111   20.7817 C   0  0  0  0  0  0  0  0  0  0  0  0
   -9.7975    1.3002   20.9149 C   0  0  0  0  0  0  0  0  0  0  0  0
   -9.3035    1.3368   22.1922 C   0  0  0  0  0  0  0  0  0  0  0  0
  4  7  1  0
  8  3  1  1
  8  9  1  0
  8 15  1  0
 15 16  2  3
 16 17  1  0
 17 18  1  0
 18 19  2  0
 19 20  1  0
 20 21  2  0
 21 22  1  0
 22 23  2  0
 23 18  1  0
  1  2  2  0
  2  3  1  0
  3  6  2  0
  6  5  1  0
  5  4  2  0
  4  1  1  0
  9 10  2  0
 10 11  1  0
 11 12  2  0
 12 13  1  0
 13 14  2  0
 14  9  1  0
M  END
$$$$
