No_808-complexes_sdf/6BKW-FPZ/2024-09-17-14-21-01/
     RDKit          3D

 22 24  0  0  0  0  0  0  0  0999 V2000
   -7.9040    3.9820   27.1177 C   0  0  0  0  0  0  0  0  0  0  0  0
   -9.0711    4.3164   27.0630 C   0  0  0  0  0  0  0  0  0  0  0  0
   -9.9692    3.7224   26.1073 C   0  0  0  0  0  0  0  0  0  0  0  0
   -6.9787    4.6761   28.1003 C   0  0  0  0  0  0  0  0  0  0  0  0
   -9.4538    2.6801   25.3673 C   0  0  0  0  0  0  0  0  0  0  0  0
   -8.1927    2.1957   25.6621 C   0  0  0  0  0  0  0  0  0  0  0  0
   -7.4333    2.8255   26.6299 C   0  0  0  0  0  0  0  0  0  0  0  0
  -10.3181    2.0008   24.3846 C   0  0  0  0  0  0  0  0  0  0  0  0
  -10.7358    2.6411   23.3159 C   0  0  0  0  0  0  0  0  0  0  0  0
  -11.4735    2.0086   22.2438 C   0  0  0  0  0  0  0  0  0  0  0  0
  -11.6287    0.6012   22.3603 C   0  0  0  0  0  0  0  0  0  0  0  0
  -10.4396    0.6125   24.2797 C   0  0  0  0  0  0  0  0  0  0  0  0
  -11.0707   -0.0469   23.3409 C   0  0  0  0  0  0  0  0  0  0  0  0
   -7.4862    5.8006   28.6551 N   0  0  0  0  0  0  0  0  0  0  0  0
   -5.8990    4.1447   28.4636 O   0  0  0  0  0  0  0  0  0  0  0  0
  -10.5799    4.3868   23.1198 Cl  0  0  0  0  0  0  0  0  0  0  0  0
  -11.3364   -1.9380   23.3957 Br  0  0  0  0  0  0  0  0  0  0  0  0
  -12.5245   -0.1502   21.0488 Cl  0  0  0  0  0  0  0  0  0  0  0  0
  -12.0658    2.9263   20.8963 Cl  0  0  0  0  0  0  0  0  0  0  0  0
   -9.7509   -0.3143   25.7075 Cl  0  0  0  0  0  0  0  0  0  0  0  0
   -9.7337    5.4398   27.6498 N   0  0  0  0  0  0  0  0  0  0  0  0
   -8.7825    6.2558   28.3924 C   0  0  0  0  0  0  0  0  0  0  0  0
  5  8  1  0
  4 15  1  0
  9 16  1  0
 13 17  1  0
 11 18  1  0
 10 19  1  0
 12 20  1  0
  2 21  1  0
 21 22  2  0
 22 14  1  0
 14  4  2  0
  4  1  1  0
  8  9  2  0
  9 10  1  0
 10 11  2  0
 11 13  1  0
 13 12  2  0
 12  8  1  0
  1  2  1  0
  2  3  2  0
  3  5  1  0
  5  6  2  0
  6  7  1  0
  7  1  2  0
M  END
$$$$
