No_8658-complexes_sdf/6BKW-FPZ/2024-09-17-14-21-01/
     RDKit          3D

 15 17  0  0  0  0  0  0  0  0999 V2000
   -7.2496    3.8871   27.4508 C   0  0  0  0  0  0  0  0  0  0  0  0
   -7.9379    4.9063   27.8518 C   0  0  0  0  0  0  0  0  0  0  0  0
   -9.3376    4.8647   27.7795 C   0  0  0  0  0  0  0  0  0  0  0  0
   -7.8544    2.6294   27.0414 C   0  0  0  0  0  0  0  0  0  0  0  0
   -9.2852    2.6570   27.0666 C   0  0  0  0  0  0  0  0  0  0  0  0
  -10.0126    3.7528   27.4890 C   0  0  0  0  0  0  0  0  0  0  0  0
   -9.9609    1.3640   26.7239 C   0  0  0  0  0  0  0  0  0  0  0  0
  -10.7586    0.8639   27.5578 C   0  0  0  0  0  0  0  0  0  0  0  0
  -11.4523   -0.3839   27.3796 C   0  0  0  0  0  0  0  0  0  0  0  0
  -12.3437   -0.8738   28.3645 C   0  0  0  0  0  0  0  0  0  0  0  0
  -12.7362    0.0159   29.3953 C   0  0  0  0  0  0  0  0  0  0  0  0
  -12.2721    1.3161   29.4836 C   0  0  0  0  0  0  0  0  0  0  0  0
  -11.3157    1.7865   28.6603 C   0  0  0  0  0  0  0  0  0  0  0  0
  -11.1896    3.3444   28.2583 N   0  0  0  0  0  0  0  0  0  0  0  0
   -7.3184    6.1108   28.0607 O   0  0  0  0  0  0  0  0  0  0  0  0
  2 15  1  0
  6 14  1  0
 14 13  2  0
  8  7  2  0
  7  5  1  0
  1  2  2  0
  2  3  1  0
  3  6  2  0
  6  5  1  0
  5  4  2  0
  4  1  1  0
  8  9  1  0
  9 10  2  0
 10 11  1  0
 11 12  2  0
 12 13  1  0
 13  8  1  0
M  END
$$$$
