No_8697-complexes_sdf/6BKW-FPZ/2024-09-17-14-21-01/
     RDKit          3D

 19 21  0  0  0  0  0  0  0  0999 V2000
   -7.7129    4.2099   27.0854 C   0  0  0  0  0  0  0  0  0  0  0  0
   -7.7814    5.1722   27.8972 C   0  0  0  0  0  0  0  0  0  0  0  0
   -8.8776    3.8408   26.3416 C   0  0  0  0  0  0  0  0  0  0  0  0
   -9.9844    4.6492   26.4743 C   0  0  0  0  0  0  0  0  0  0  0  0
   -8.7830    6.1594   27.8870 C   0  0  0  0  0  0  0  0  0  0  0  0
   -9.9269    5.8191   27.1183 C   0  0  0  0  0  0  0  0  0  0  0  0
   -8.8833    2.5999   25.5655 C   0  0  0  0  0  0  0  0  0  0  0  0
   -9.6888    1.6516   26.0441 C   0  0  0  0  0  0  0  0  0  0  0  0
  -10.6271    1.6355   26.7852 C   0  0  0  0  0  0  0  0  0  0  0  0
  -11.2222    0.7284   27.3974 C   0  0  0  0  0  0  0  0  0  0  0  0
  -10.8226   -0.6231   27.0665 C   0  0  0  0  0  0  0  0  0  0  0  0
   -9.1753    0.3106   25.8413 C   0  0  0  0  0  0  0  0  0  0  0  0
   -9.7849   -0.7816   26.3194 C   0  0  0  0  0  0  0  0  0  0  0  0
   -7.9559    0.0408   24.9064 C   0  0  0  0  0  0  0  0  0  0  0  0
   -8.3049   -0.2925   23.5477 C   0  0  0  0  0  0  0  0  0  0  0  0
   -7.3610   -0.9778   22.8615 C   0  0  0  0  0  0  0  0  0  0  0  0
   -5.9808   -1.0812   23.2819 C   0  0  0  0  0  0  0  0  0  0  0  0
   -5.7456   -0.7310   24.6260 C   0  0  0  0  0  0  0  0  0  0  0  0
   -6.7000   -0.2656   25.4613 C   0  0  0  0  0  0  0  0  0  0  0  0
  3  7  1  0
  7  8  1  0
 12 14  1  0
 14 15  2  0
 15 16  1  0
 16 17  2  0
 17 18  1  0
 18 19  2  0
 19 14  1  0
  1  2  2  0
  2  5  1  0
  5  6  2  0
  6  4  1  0
  4  3  2  0
  3  1  1  0
  8  9  2  0
  9 10  1  0
 10 11  2  0
 11 13  1  0
 13 12  2  0
 12  8  1  0
M  END
$$$$
