No_8778-complexes_sdf/6BKW-FPZ/2024-09-17-14-21-01/
     RDKit          3D

 33 35  0  0  0  0  0  0  0  0999 V2000
   -7.9040    3.9820   27.1177 C   0  0  0  0  0  0  0  0  0  0  0  0
   -7.8663    4.8694   27.9238 C   0  0  0  0  0  0  0  0  0  0  0  0
   -7.4698    2.6989   27.4277 C   0  0  0  0  0  0  0  0  0  0  0  0
   -7.9683    1.5964   26.8266 C   0  0  1  0  0  0  0  0  0  0  0  0
   -8.9447    1.7923   25.8533 C   0  0  0  0  0  0  0  0  0  0  0  0
   -9.4405    2.9988   25.5757 C   0  0  0  0  0  0  0  0  0  0  0  0
   -8.9424    4.1117   26.2388 C   0  0  0  0  0  0  0  0  0  0  0  0
   -8.2732    6.2141   27.6484 N   0  0  0  0  0  0  0  0  0  0  0  0
   -9.1790    6.5361   26.7045 C   0  0  0  0  0  0  0  0  0  0  0  0
   -9.5395    5.4021   25.9218 C   0  0  0  0  0  0  0  0  0  0  0  0
   -7.3870    0.2618   27.0958 C   0  0  0  0  0  0  0  0  0  0  0  0
   -8.1817   -0.7866   27.3577 C   0  0  0  0  0  0  0  0  0  0  0  0
   -9.6007   -0.5937   27.3959 C   0  0  0  0  0  0  0  0  0  0  0  0
  -10.3202   -1.3104   26.4527 C   0  0  0  0  0  0  0  0  0  0  0  0
  -11.1326   -2.1033   26.8481 C   0  0  0  0  0  0  0  0  0  0  0  0
  -11.6813   -3.0599   25.9821 C   0  0  0  0  0  0  0  0  0  0  0  0
  -11.4307   -2.9147   24.6332 C   0  0  0  0  0  0  0  0  0  0  0  0
  -10.5486   -1.9702   24.2106 C   0  0  0  0  0  0  0  0  0  0  0  0
   -9.9462   -1.1441   25.1598 C   0  0  0  0  0  0  0  0  0  0  0  0
   -5.9415    0.1788   27.1757 C   0  0  0  0  0  0  0  0  0  0  0  0
   -5.3242   -0.5899   26.6001 O   0  0  0  0  0  0  0  0  0  0  0  0
   -5.3681    1.0113   28.0697 O   0  0  0  0  0  0  0  0  0  0  0  0
   -4.1254    0.5331   28.5818 C   0  0  0  0  0  0  0  0  0  0  0  0
   -4.1030    0.4206   30.0650 C   0  0  0  0  0  0  0  0  0  0  0  0
   -3.9803   -0.9013   30.4998 C   0  0  1  0  0  0  0  0  0  0  0  0
   -2.9174   -1.4221   30.5177 N   0  0  0  0  0  0  0  0  0  0  0  0
   -1.9091   -1.0450   30.2329 C   0  0  0  0  0  0  0  0  0  0  0  0
   -2.8729   -2.8501   31.1712 C   0  0  0  0  0  0  0  0  0  0  0  0
   -5.2302   -1.4109   31.0976 C   0  0  0  0  0  0  0  0  0  0  0  0
   -6.2190   -0.6678   31.7296 C   0  0  0  0  0  0  0  0  0  0  0  0
   -7.1629   -1.3930   32.5016 C   0  0  0  0  0  0  0  0  0  0  0  0
   -7.3079   -2.8083   32.3681 C   0  0  0  0  0  0  0  0  0  0  0  0
   -6.3525   -3.4952   31.6237 C   0  0  0  0  0  0  0  0  0  0  0  0
  1  3  1  0
  4  3  1  6
  4  5  1  0
  5  6  1  0
  6  7  1  0
  4 11  1  0
 11 12  2  3
 12 13  1  0
 11 20  1  0
 20 21  2  0
 20 22  1  0
 22 23  1  0
 23 24  1  0
 25 24  1  1
 25 26  1  0
 26 27  1  0
 26 28  1  0
 25 29  1  0
 29 30  2  3
 30 31  1  0
 31 32  2  3
 32 33  1  0
 13 14  1  0
  1  2  2  0
  2  8  1  0
  8  9  2  0
  9 10  1  0
 10  7  2  0
  7  1  1  0
 14 15  2  0
 15 16  1  0
 16 17  2  0
 17 18  1  0
 18 19  2  0
 19 14  1  0
M  END
$$$$
