No_8670-complexes_sdf/6BKW-FPZ/2024-09-17-14-21-01/
     RDKit          3D

  9  9  0  0  0  0  0  0  0  0999 V2000
   -7.9040    3.9820   27.1177 C   0  0  0  0  0  0  0  0  0  0  0  0
   -7.8663    4.8694   27.9238 C   0  0  0  0  0  0  0  0  0  0  0  0
   -9.0491    3.8523   26.2542 C   0  0  0  0  0  0  0  0  0  0  0  0
   -8.6020    5.9544   27.7203 C   0  0  0  0  0  0  0  0  0  0  0  0
   -9.7899    4.9178   26.0328 C   0  0  0  0  0  0  0  0  0  0  0  0
   -9.5972    6.0466   26.8396 C   0  0  0  0  0  0  0  0  0  0  0  0
   -7.1129    2.6745   27.3619 C   0  0  0  0  0  0  0  0  0  0  0  0
   -7.3407    1.4454   27.6288 Cl  0  0  0  0  0  0  0  0  0  0  0  0
   -5.8188    3.1492   27.6110 O   0  0  0  0  0  0  0  0  0  0  0  0
  1  7  1  0
  7  8  1  0
  7  9  2  0
  1  2  2  0
  2  4  1  0
  4  6  2  0
  6  5  1  0
  5  3  2  0
  3  1  1  0
M  END
$$$$
