No_8092-complexes_sdf/6BKW-FPZ/2024-09-17-14-21-01/
     RDKit          3D

 32 35  0  0  0  0  0  0  0  0999 V2000
   -7.9040    3.9820   27.1177 C   0  0  0  0  0  0  0  0  0  0  0  0
   -8.2057    2.8231   26.8733 C   0  0  0  0  0  0  0  0  0  0  0  0
   -8.7695    5.0740   26.7916 C   0  0  0  0  0  0  0  0  0  0  0  0
   -8.4337    6.4678   27.0913 C   0  0  0  0  0  0  0  0  0  0  0  0
   -7.3775    1.6806   27.3986 C   0  0  0  0  0  0  0  0  0  0  0  0
   -7.6888    0.3359   27.2208 C   0  0  0  0  0  0  0  0  0  0  0  0
   -6.9404   -0.6211   27.8125 C   0  0  0  0  0  0  0  0  0  0  0  0
   -5.7188   -0.2491   28.4087 C   0  0  0  0  0  0  0  0  0  0  0  0
   -5.3008    1.0960   28.4022 C   0  0  0  0  0  0  0  0  0  0  0  0
   -6.0526    2.0540   27.9045 C   0  0  0  0  0  0  0  0  0  0  0  0
   -9.0703    2.5569   25.7378 C   0  0  0  0  0  0  0  0  0  0  0  0
   -9.9137    3.5392   25.2721 C   0  0  0  0  0  0  0  0  0  0  0  0
   -9.6097    4.8862   25.7165 C   0  0  0  0  0  0  0  0  0  0  0  0
   -8.6424    7.5081   26.4518 N   0  0  0  0  0  0  0  0  0  0  0  0
   -4.6803   -1.1657   29.0269 C   0  0  2  0  0  0  0  0  0  0  0  0
   -4.9264   -1.7586   30.0126 C   0  0  0  0  0  0  0  0  0  0  0  0
   -4.8167   -1.5642   31.0794 C   0  0  0  0  0  0  0  0  0  0  0  0
   -4.3061   -0.1733   31.5361 C   0  0  0  0  0  0  0  0  0  0  0  0
   -3.1237    0.1825   30.9400 C   0  0  0  0  0  0  0  0  0  0  0  0
   -2.8671    0.1528   29.5224 C   0  0  0  0  0  0  0  0  0  0  0  0
   -3.4329   -0.7086   28.6884 C   0  0  1  0  0  0  0  0  0  0  0  0
   -2.7771   -1.2706   27.5580 C   0  0  1  0  0  0  0  0  0  0  0  0
   -3.0792   -0.7482   26.5265 Br  0  0  0  0  0  0  0  0  0  0  0  0
   -1.5114   -1.6293   27.9500 N   0  0  0  0  0  0  0  0  0  0  0  0
   -7.6522    6.5294   28.2061 O   0  0  0  0  0  0  0  0  0  0  0  0
  -10.8468    3.3645   24.2305 C   0  0  0  0  0  0  0  0  0  0  0  0
  -10.5922    2.6202   23.1897 C   0  0  0  0  0  0  0  0  0  0  0  0
  -10.9681    2.3758   22.2616 C   0  0  0  0  0  0  0  0  0  0  0  0
  -10.7989    1.9380   21.2740 C   0  0  0  0  0  0  0  0  0  0  0  0
   -9.6538    0.9944   21.1010 C   0  0  0  0  0  0  0  0  0  0  0  0
   -8.9074    0.9209   22.3199 C   0  0  0  0  0  0  0  0  0  0  0  0
   -9.2983    1.7329   23.3909 C   0  0  0  0  0  0  0  0  0  0  0  0
  3  4  1  0
  2  5  1  0
  4 14  2  0
 15  8  1  1
 15 16  1  0
 16 17  2  0
 17 18  1  0
 18 19  2  0
 19 20  1  0
 15 21  1  0
 21 20  1  1
 21 22  1  0
 22 23  1  0
 22 24  1  1
  4 25  1  0
 12 26  1  0
 26 27  1  0
 27 28  2  0
 28 29  1  0
 29 30  2  0
 30 31  1  0
 31 32  2  0
 32 27  1  0
  1  2  2  0
  2 11  1  0
 11 12  2  0
 12 13  1  0
 13  3  2  0
  3  1  1  0
  5  6  2  0
  6  7  1  0
  7  8  2  0
  8  9  1  0
  9 10  2  0
 10  5  1  0
M  END
$$$$
