No_8520-complexes_sdf/6BKW-FPZ/2024-09-17-14-21-01/
     RDKit          3D

 16 18  0  0  0  0  0  0  0  0999 V2000
   -7.9040    3.9820   27.1177 C   0  0  0  0  0  0  0  0  0  0  0  0
   -8.2057    2.8231   26.8733 C   0  0  0  0  0  0  0  0  0  0  0  0
   -7.0130    4.3706   28.1140 C   0  0  0  0  0  0  0  0  0  0  0  0
   -9.3829    2.4374   26.1668 C   0  0  0  0  0  0  0  0  0  0  0  0
  -10.0151    3.2164   25.8460 C   0  0  0  0  0  0  0  0  0  0  0  0
   -9.8517    4.6499   25.9574 C   0  0  0  0  0  0  0  0  0  0  0  0
   -8.7642    5.0121   26.6984 C   0  0  0  0  0  0  0  0  0  0  0  0
   -8.5221    6.4142   26.9959 C   0  0  0  0  0  0  0  0  0  0  0  0
   -6.7969    5.7347   28.4918 C   0  0  0  0  0  0  0  0  0  0  0  0
   -7.5347    6.7210   27.8819 C   0  0  0  0  0  0  0  0  0  0  0  0
   -9.5247    0.9421   25.8568 C   0  0  0  0  0  0  0  0  0  0  0  0
   -9.3765    0.5226   24.7613 C   0  0  0  0  0  0  0  0  0  0  0  0
   -9.5204   -0.8661   24.3341 C   0  0  0  0  0  0  0  0  0  0  0  0
   -9.7600   -1.7765   25.3079 C   0  0  0  0  0  0  0  0  0  0  0  0
   -9.6798   -0.0298   26.9385 C   0  0  0  0  0  0  0  0  0  0  0  0
   -9.8730   -1.3423   26.7169 C   0  0  0  0  0  0  0  0  0  0  0  0
  4 11  1  0
  1  3  1  0
  3  9  2  0
  9 10  1  0
 10  8  2  0
  8  7  1  0
  1  2  2  0
  2  4  1  0
  4  5  2  0
  5  6  1  0
  6  7  2  0
  7  1  1  0
 11 12  2  0
 12 13  1  0
 13 14  2  0
 14 16  1  0
 16 15  2  0
 15 11  1  0
M  END
$$$$
