No_8249-complexes_sdf/6BKW-FPZ/2024-09-17-14-21-01/
     RDKit          3D

 20 22  0  0  0  0  0  0  0  0999 V2000
   -7.9040    3.9820   27.1177 C   0  0  0  0  0  0  0  0  0  0  0  0
   -8.2057    2.8231   26.8733 C   0  0  0  0  0  0  0  0  0  0  0  0
   -7.0130    4.3706   28.1140 C   0  0  0  0  0  0  0  0  0  0  0  0
   -7.4093    1.7370   27.3857 C   0  0  0  0  0  0  0  0  0  0  0  0
   -7.7256    0.3814   27.1250 C   0  0  0  0  0  0  0  0  0  0  0  0
   -9.0139    0.1894   26.6369 C   0  0  0  0  0  0  0  0  0  0  0  0
   -9.8348    1.1679   26.1763 C   0  0  0  0  0  0  0  0  0  0  0  0
   -9.4322    2.4831   26.2877 C   0  0  0  0  0  0  0  0  0  0  0  0
   -8.7957    5.1111   26.6738 C   0  0  0  0  0  0  0  0  0  0  0  0
   -8.4685    6.4916   26.9563 C   0  0  0  0  0  0  0  0  0  0  0  0
   -6.8340    5.7918   28.5209 C   0  0  0  0  0  0  0  0  0  0  0  0
   -7.5457    6.7718   27.8645 C   0  0  0  0  0  0  0  0  0  0  0  0
   -6.9313   -0.6715   27.7123 C   0  0  0  0  0  0  0  0  0  0  0  0
   -5.6972   -0.3944   28.0624 N   0  0  0  0  0  0  0  0  0  0  0  0
   -4.8993    0.4291   27.5360 C   0  0  0  0  0  0  0  0  0  0  0  0
   -5.1600   -1.1531   29.2497 C   0  0  0  0  0  0  0  0  0  0  0  0
   -4.1542   -0.5946   29.8682 C   0  0  0  0  0  0  0  0  0  0  0  0
   -3.6723    0.9905   28.1747 C   0  0  0  0  0  0  0  0  0  0  0  0
   -3.2656    0.3991   29.2992 C   0  0  0  0  0  0  0  0  0  0  0  0
   -7.3413   -1.8390   27.7149 O   0  0  0  0  0  0  0  0  0  0  0  0
  1  2  1  0
  5 13  1  0
 13 14  1  0
 14 15  1  0
 14 16  1  0
 17 19  1  0
 18 19  1  0
 13 20  2  0
 15 18  1  0
 17 16  1  0
  1  3  2  0
  3 11  1  0
 11 12  2  0
 12 10  1  0
 10  9  2  0
  9  1  1  0
  2  4  2  0
  4  5  1  0
  5  6  2  0
  6  7  1  0
  7  8  2  0
  8  2  1  0
M  END
$$$$
