No_8255-complexes_sdf/6BKW-FPZ/2024-09-17-14-21-01/
     RDKit          3D

 28 33  0  0  0  0  0  0  0  0999 V2000
   -7.9040    3.9820   27.1177 C   0  0  0  0  0  0  0  0  0  0  0  0
   -7.8663    4.8694   27.9238 C   0  0  0  0  0  0  0  0  0  0  0  0
   -7.4698    2.6989   27.4277 C   0  0  0  0  0  0  0  0  0  0  0  0
   -7.9683    1.5964   26.8266 C   0  0  1  0  0  0  0  0  0  0  0  0
   -8.9447    1.7923   25.8533 C   0  0  0  0  0  0  0  0  0  0  0  0
   -9.4405    2.9988   25.5757 C   0  0  0  0  0  0  0  0  0  0  0  0
   -8.9424    4.1117   26.2388 C   0  0  0  0  0  0  0  0  0  0  0  0
   -8.2732    6.2141   27.6484 N   0  0  0  0  0  0  0  0  0  0  0  0
   -9.1540    6.5068   26.6734 C   0  0  0  0  0  0  0  0  0  0  0  0
   -9.5312    5.3927   25.9147 C   0  0  0  0  0  0  0  0  0  0  0  0
   -7.3887    0.2740   27.0971 C   0  0  0  0  0  0  0  0  0  0  0  0
   -6.0711    0.1202   27.4872 C   0  0  0  0  0  0  0  0  0  0  0  0
   -5.5394   -1.0762   27.8371 C   0  0  0  0  0  0  0  0  0  0  0  0
   -6.3810   -2.1675   27.7631 C   0  0  0  0  0  0  0  0  0  0  0  0
   -8.0488   -0.9559   27.1319 C   0  0  0  0  0  0  0  0  0  0  0  0
   -7.6314   -2.0972   27.4468 C   0  0  0  0  0  0  0  0  0  0  0  0
   -4.1044   -1.1303   28.2682 C   0  0  2  0  0  0  0  0  0  0  0  0
   -3.8339   -0.7060   29.6388 C   0  0  0  0  0  0  0  0  0  0  0  0
   -4.0147   -1.3303   30.7142 C   0  0  0  0  0  0  0  0  0  0  0  0
   -3.7678   -0.7153   32.0207 C   0  0  0  0  0  0  0  0  0  0  0  0
   -3.1234    0.5445   32.0043 C   0  0  0  0  0  0  0  0  0  0  0  0
   -2.8338    1.1050   30.8345 N   0  0  0  0  0  0  0  0  0  0  0  0
   -3.1538    0.6309   29.6655 C   0  0  0  0  0  0  0  0  0  0  0  0
   -3.2108   -0.4358   27.3616 C   0  0  0  0  0  0  0  0  0  0  0  0
   -2.7318    0.9410   28.4456 N   0  0  0  0  0  0  0  0  0  0  0  0
   -3.6036   -2.6339   28.1060 C   0  0  0  0  0  0  0  0  0  0  0  0
   -3.3368   -3.2168   29.2257 C   0  0  0  0  0  0  0  0  0  0  0  0
   -3.8530   -2.7890   30.6587 C   0  0  0  0  0  0  0  0  0  0  0  0
  1  3  1  0
  3  4  1  0
  4  5  1  0
  5  6  1  0
  6  7  1  0
  4 11  1  6
 17 13  1  6
 17 18  1  0
 17 24  1  0
 23 25  1  0
 24 25  1  0
 17 26  1  0
 19 28  1  0
 27 28  1  0
 27 26  1  0
  1  2  2  0
  2  8  1  0
  8  9  2  0
  9 10  1  0
 10  7  2  0
  7  1  1  0
 18 23  1  0
 23 22  2  0
 22 21  1  0
 21 20  2  0
 20 19  1  0
 19 18  2  0
 11 12  2  0
 12 13  1  0
 13 14  2  0
 14 16  1  0
 16 15  2  0
 15 11  1  0
M  END
$$$$
