No_8617-complexes_sdf/6BKW-FPZ/2024-09-17-14-21-01/
     RDKit          3D

 21 23  0  0  0  0  0  0  0  0999 V2000
   -7.9040    3.9820   27.1177 C   0  0  0  0  0  0  0  0  0  0  0  0
   -7.8663    4.8694   27.9238 C   0  0  0  0  0  0  0  0  0  0  0  0
   -9.0501    3.8017   26.2617 C   0  0  2  0  0  0  0  0  0  0  0  0
  -10.0189    4.7608   26.3707 C   0  0  1  0  0  0  0  0  0  0  0  0
   -8.6770    5.9780   27.9222 C   0  0  0  0  0  0  0  0  0  0  0  0
   -9.8040    5.8752   27.0958 C   0  0  1  0  0  0  0  0  0  0  0  0
   -9.1484    2.6214   25.4213 C   0  0  0  0  0  0  0  0  0  0  0  0
  -10.1444    1.8369   25.6568 C   0  0  0  0  0  0  0  0  0  0  0  0
  -11.1203    1.8735   26.2111 C   0  0  0  0  0  0  0  0  0  0  0  0
  -11.4461    3.0978   26.9660 C   0  0  0  0  0  0  0  0  0  0  0  0
  -12.6924    3.0769   27.8770 C   0  0  0  0  0  0  0  0  0  0  0  0
  -10.3630    5.0735   25.0262 F   0  0  0  0  0  0  0  0  0  0  0  0
  -10.9103    4.3780   27.0515 C   0  0  2  0  0  0  0  0  0  0  0  0
  -11.6260    5.2568   27.9308 O   0  0  0  0  0  0  0  0  0  0  0  0
  -10.0549    7.0168   26.7901 O   0  0  0  0  0  0  0  0  0  0  0  0
  -12.7714    2.1652   28.6795 C   0  0  0  0  0  0  0  0  0  0  0  0
  -13.7632    2.1519   29.7269 C   0  0  0  0  0  0  0  0  0  0  0  0
  -14.6847    3.1828   29.7051 C   0  0  0  0  0  0  0  0  0  0  0  0
  -14.5979    4.2130   28.7876 C   0  0  0  0  0  0  0  0  0  0  0  0
  -13.5274    4.1892   27.8888 C   0  0  0  0  0  0  0  0  0  0  0  0
  -10.9957    4.7138   28.1995 Cl  0  0  0  0  0  0  0  0  0  0  0  0
  1  2  2  0
  1  3  1  0
  3  4  1  0
  2  5  1  0
  4  6  1  0
  5  6  1  0
  3  7  1  1
  7  8  1  0
  8  9  2  0
  9 10  1  0
 10 11  1  0
  4 12  1  6
  4 13  1  0
 10 13  1  0
 13 14  1  6
  6 15  1  6
 14 21  1  0
 11 16  2  0
 16 17  1  0
 17 18  2  0
 18 19  1  0
 19 20  2  0
 20 11  1  0
M  END
$$$$
