No_8298-complexes_sdf/6BKW-FPZ/2024-09-17-14-21-01/
     RDKit          3D

 34 38  0  0  0  0  0  0  0  0999 V2000
   -7.2496    3.8871   27.4508 C   0  0  0  0  0  0  0  0  0  0  0  0
   -8.5096    4.0291   27.2770 C   0  0  0  0  0  0  0  0  0  0  0  0
   -9.3451    2.8786   26.9046 C   0  0  0  0  0  0  0  0  0  0  0  0
   -6.6065    2.5680   27.5073 C   0  0  0  0  0  0  0  0  0  0  0  0
   -7.4233    1.4858   27.2402 C   0  0  0  0  0  0  0  0  0  0  0  0
   -8.7362    1.6525   26.9989 C   0  0  0  0  0  0  0  0  0  0  0  0
   -9.1023    5.3710   27.2131 C   0  0  0  0  0  0  0  0  0  0  0  0
  -10.3323    5.6359   27.5259 N   0  0  0  0  0  0  0  0  0  0  0  0
   -8.3215    6.3804   26.9544 O   0  0  0  0  0  0  0  0  0  0  0  0
   -6.7886    0.1768   27.2503 C   0  0  0  0  0  0  0  0  0  0  0  0
   -5.5550    0.0006   27.8065 C   0  0  0  0  0  0  0  0  0  0  0  0
   -4.8342   -1.2421   27.8062 C   0  0  0  0  0  0  0  0  0  0  0  0
   -5.4766   -2.2497   27.0874 C   0  0  0  0  0  0  0  0  0  0  0  0
   -7.4290   -0.9469   26.7415 C   0  0  0  0  0  0  0  0  0  0  0  0
   -6.7488   -2.1347   26.6133 C   0  0  0  0  0  0  0  0  0  0  0  0
   -3.5020   -1.3242   28.3720 C   0  0  0  0  0  0  0  0  0  0  0  0
   -3.3946   -1.7064   29.6891 C   0  0  0  0  0  0  0  0  0  0  0  0
   -2.3637   -1.0442   27.5988 C   0  0  0  0  0  0  0  0  0  0  0  0
   -2.2926   -2.1634   30.2275 C   0  0  0  0  0  0  0  0  0  0  0  0
   -1.0516   -1.8653   29.5607 C   0  0  0  0  0  0  0  0  0  0  0  0
   -1.0908   -1.3426   28.2234 C   0  0  0  0  0  0  0  0  0  0  0  0
   -2.3834   -0.5310   26.4539 F   0  0  0  0  0  0  0  0  0  0  0  0
   -4.6554   -1.8797   30.5481 C   0  0  0  0  0  0  0  0  0  0  0  0
   -4.7043   -1.4229   31.6227 C   0  0  0  0  0  0  0  0  0  0  0  0
   -5.8855   -1.5440   32.5383 C   0  0  0  0  0  0  0  0  0  0  0  0
   -7.0103   -2.2064   31.9804 C   0  0  0  0  0  0  0  0  0  0  0  0
   -6.9438   -2.6822   30.6666 C   0  0  0  0  0  0  0  0  0  0  0  0
   -5.7646   -2.5237   29.9480 C   0  0  0  0  0  0  0  0  0  0  0  0
   -8.1044   -3.3534   30.1564 C   0  0  0  0  0  0  0  0  0  0  0  0
   -8.5301   -4.3378   30.6369 C   0  0  0  0  0  0  0  0  0  0  0  0
   -9.7653   -4.9764   30.0953 C   0  0  0  0  0  0  0  0  0  0  0  0
  -10.3305   -4.4094   28.9686 C   0  0  0  0  0  0  0  0  0  0  0  0
   -9.7872   -3.2703   28.4077 C   0  0  0  0  0  0  0  0  0  0  0  0
   -8.6922   -2.6567   28.9878 C   0  0  0  0  0  0  0  0  0  0  0  0
  2  7  1  0
  7  8  1  0
  7  9  2  0
  5 10  1  0
 12 16  1  0
 18 22  1  0
 17 23  1  0
 27 29  1  0
 23 24  2  0
 24 25  1  0
 25 26  2  0
 26 27  1  0
 27 28  2  0
 28 23  1  0
  1  2  2  0
  2  3  1  0
  3  6  2  0
  6  5  1  0
  5  4  2  0
  4  1  1  0
 16 17  2  0
 17 19  1  0
 19 20  2  0
 20 21  1  0
 21 18  2  0
 18 16  1  0
 10 11  2  0
 11 12  1  0
 12 13  2  0
 13 15  1  0
 15 14  2  0
 14 10  1  0
 29 30  2  0
 30 31  1  0
 31 32  2  0
 32 33  1  0
 33 34  2  0
 34 29  1  0
M  END
$$$$
