No_8292-complexes_sdf/6BKW-FPZ/2024-09-17-14-21-01/
     RDKit          3D

 15 16  0  0  0  0  0  0  0  0999 V2000
   -7.2496    3.8871   27.4508 C   0  0  0  0  0  0  0  0  0  0  0  0
   -7.9379    4.9063   27.8518 C   0  0  0  0  0  0  0  0  0  0  0  0
   -9.3460    4.8223   27.8695 C   0  0  0  0  0  0  0  0  0  0  0  0
   -7.8628    2.6163   27.1065 C   0  0  0  0  0  0  0  0  0  0  0  0
   -9.2787    2.5744   27.1970 C   0  0  0  0  0  0  0  0  0  0  0  0
  -10.0108    3.6770   27.6340 C   0  0  0  0  0  0  0  0  0  0  0  0
  -11.4834    3.5674   27.7432 C   0  0  2  0  0  0  0  0  0  0  0  0
  -12.3295    3.8838   27.2730 C   0  0  0  0  0  0  0  0  0  0  0  0
  -12.2304    4.4909   25.8977 C   0  0  0  0  0  0  0  0  0  0  0  0
  -13.7448    3.5843   27.4274 C   0  0  0  0  0  0  0  0  0  0  0  0
  -11.7428    2.9803   29.2390 C   0  0  0  0  0  0  0  0  0  0  0  0
  -14.7340    4.2612   26.7912 C   0  0  0  0  0  0  0  0  0  0  0  0
  -13.2248    4.7845   24.9643 C   0  0  0  0  0  0  0  0  0  0  0  0
  -14.4817    4.9682   25.8744 C   0  0  0  0  0  0  0  0  0  0  0  0
   -7.3067    6.0848   28.1016 O   0  0  0  0  0  0  0  0  0  0  0  0
  6  7  1  0
  7  8  1  0
  7 11  1  1
  2 15  1  0
  8  9  2  0
  9 13  1  0
 13 14  2  0
 14 12  1  0
 12 10  2  0
 10  8  1  0
  1  2  2  0
  2  3  1  0
  3  6  2  0
  6  5  1  0
  5  4  2  0
  4  1  1  0
M  END
$$$$
