No_8265-complexes_sdf/6BKW-FPZ/2024-09-17-14-21-01/
     RDKit          3D

 29 32  0  0  0  0  0  0  0  0999 V2000
   -7.9040    3.9820   27.1177 C   0  0  0  0  0  0  0  0  0  0  0  0
   -8.2057    2.8231   26.8733 C   0  0  0  0  0  0  0  0  0  0  0  0
   -9.2962    2.4021   26.1155 C   0  0  0  0  0  0  0  0  0  0  0  0
   -8.7358    5.0662   26.5917 C   0  0  0  0  0  0  0  0  0  0  0  0
   -9.7618    4.7023   25.7546 C   0  0  0  0  0  0  0  0  0  0  0  0
  -10.0066    3.4105   25.4922 C   0  0  0  0  0  0  0  0  0  0  0  0
   -8.3943    6.4761   26.8801 C   0  0  0  0  0  0  0  0  0  0  0  0
   -8.0394    6.8605   28.0789 N   0  0  0  0  0  0  0  0  0  0  0  0
   -8.6520    7.6455   25.6688 Cl  0  0  0  0  0  0  0  0  0  0  0  0
   -7.2486    1.8993   27.5462 N   0  0  0  0  0  0  0  0  0  0  0  0
   -5.9545    2.0524   27.5895 C   0  0  0  0  0  0  0  0  0  0  0  0
   -5.1840    0.9485   28.2505 C   0  0  0  0  0  0  0  0  0  0  0  0
   -5.4344   -0.2055   28.0813 C   0  0  0  0  0  0  0  0  0  0  0  0
   -7.4223    0.4130   27.3568 C   0  0  0  0  0  0  0  0  0  0  0  0
   -6.7565   -0.4836   27.8020 C   0  0  0  0  0  0  0  0  0  0  0  0
   -4.5630   -1.2673   28.6863 C   0  0  0  0  0  0  0  0  0  0  0  0
   -4.6403   -2.3971   28.4658 C   0  0  0  0  0  0  0  0  0  0  0  0
   -3.4897   -0.7714   29.6041 C   0  0  0  0  0  0  0  0  0  0  0  0
   -3.4226    0.2761   30.2351 C   0  0  0  0  0  0  0  0  0  0  0  0
   -2.4118   -1.7650   29.7402 C   0  0  0  0  0  0  0  0  0  0  0  0
   -2.4568   -2.9651   29.4242 C   0  0  0  0  0  0  0  0  0  0  0  0
   -3.6208   -3.3981   28.6322 C   0  0  0  0  0  0  0  0  0  0  0  0
  -11.0994    3.0578   24.5853 C   0  0  0  0  0  0  0  0  0  0  0  0
  -12.2951    2.8051   25.0907 C   0  0  0  0  0  0  0  0  0  0  0  0
  -13.3928    2.4457   24.2030 C   0  0  0  0  0  0  0  0  0  0  0  0
  -10.7835    2.5337   23.3296 C   0  0  0  0  0  0  0  0  0  0  0  0
  -11.7858    2.1603   22.4477 C   0  0  0  0  0  0  0  0  0  0  0  0
  -13.0830    2.1113   22.9010 C   0  0  0  0  0  0  0  0  0  0  0  0
  -14.6569    2.4226   24.5940 F   0  0  0  0  0  0  0  0  0  0  0  0
  4  7  1  0
  7  8  2  0
  7  9  1  0
  2 10  1  0
 10 11  1  0
 12 13  1  0
 10 14  1  0
 13 16  1  0
 18 19  1  0
  6 23  1  0
 25 29  1  0
 11 12  1  0
 13 15  1  0
 15 14  1  0
 16 17  2  0
 17 22  1  0
 22 21  2  0
 21 20  1  0
 20 18  2  0
 18 16  1  0
  1  2  2  0
  2  3  1  0
  3  6  2  0
  6  5  1  0
  5  4  2  0
  4  1  1  0
 23 24  2  0
 24 25  1  0
 25 28  2  0
 28 27  1  0
 27 26  2  0
 26 23  1  0
M  END
$$$$
