No_810-complexes_sdf/6BKW-FPZ/2024-09-17-14-21-01/
     RDKit          3D

 23 25  0  0  0  0  0  0  0  0999 V2000
   -7.9040    3.9820   27.1177 C   0  0  2  0  0  0  0  0  0  0  0  0
   -7.8663    4.8694   27.9238 C   0  0  0  0  0  0  0  0  0  0  0  0
   -9.0491    3.8523   26.2542 C   0  0  0  0  0  0  0  0  0  0  0  0
   -9.4067    2.6808   25.6532 C   0  0  0  0  0  0  0  0  0  0  0  0
   -8.4979    6.1198   27.7613 C   0  0  0  0  0  0  0  0  0  0  0  0
   -9.5967    6.1558   26.9018 C   0  0  0  0  0  0  0  0  0  0  0  0
   -9.7441    5.0354   26.1190 C   0  0  0  0  0  0  0  0  0  0  0  0
  -10.4175    2.1270   25.9956 C   0  0  0  0  0  0  0  0  0  0  0  0
  -10.7903    0.8304   25.4537 C   0  0  0  0  0  0  0  0  0  0  0  0
  -10.0597    0.3448   24.6163 C   0  0  0  0  0  0  0  0  0  0  0  0
   -8.8766    0.9199   24.0715 C   0  0  0  0  0  0  0  0  0  0  0  0
   -8.4439    2.1071   24.6860 C   0  0  0  0  0  0  0  0  0  0  0  0
   -7.1730    2.8083   27.3412 O   0  0  0  0  0  0  0  0  0  0  0  0
   -5.8567    2.8779   27.5204 C   0  0  0  0  0  0  0  0  0  0  0  0
   -5.2516    1.5493   27.8591 C   0  0  0  0  0  0  0  0  0  0  0  0
   -5.9933    0.4444   27.9581 C   0  0  0  0  0  0  0  0  0  0  0  0
   -6.7232    0.0231   26.9309 C   0  0  0  0  0  0  0  0  0  0  0  0
   -7.4661   -1.2178   26.9900 C   0  0  0  0  0  0  0  0  0  0  0  0
   -7.5001   -1.7979   28.2279 C   0  0  0  0  0  0  0  0  0  0  0  0
   -6.6479   -1.4584   29.2736 C   0  0  0  0  0  0  0  0  0  0  0  0
   -5.8667   -0.3427   29.1655 C   0  0  0  0  0  0  0  0  0  0  0  0
   -6.6813   -2.1719   30.4037 F   0  0  0  0  0  0  0  0  0  0  0  0
   -3.9258    1.5176   27.8719 O   0  0  0  0  0  0  0  0  0  0  0  0
  1  2  1  0
  1  3  1  0
  2  5  1  0
  5  6  1  0
  3  7  1  0
  6  7  1  0
  1 13  1  1
 13 14  1  0
 14 15  1  0
 15 16  1  0
 20 22  1  0
 15 23  2  0
  3  4  1  0
  4  8  2  0
  8  9  1  0
  9 10  2  0
 10 11  1  0
 11 12  2  0
 12  4  1  0
 16 17  2  0
 17 18  1  0
 18 19  2  0
 19 20  1  0
 20 21  2  0
 21 16  1  0
M  END
$$$$
