No_8240-complexes_sdf/6BKW-FPZ/2024-09-17-14-21-01/
     RDKit          3D

 23 24  0  0  0  0  0  0  0  0999 V2000
   -7.2496    3.8871   27.4508 C   0  0  0  0  0  0  0  0  0  0  0  0
   -8.5096    4.0291   27.2770 C   0  0  0  0  0  0  0  0  0  0  0  0
   -9.3451    2.8786   26.9046 C   0  0  0  0  0  0  0  0  0  0  0  0
   -6.6065    2.5680   27.5073 C   0  0  0  0  0  0  0  0  0  0  0  0
   -7.4233    1.4858   27.2402 C   0  0  0  0  0  0  0  0  0  0  0  0
   -8.7362    1.6525   26.9989 C   0  0  0  0  0  0  0  0  0  0  0  0
   -9.1023    5.3710   27.2131 C   0  0  1  0  0  0  0  0  0  0  0  0
  -10.2823    5.7688   27.6369 C   0  0  0  0  0  0  0  0  0  0  0  0
   -8.1878    6.4495   26.7669 C   0  0  0  0  0  0  0  0  0  0  0  0
   -8.5665    7.8090   26.7455 C   0  0  0  0  0  0  0  0  0  0  0  0
   -6.5923    0.2243   27.3109 C   0  0  0  0  0  0  0  0  0  0  0  0
   -5.5238    0.0818   27.5622 O   0  0  0  0  0  0  0  0  0  0  0  0
   -7.3909   -0.9184   27.2108 N   0  0  0  0  0  0  0  0  0  0  0  0
   -6.7942   -2.2350   27.3317 C   0  0  0  0  0  0  0  0  0  0  0  0
  -11.1624    4.7156   28.0346 C   0  0  0  0  0  0  0  0  0  0  0  0
  -12.2339    4.3732   27.3714 C   0  0  0  0  0  0  0  0  0  0  0  0
  -13.1780    3.3985   27.8505 C   0  0  0  0  0  0  0  0  0  0  0  0
  -12.9502    2.9166   28.7423 C   0  0  0  0  0  0  0  0  0  0  0  0
  -11.7070    3.0059   29.6191 C   0  0  0  0  0  0  0  0  0  0  0  0
  -10.8381    3.9442   29.2179 C   0  0  0  0  0  0  0  0  0  0  0  0
   -7.6091   -3.1209   27.1777 C   0  0  0  0  0  0  0  0  0  0  0  0
   -8.9736   -2.9632   26.9220 C   0  0  0  0  0  0  0  0  0  0  0  0
   -9.5159   -1.6992   26.7871 C   0  0  0  0  0  0  0  0  0  0  0  0
  2  7  1  0
  7  8  1  1
  7  9  1  0
  9 10  2  0
  5 11  1  0
 11 12  1  0
 11 13  2  3
 13 14  1  0
  8 15  1  0
 14 21  2  3
 21 22  1  0
 22 23  2  0
 15 16  2  0
 16 17  1  0
 17 18  2  0
 18 19  1  0
 19 20  2  0
 20 15  1  0
  1  2  2  0
  2  3  1  0
  3  6  2  0
  6  5  1  0
  5  4  2  0
  4  1  1  0
M  END
$$$$
