No_8064-complexes_sdf/6BKW-FPZ/2024-09-17-14-21-01/
     RDKit          3D

 27 30  0  0  0  0  0  0  0  0999 V2000
   -7.7129    4.2099   27.0854 C   0  0  0  0  0  0  0  0  0  0  0  0
   -8.9133    4.4736   27.0998 C   0  0  0  0  0  0  0  0  0  0  0  0
   -9.4643    5.5426   27.7628 C   0  0  0  0  0  0  0  0  0  0  0  0
   -6.8373    4.9942   27.9785 C   0  0  0  0  0  0  0  0  0  0  0  0
   -7.3717    6.0428   28.6744 C   0  0  0  0  0  0  0  0  0  0  0  0
   -8.6869    6.3937   28.5345 C   0  0  0  0  0  0  0  0  0  0  0  0
   -9.8077    3.6184   26.2213 C   0  0  0  0  0  0  0  0  0  0  0  0
   -9.9133    2.4220   26.2908 N   0  0  0  0  0  0  0  0  0  0  0  0
  -10.1385    1.5180   25.5170 C   0  0  0  0  0  0  0  0  0  0  0  0
  -10.6592    1.8096   24.3704 C   0  0  0  0  0  0  0  0  0  0  0  0
  -10.2453    4.2338   24.9856 C   0  0  0  0  0  0  0  0  0  0  0  0
  -10.5806    3.2976   23.9686 C   0  0  0  0  0  0  0  0  0  0  0  0
  -11.0186    3.9049   22.7529 C   0  0  0  0  0  0  0  0  0  0  0  0
  -10.4385    3.4528   21.6114 C   0  0  0  0  0  0  0  0  0  0  0  0
  -10.7131    4.1157   20.3854 C   0  0  0  0  0  0  0  0  0  0  0  0
  -10.1240    3.6504   19.2270 C   0  0  0  0  0  0  0  0  0  0  0  0
  -11.9075    4.9382   22.6750 C   0  0  0  0  0  0  0  0  0  0  0  0
  -12.3584    5.4335   21.5209 C   0  0  0  0  0  0  0  0  0  0  0  0
  -11.7167    5.0708   20.3861 C   0  0  0  0  0  0  0  0  0  0  0  0
  -10.1570    0.0806   25.8431 C   0  0  0  0  0  0  0  0  0  0  0  0
   -9.3352   -0.6098   26.1612 C   0  0  0  0  0  0  0  0  0  0  0  0
   -7.8958   -0.0731   26.2522 C   0  0  0  0  0  0  0  0  0  0  0  0
   -6.7636   -0.8922   26.6747 C   0  0  0  0  0  0  0  0  0  0  0  0
   -5.5772   -0.1938   27.0145 C   0  0  0  0  0  0  0  0  0  0  0  0
   -5.6694    1.0996   27.6281 C   0  0  0  0  0  0  0  0  0  0  0  0
   -6.9217    1.7814   27.4796 C   0  0  0  0  0  0  0  0  0  0  0  0
   -7.9512    1.0579   27.4187 C   0  0  0  0  0  0  0  0  0  0  0  0
  2  7  1  0
 12 13  1  0
 15 16  1  0
  9 20  1  0
 20 21  2  3
 21 22  1  0
  7  8  2  0
  8  9  1  0
  9 10  2  0
 10 12  1  0
 12 11  2  0
 11  7  1  0
 22 23  2  0
 23 24  1  0
 24 25  2  0
 25 26  1  0
 26 27  2  0
 27 22  1  0
  1  2  2  0
  2  3  1  0
  3  6  2  0
  6  5  1  0
  5  4  2  0
  4  1  1  0
 13 14  2  0
 14 15  1  0
 15 19  2  0
 19 18  1  0
 18 17  2  0
 17 13  1  0
M  END
$$$$
