No_8979-complexes_sdf/6BKW-FPZ/2024-09-17-14-21-01/
     RDKit          3D

 15 16  0  0  0  0  0  0  0  0999 V2000
   -7.7129    4.2099   27.0854 C   0  0  0  0  0  0  0  0  0  0  0  0
   -8.9133    4.4736   27.0998 C   0  0  0  0  0  0  0  0  0  0  0  0
   -9.4643    5.5426   27.7628 C   0  0  0  0  0  0  0  0  0  0  0  0
   -6.8373    4.9942   27.9785 C   0  0  0  0  0  0  0  0  0  0  0  0
   -7.3717    6.0428   28.6744 C   0  0  0  0  0  0  0  0  0  0  0  0
   -8.6869    6.3937   28.5345 C   0  0  0  0  0  0  0  0  0  0  0  0
   -9.8029    3.6153   26.2122 C   0  0  0  0  0  0  0  0  0  0  0  0
  -10.1002    2.3701   26.5024 C   0  0  0  0  0  0  0  0  0  0  0  0
   -9.9564    1.8226   27.5342 C   0  0  0  0  0  0  0  0  0  0  0  0
  -10.2005    0.4098   27.9259 C   0  0  0  0  0  0  0  0  0  0  0  0
  -10.3753   -0.4186   26.8626 C   0  0  0  0  0  0  0  0  0  0  0  0
  -10.4462    0.0848   25.6010 C   0  0  0  0  0  0  0  0  0  0  0  0
  -10.2279    1.4317   25.3433 C   0  0  0  0  0  0  0  0  0  0  0  0
  -11.0960    4.3670   25.9410 C   0  0  0  0  0  0  0  0  0  0  0  0
   -9.0209    3.6953   24.7358 C   0  0  0  0  0  0  0  0  0  0  0  0
  2  7  1  0
  7  8  1  0
  7 14  1  0
  7 15  1  0
  1  2  2  0
  2  3  1  0
  3  6  2  0
  6  5  1  0
  5  4  2  0
  4  1  1  0
  8  9  2  0
  9 10  1  0
 10 11  2  0
 11 12  1  0
 12 13  2  0
 13  8  1  0
M  END
$$$$
