No_8422-complexes_sdf/6BKW-FPZ/2024-09-17-14-21-01/
     RDKit          3D

 32 34  0  0  0  0  0  0  0  0999 V2000
   -7.9040    3.9820   27.1177 C   0  0  0  0  0  0  0  0  0  0  0  0
   -7.8663    4.8694   27.9238 C   0  0  0  0  0  0  0  0  0  0  0  0
   -9.0501    3.8017   26.2617 C   0  0  0  0  0  0  0  0  0  0  0  0
  -10.0189    4.7608   26.3707 C   0  0  0  0  0  0  0  0  0  0  0  0
   -8.6973    5.9722   27.8968 C   0  0  0  0  0  0  0  0  0  0  0  0
   -9.8216    5.8946   27.1241 C   0  0  0  0  0  0  0  0  0  0  0  0
   -9.3656    2.6887   25.4285 C   0  0  0  0  0  0  0  0  0  0  0  0
   -8.6948    1.6728   25.5523 O   0  0  0  0  0  0  0  0  0  0  0  0
   -9.9058    2.9782   24.1548 N   0  0  0  0  0  0  0  0  0  0  0  0
  -10.0692    1.9746   23.1718 C   0  0  0  0  0  0  0  0  0  0  0  0
  -11.3931    1.5368   23.0643 C   0  0  0  0  0  0  0  0  0  0  0  0
  -12.3789    2.1568   23.0048 C   0  0  0  0  0  0  0  0  0  0  0  0
  -13.7476    1.7374   22.9281 C   0  0  0  0  0  0  0  0  0  0  0  0
  -13.8718    0.3581   22.7453 C   0  0  0  0  0  0  0  0  0  0  0  0
  -12.8106   -0.4539   22.6704 C   0  0  0  0  0  0  0  0  0  0  0  0
  -11.4901    0.0480   22.8354 C   0  0  0  0  0  0  0  0  0  0  0  0
  -15.0847   -0.1794   22.6205 F   0  0  0  0  0  0  0  0  0  0  0  0
   -7.0004    2.9148   27.1270 O   0  0  0  0  0  0  0  0  0  0  0  0
   -6.1071    2.9341   28.2116 C   0  0  0  0  0  0  0  0  0  0  0  0
   -5.2724    1.6461   28.0483 C   0  0  0  0  0  0  0  0  0  0  0  0
   -5.6847    0.5853   27.3562 C   0  0  0  0  0  0  0  0  0  0  0  0
   -5.4718   -0.5442   28.1309 C   0  0  0  0  0  0  0  0  0  0  0  0
   -4.4579   -0.6636   29.0890 C   0  0  0  0  0  0  0  0  0  0  0  0
   -3.9270    0.4961   29.6351 C   0  0  0  0  0  0  0  0  0  0  0  0
   -4.3880    1.6010   29.1967 C   0  0  0  0  0  0  0  0  0  0  0  0
   -4.0766   -2.0334   29.5694 C   0  0  0  0  0  0  0  0  0  0  0  0
   -3.0513   -2.4937   29.1958 C   0  0  0  0  0  0  0  0  0  0  0  0
   -4.9783   -2.6832   30.4659 C   0  0  0  0  0  0  0  0  0  0  0  0
   -5.7468   -2.1207   31.2930 C   0  0  0  0  0  0  0  0  0  0  0  0
   -6.7619   -2.7827   32.1093 C   0  0  0  0  0  0  0  0  0  0  0  0
   -6.9646   -4.0407   31.8966 C   0  0  0  0  0  0  0  0  0  0  0  0
   -7.9516   -4.6861   32.6743 C   0  0  0  0  0  0  0  0  0  0  0  0
  3  7  1  0
  7  8  2  0
  7  9  1  0
  9 10  1  0
 10 11  1  0
 14 17  1  0
  1 18  1  0
 18 19  1  0
 19 20  1  0
 23 26  1  0
 26 27  1  0
 26 28  1  0
 28 29  1  0
 29 30  2  3
 30 31  1  0
 31 32  1  0
 11 12  2  0
 12 13  1  0
 13 14  2  0
 14 15  1  0
 15 16  2  0
 16 11  1  0
  1  2  2  0
  2  5  1  0
  5  6  2  0
  6  4  1  0
  4  3  2  0
  3  1  1  0
 20 21  2  0
 21 22  1  0
 22 23  2  0
 23 24  1  0
 24 25  2  0
 25 20  1  0
M  END
$$$$
