No_8630-complexes_sdf/6BKW-FPZ/2024-09-17-14-21-01/
     RDKit          3D

 12 13  0  0  0  0  0  0  0  0999 V2000
   -7.9040    3.9820   27.1177 C   0  0  0  0  0  0  0  0  0  0  0  0
   -7.8663    4.8694   27.9238 C   0  0  0  0  0  0  0  0  0  0  0  0
   -9.0953    3.1697   27.0532 C   0  0  0  0  0  0  0  0  0  0  0  0
  -10.1313    3.4052   27.8871 C   0  0  0  0  0  0  0  0  0  0  0  0
   -8.9550    5.4190   28.3653 C   0  0  0  0  0  0  0  0  0  0  0  0
  -10.1323    4.6533   28.5673 C   0  0  0  0  0  0  0  0  0  0  0  0
   -9.0026    1.8377   26.3209 C   0  0  0  0  0  0  0  0  0  0  0  0
   -9.4302    1.9565   24.9535 C   0  0  0  0  0  0  0  0  0  0  0  0
   -9.3666    0.8439   24.1029 C   0  0  0  0  0  0  0  0  0  0  0  0
   -8.8020   -0.3593   24.6083 C   0  0  0  0  0  0  0  0  0  0  0  0
   -8.4285    0.6844   26.7444 C   0  0  0  0  0  0  0  0  0  0  0  0
   -8.3166   -0.4048   25.9591 C   0  0  0  0  0  0  0  0  0  0  0  0
  3  7  1  0
  7  8  2  0
  8  9  1  0
  9 10  2  0
 10 12  1  0
 12 11  2  0
 11  7  1  0
  1  2  2  0
  2  5  1  0
  5  6  2  0
  6  4  1  0
  4  3  2  0
  3  1  1  0
M  END
$$$$
