No_8235-complexes_sdf/6BKW-FPZ/2024-09-17-14-21-01/
     RDKit          3D

 32 36  0  0  0  0  0  0  0  0999 V2000
   -7.9040    3.9820   27.1177 C   0  0  0  0  0  0  0  0  0  0  0  0
   -7.8663    4.8694   27.9238 C   0  0  0  0  0  0  0  0  0  0  0  0
   -7.4698    2.6989   27.4277 C   0  0  0  0  0  0  0  0  0  0  0  0
   -7.9683    1.5964   26.8266 C   0  0  0  0  0  0  0  0  0  0  0  0
   -8.9447    1.7923   25.8533 C   0  0  0  0  0  0  0  0  0  0  0  0
   -9.4405    2.9988   25.5757 C   0  0  0  0  0  0  0  0  0  0  0  0
   -8.9424    4.1117   26.2388 C   0  0  0  0  0  0  0  0  0  0  0  0
   -8.3103    6.1970   27.6444 N   0  0  0  0  0  0  0  0  0  0  0  0
   -9.1782    6.4963   26.6776 C   0  0  0  0  0  0  0  0  0  0  0  0
   -9.5449    5.3904   25.9238 C   0  0  0  0  0  0  0  0  0  0  0  0
   -7.3881    0.2591   27.0923 C   0  0  0  0  0  0  0  0  0  0  0  0
   -6.0878    0.1334   27.5415 C   0  0  0  0  0  0  0  0  0  0  0  0
   -5.5468   -1.0676   27.8728 C   0  0  0  0  0  0  0  0  0  0  0  0
   -6.3687   -2.1654   27.7651 C   0  0  0  0  0  0  0  0  0  0  0  0
   -8.0102   -0.9778   27.0994 C   0  0  0  0  0  0  0  0  0  0  0  0
   -7.6023   -2.1053   27.4158 C   0  0  0  0  0  0  0  0  0  0  0  0
   -4.1039   -1.0969   28.3577 C   0  0  0  0  0  0  0  0  0  0  0  0
   -3.2822   -0.0618   27.9456 C   0  0  0  0  0  0  0  0  0  0  0  0
   -2.1367    0.0716   28.1498 C   0  0  0  0  0  0  0  0  0  0  0  0
   -1.4009   -0.8806   28.9833 C   0  0  0  0  0  0  0  0  0  0  0  0
   -3.5558   -2.0600   29.1657 C   0  0  0  0  0  0  0  0  0  0  0  0
   -2.1776   -1.9454   29.4966 C   0  0  0  0  0  0  0  0  0  0  0  0
   -8.4281   -3.2900   27.3367 C   0  0  0  0  0  0  0  0  0  0  0  0
   -9.4178   -3.0518   27.1160 F   0  0  0  0  0  0  0  0  0  0  0  0
   -7.8848   -4.0789   26.3669 F   0  0  0  0  0  0  0  0  0  0  0  0
   -8.3307   -3.9468   28.5056 F   0  0  0  0  0  0  0  0  0  0  0  0
  -10.2548    3.2631   24.4207 C   0  0  0  0  0  0  0  0  0  0  0  0
  -10.2040    3.5518   23.2902 C   0  0  0  0  0  0  0  0  0  0  0  0
  -11.1868    3.7808   22.3048 C   0  0  0  0  0  0  0  0  0  0  0  0
  -11.6922    2.9506   24.8226 C   0  0  0  0  0  0  0  0  0  0  0  0
  -12.7598    3.1675   23.9806 C   0  0  0  0  0  0  0  0  0  0  0  0
  -12.4845    3.5981   22.6872 C   0  0  0  0  0  0  0  0  0  0  0  0
  4 11  1  0
 13 17  1  0
 16 23  1  0
 23 24  1  0
 23 25  1  0
 23 26  1  0
  6 27  1  0
  1  2  2  0
  2  8  1  0
  8  9  2  0
  9 10  1  0
 10  7  2  0
 17 18  2  0
 18 19  1  0
 19 20  2  0
 20 22  1  0
 22 21  2  0
 21 17  1  0
  1  3  1  0
  3  4  2  0
  4  5  1  0
  5  6  2  0
  6  7  1  0
  7  1  1  0
 11 12  2  0
 12 13  1  0
 13 14  2  0
 14 16  1  0
 16 15  2  0
 15 11  1  0
 27 28  2  0
 28 29  1  0
 29 32  2  0
 32 31  1  0
 31 30  2  0
 30 27  1  0
M  END
$$$$
