No_8947-complexes_sdf/6BKW-FPZ/2024-09-17-14-21-01/
     RDKit          3D

 31 35  0  0  0  0  0  0  0  0999 V2000
   -7.7129    4.2099   27.0854 C   0  0  0  0  0  0  0  0  0  0  0  0
   -7.7814    5.1722   27.8972 C   0  0  0  0  0  0  0  0  0  0  0  0
   -7.2983    2.9533   27.5684 C   0  0  0  0  0  0  0  0  0  0  0  0
   -7.6908    1.8111   26.9553 C   0  0  1  0  0  0  0  0  0  0  0  0
   -8.6533    1.9165   25.9430 C   0  0  0  0  0  0  0  0  0  0  0  0
   -9.2376    3.0581   25.6387 C   0  0  0  0  0  0  0  0  0  0  0  0
   -8.8901    4.1760   26.2867 C   0  0  0  0  0  0  0  0  0  0  0  0
   -8.3432    6.4292   27.5920 N   0  0  0  0  0  0  0  0  0  0  0  0
   -9.5486    5.3450   25.8861 N   0  0  0  0  0  0  0  0  0  0  0  0
   -9.1716    6.5043   26.6155 C   0  0  0  0  0  0  0  0  0  0  0  0
   -7.1762    0.5125   27.1644 C   0  0  0  0  0  0  0  0  0  0  0  0
   -5.8970    0.3912   27.8576 C   0  0  0  0  0  0  0  0  0  0  0  0
   -5.3671   -0.8619   28.1451 C   0  0  0  0  0  0  0  0  0  0  0  0
   -6.1071   -1.9625   27.8576 C   0  0  0  0  0  0  0  0  0  0  0  0
   -7.6702   -0.7467   27.0548 C   0  0  0  0  0  0  0  0  0  0  0  0
   -7.2974   -1.8935   27.3705 C   0  0  0  0  0  0  0  0  0  0  0  0
   -3.9963   -0.8793   28.8301 C   0  0  0  0  0  0  0  0  0  0  0  0
   -2.9190   -1.3114   28.1662 C   0  0  1  0  0  0  0  0  0  0  0  0
   -3.8606   -0.3936   30.2035 C   0  0  0  0  0  0  0  0  0  0  0  0
   -4.0562   -1.2023   31.3060 C   0  0  0  0  0  0  0  0  0  0  0  0
   -4.1075   -0.6061   32.5913 C   0  0  0  0  0  0  0  0  0  0  0  0
   -4.4383   -1.4101   33.6738 C   0  0  0  0  0  0  0  0  0  0  0  0
   -4.8452   -2.7126   33.4756 C   0  0  0  0  0  0  0  0  0  0  0  0
   -4.7853   -3.2466   32.2166 C   0  0  0  0  0  0  0  0  0  0  0  0
   -4.4397   -2.4946   31.1310 C   0  0  0  0  0  0  0  0  0  0  0  0
   -2.2515   -0.2558   27.4398 C   0  0  0  0  0  0  0  0  0  0  0  0
   -2.0627   -0.3714   26.0025 C   0  0  0  0  0  0  0  0  0  0  0  0
   -2.3878   -2.5327   28.1705 C   0  0  0  0  0  0  0  0  0  0  0  0
   -2.2344   -3.1037   26.8933 C   0  0  0  0  0  0  0  0  0  0  0  0
   -2.6363   -2.4218   25.9166 C   0  0  0  0  0  0  0  0  0  0  0  0
   -2.0216   -1.4184   25.3737 N   0  0  0  0  0  0  0  0  0  0  0  0
  1  3  1  0
  3  4  1  0
  4  5  1  0
  5  6  1  0
  6  7  1  0
  4 11  1  6
 13 17  1  0
 18 17  1  1
 17 19  1  0
 19 20  1  0
 18 26  1  0
 26 27  1  0
 18 28  1  0
 28 29  1  0
 29 30  2  0
 27 31  1  0
 30 31  1  0
  1  2  2  0
  2  8  1  0
  8 10  2  0
 10  9  1  0
  9  7  2  0
  7  1  1  0
 11 12  2  0
 12 13  1  0
 13 14  2  0
 14 16  1  0
 16 15  2  0
 15 11  1  0
 20 21  2  0
 21 22  1  0
 22 23  2  0
 23 24  1  0
 24 25  2  0
 25 20  1  0
M  END
$$$$
