No_8350-complexes_sdf/6BKW-FPZ/2024-09-17-14-21-01/
     RDKit          3D

 25 28  0  0  0  0  0  0  0  0999 V2000
   -7.2496    3.8871   27.4508 C   0  0  0  0  0  0  0  0  0  0  0  0
   -8.5096    4.0291   27.2770 C   0  0  0  0  0  0  0  0  0  0  0  0
   -9.3451    2.8786   26.9046 C   0  0  0  0  0  0  0  0  0  0  0  0
   -6.6065    2.5680   27.5073 C   0  0  0  0  0  0  0  0  0  0  0  0
   -7.4233    1.4858   27.2402 C   0  0  0  0  0  0  0  0  0  0  0  0
   -8.7362    1.6525   26.9989 C   0  0  0  0  0  0  0  0  0  0  0  0
   -9.2789    5.2694   27.2420 C   0  0  0  0  0  0  0  0  0  0  0  0
   -8.6597    6.2064   26.6573 F   0  0  0  0  0  0  0  0  0  0  0  0
   -9.4280    5.7809   28.5966 F   0  0  0  0  0  0  0  0  0  0  0  0
  -10.5301    5.1068   26.7293 F   0  0  0  0  0  0  0  0  0  0  0  0
   -6.7424    0.2139   27.2413 C   0  0  0  0  0  0  0  0  0  0  0  0
   -7.3615   -0.9045   27.2545 C   0  0  0  0  0  0  0  0  0  0  0  0
   -6.7083   -2.1648   27.2947 C   0  0  0  0  0  0  0  0  0  0  0  0
   -5.3058    0.1615   27.2459 C   0  0  0  0  0  0  0  0  0  0  0  0
   -4.6102   -1.0297   27.3150 C   0  0  0  0  0  0  0  0  0  0  0  0
   -5.3190   -2.1886   27.2907 C   0  0  0  0  0  0  0  0  0  0  0  0
   -7.5038   -3.3991   27.3159 C   0  0  0  0  0  0  0  0  0  0  0  0
   -7.8026   -3.9600   28.3113 C   0  0  0  0  0  0  0  0  0  0  0  0
   -7.3824   -3.5339   29.5343 C   0  0  0  0  0  0  0  0  0  0  0  0
   -7.6853   -3.4775   30.6677 C   0  0  0  0  0  0  0  0  0  0  0  0
   -7.0237   -2.8566   31.8492 C   0  0  0  0  0  0  0  0  0  0  0  0
   -5.8858   -2.1064   31.5674 C   0  0  0  0  0  0  0  0  0  0  0  0
   -5.5083   -1.9832   30.2531 C   0  0  0  0  0  0  0  0  0  0  0  0
   -6.1733   -2.5736   29.3167 C   0  0  0  0  0  0  0  0  0  0  0  0
   -5.5201   -2.5747   28.2261 N   0  0  0  0  0  0  0  0  0  0  0  0
  2  7  1  0
  7  8  1  0
  7  9  1  0
  7 10  1  0
  5 11  1  0
 13 17  1  0
 17 18  1  0
 24 25  1  0
 25 16  1  0
 18 19  1  0
  1  2  2  0
  2  3  1  0
  3  6  2  0
  6  5  1  0
  5  4  2  0
  4  1  1  0
 19 20  2  0
 20 21  1  0
 21 22  2  0
 22 23  1  0
 23 24  2  0
 24 19  1  0
 11 12  2  0
 12 13  1  0
 13 16  2  0
 16 15  1  0
 15 14  2  0
 14 11  1  0
M  END
$$$$
