No_8777-complexes_sdf/6BKW-FPZ/2024-09-17-14-21-01/
     RDKit          3D

 28 32  0  0  0  0  0  0  0  0999 V2000
   -7.7129    4.2099   27.0854 C   0  0  0  0  0  0  0  0  0  0  0  0
   -8.9133    4.4736   27.0998 C   0  0  0  0  0  0  0  0  0  0  0  0
   -9.4643    5.5426   27.7628 C   0  0  0  0  0  0  0  0  0  0  0  0
   -7.2009    2.9448   26.6134 C   0  0  0  0  0  0  0  0  0  0  0  0
   -8.1365    1.9533   26.2981 C   0  0  2  0  0  0  0  0  0  0  0  0
   -7.6295    0.6861   25.9574 C   0  0  1  0  0  0  0  0  0  0  0  0
   -9.8524    3.5451   26.4382 C   0  0  0  0  0  0  0  0  0  0  0  0
  -11.1618    3.9335   26.2721 C   0  0  0  0  0  0  0  0  0  0  0  0
   -9.3930    2.3791   26.0191 C   0  0  1  0  0  0  0  0  0  0  0  0
   -7.8635    0.1002   24.8676 N   0  0  0  0  0  0  0  0  0  0  0  0
   -7.1922   -0.9578   24.3583 C   0  0  0  0  0  0  0  0  0  0  0  0
   -6.0243   -1.2296   24.9481 C   0  0  0  0  0  0  0  0  0  0  0  0
   -5.7544   -0.7600   26.2610 C   0  0  0  0  0  0  0  0  0  0  0  0
   -6.4499    0.2687   26.7356 C   0  0  0  0  0  0  0  0  0  0  0  0
  -12.0031    3.8376   27.4044 C   0  0  0  0  0  0  0  0  0  0  0  0
  -13.3243    4.2038   27.5099 C   0  0  0  0  0  0  0  0  0  0  0  0
  -14.0398    4.2948   28.6635 C   0  0  0  0  0  0  0  0  0  0  0  0
  -13.5075    3.6007   29.8222 C   0  0  0  0  0  0  0  0  0  0  0  0
  -12.1592    3.1061   29.7405 C   0  0  0  0  0  0  0  0  0  0  0  0
  -11.4517    3.2370   28.6445 C   0  0  0  0  0  0  0  0  0  0  0  0
   -9.0300    0.5164   23.9799 C   0  0  0  0  0  0  0  0  0  0  0  0
   -9.7685    1.6127   24.5919 C   0  0  0  0  0  0  0  0  0  0  0  0
  -14.2936    3.5915   31.0714 C   0  0  0  0  0  0  0  0  0  0  0  0
  -15.2701    4.3491   31.2793 C   0  0  0  0  0  0  0  0  0  0  0  0
  -15.9903    4.3623   32.4860 C   0  0  0  0  0  0  0  0  0  0  0  0
  -15.5625    3.5145   33.5174 C   0  0  0  0  0  0  0  0  0  0  0  0
  -13.9161    2.7997   32.2497 C   0  0  0  0  0  0  0  0  0  0  0  0
  -14.4724    2.7565   33.3748 C   0  0  0  0  0  0  0  0  0  0  0  0
  1  2  1  0
  2  3  2  0
  1  4  1  0
  5  4  1  6
  2  7  1  0
  7  8  1  0
  5  9  1  0
  7  9  1  0
  6 10  1  0
 10 11  1  0
 11 12  1  0
  6 14  1  6
 13 14  1  0
  8 15  1  0
 10 21  1  0
  9 22  1  6
 18 23  1  0
 13 12  1  0
  6  5  1  0
 22 21  1  0
 15 16  2  0
 16 17  1  0
 17 18  2  0
 18 19  1  0
 19 20  2  0
 20 15  1  0
 23 24  2  0
 24 25  1  0
 25 26  2  0
 26 28  1  0
 28 27  2  0
 27 23  1  0
M  END
$$$$
