No_8187-complexes_sdf/6BKW-FPZ/2024-09-17-14-21-01/
     RDKit          3D

 40 44  0  0  0  0  0  0  0  0999 V2000
   -7.7129    4.2099   27.0854 C   0  0  0  0  0  0  0  0  0  0  0  0
   -7.7814    5.1722   27.8972 C   0  0  0  0  0  0  0  0  0  0  0  0
   -8.8776    3.8408   26.3416 C   0  0  0  0  0  0  0  0  0  0  0  0
   -9.9844    4.6492   26.4743 C   0  0  0  0  0  0  0  0  0  0  0  0
   -8.8033    6.1375   27.8728 C   0  0  0  0  0  0  0  0  0  0  0  0
   -9.9554    5.8280   27.1736 C   0  0  0  0  0  0  0  0  0  0  0  0
   -9.0965    2.6519   25.5788 C   0  0  2  0  0  0  0  0  0  0  0  0
   -8.2692    1.2872   26.1022 S   0  0  0  0  0  0  0  0  0  0  0  0
   -8.6466    0.2691   24.8882 C   0  0  0  0  0  0  0  0  0  0  0  0
   -9.7155    2.6275   24.3758 C   0  0  0  0  0  0  0  0  0  0  0  0
   -9.4319    1.0256   23.9469 C   0  0  0  0  0  0  0  0  0  0  0  0
   -8.3436   -1.0262   24.6875 C   0  0  0  0  0  0  0  0  0  0  0  0
   -7.6217   -1.5667   25.7730 C   0  0  0  0  0  0  0  0  0  0  0  0
   -7.8032   -1.4097   26.9151 C   0  0  0  0  0  0  0  0  0  0  0  0
   -8.8781   -0.7237   27.5020 C   0  0  0  0  0  0  0  0  0  0  0  0
   -6.8541   -1.8446   27.9452 C   0  0  0  0  0  0  0  0  0  0  0  0
   -6.2833   -2.8040   28.0344 C   0  0  0  0  0  0  0  0  0  0  0  0
   -5.4195   -3.2194   29.1069 C   0  0  0  0  0  0  0  0  0  0  0  0
   -5.2251   -2.3145   30.1943 C   0  0  0  0  0  0  0  0  0  0  0  0
   -5.8203   -1.0290   30.1103 C   0  0  0  0  0  0  0  0  0  0  0  0
   -6.6111   -0.7247   29.0465 C   0  0  0  0  0  0  0  0  0  0  0  0
   -4.2962   -2.5756   31.3362 C   0  0  0  0  0  0  0  0  0  0  0  0
   -3.8199   -3.6495   31.4446 F   0  0  0  0  0  0  0  0  0  0  0  0
   -4.9716   -2.2828   32.5215 F   0  0  0  0  0  0  0  0  0  0  0  0
   -3.3053   -1.6288   31.3001 F   0  0  0  0  0  0  0  0  0  0  0  0
  -10.1951   -1.1776   27.0638 C   0  0  0  0  0  0  0  0  0  0  0  0
  -11.3091   -0.5817   27.7493 C   0  0  0  0  0  0  0  0  0  0  0  0
  -12.5643   -0.9696   27.4873 C   0  0  0  0  0  0  0  0  0  0  0  0
  -13.6742   -0.4091   28.1298 C   0  0  0  0  0  0  0  0  0  0  0  0
  -13.4539    0.6215   29.1232 C   0  0  0  0  0  0  0  0  0  0  0  0
  -12.1627    1.0936   29.3100 C   0  0  0  0  0  0  0  0  0  0  0  0
  -11.1367    0.5460   28.6485 C   0  0  0  0  0  0  0  0  0  0  0  0
  -10.4537   -2.2677   26.2820 C   0  0  0  0  0  0  0  0  0  0  0  0
  -10.3770   -3.5210   26.8583 C   0  0  0  0  0  0  0  0  0  0  0  0
  -10.1881   -3.7729   28.1372 C   0  0  0  0  0  0  0  0  0  0  0  0
  -10.1256   -5.0455   28.7185 C   0  0  0  0  0  0  0  0  0  0  0  0
  -10.3274   -6.0898   27.8387 C   0  0  0  0  0  0  0  0  0  0  0  0
  -10.5883   -4.6927   25.9856 C   0  0  0  0  0  0  0  0  0  0  0  0
  -10.5713   -5.9447   26.5159 C   0  0  0  0  0  0  0  0  0  0  0  0
  -11.1919   -2.0637   25.2220 O   0  0  0  0  0  0  0  0  0  0  0  0
  7  3  1  6
  7  8  1  0
  8  9  1  0
  7 10  1  0
  9 11  2  0
 10 11  2  0
  9 12  1  0
 12 13  1  0
 13 14  2  3
 14 15  1  0
 14 16  1  0
 19 22  1  0
 22 23  1  0
 22 24  1  0
 22 25  1  0
 15 26  2  3
 26 27  1  0
 26 33  1  0
 33 34  1  0
 33 40  2  0
 27 28  2  0
 28 29  1  0
 29 30  2  0
 30 31  1  0
 31 32  2  0
 32 27  1  0
 34 35  2  0
 35 36  1  0
 36 37  2  0
 37 39  1  0
 39 38  2  0
 38 34  1  0
  1  2  2  0
  2  5  1  0
  5  6  2  0
  6  4  1  0
  4  3  2  0
  3  1  1  0
 16 17  2  0
 17 18  1  0
 18 19  2  0
 19 20  1  0
 20 21  2  0
 21 16  1  0
M  END
$$$$
