No_8569-complexes_sdf/6BKW-FPZ/2024-09-17-14-21-01/
     RDKit          3D

 20 21  0  0  0  0  0  0  0  0999 V2000
   -7.9040    3.9820   27.1177 C   0  0  0  0  0  0  0  0  0  0  0  0
   -7.8663    4.8694   27.9238 C   0  0  0  0  0  0  0  0  0  0  0  0
   -9.0501    3.8017   26.2617 C   0  0  0  0  0  0  0  0  0  0  0  0
   -9.1826    2.7026   25.3575 C   0  0  0  0  0  0  0  0  0  0  0  0
   -8.6940    6.0131   27.8614 C   0  0  0  0  0  0  0  0  0  0  0  0
   -9.9755    4.8547   26.2361 C   0  0  0  0  0  0  0  0  0  0  0  0
   -9.7463    5.9398   27.0364 C   0  0  0  0  0  0  0  0  0  0  0  0
   -8.6850    1.4682   25.7485 C   0  0  0  0  0  0  0  0  0  0  0  0
   -8.8205    0.3702   24.9052 C   0  0  0  0  0  0  0  0  0  0  0  0
   -9.4391    0.5749   23.6524 C   0  0  0  0  0  0  0  0  0  0  0  0
   -9.7698    2.7848   24.1223 C   0  0  0  0  0  0  0  0  0  0  0  0
   -9.8634    1.7863   23.2751 C   0  0  0  0  0  0  0  0  0  0  0  0
   -9.5492   -0.6210   22.7040 C   0  0  0  0  0  0  0  0  0  0  0  0
  -10.4544   -1.4410   23.0415 N   0  0  0  0  0  0  0  0  0  0  0  0
  -11.1108   -1.6005   23.8427 C   0  0  0  0  0  0  0  0  0  0  0  0
  -11.9807   -1.8101   24.3887 C   0  0  0  0  0  0  0  0  0  0  0  0
  -13.0281   -1.8921   25.2430 C   0  0  0  0  0  0  0  0  0  0  0  0
  -13.6119   -1.7841   26.1319 C   0  0  0  0  0  0  0  0  0  0  0  0
  -14.5374   -1.5293   26.8680 N   0  0  0  0  0  0  0  0  0  0  0  0
   -9.0532   -0.3204   21.6478 O   0  0  0  0  0  0  0  0  0  0  0  0
  3  4  1  0
 10 13  1  0
 13 14  1  0
 14 15  1  0
 15 16  2  3
 16 17  1  0
 17 18  1  0
 18 19  3  0
 13 20  2  0
  4  8  2  0
  8  9  1  0
  9 10  2  0
 10 12  1  0
 12 11  2  0
 11  4  1  0
  1  2  2  0
  2  5  1  0
  5  7  2  0
  7  6  1  0
  6  3  2  0
  3  1  1  0
M  END
$$$$
