No_8029-complexes_sdf/6BKW-FPZ/2024-09-17-14-21-01/
     RDKit          3D

 17 19  0  0  0  0  0  0  0  0999 V2000
   -7.9040    3.9820   27.1177 C   0  0  1  0  0  0  0  0  0  0  0  0
   -8.2057    2.8231   26.8733 C   0  0  0  0  0  0  0  0  0  0  0  0
   -8.7695    5.0740   26.7916 C   0  0  0  0  0  0  0  0  0  0  0  0
   -8.4785    6.4289   27.2922 C   0  0  0  0  0  0  0  0  0  0  0  0
   -7.4254    1.6839   27.4940 C   0  0  0  0  0  0  0  0  0  0  0  0
   -7.7454    0.3390   27.3305 C   0  0  0  0  0  0  0  0  0  0  0  0
   -9.0914    2.3816   25.9051 C   0  0  0  0  0  0  0  0  0  0  0  0
   -9.3493    1.0219   25.6710 C   0  0  0  0  0  0  0  0  0  0  0  0
  -10.3749    0.6875   24.6692 C   0  0  0  0  0  0  0  0  0  0  0  0
   -8.6731    0.0421   26.3283 C   0  0  0  0  0  0  0  0  0  0  0  0
  -11.6107    0.9822   24.8431 C   0  0  0  0  0  0  0  0  0  0  0  0
   -9.9155    0.2008   23.3923 C   0  0  0  0  0  0  0  0  0  0  0  0
   -7.2567    6.4695   27.8287 N   0  0  0  0  0  0  0  0  0  0  0  0
   -6.9316    4.7129   28.0266 C   0  0  0  0  0  0  0  0  0  0  0  0
  -12.5422    0.6834   23.9583 C   0  0  0  0  0  0  0  0  0  0  0  0
  -10.8275   -0.1258   22.3962 C   0  0  0  0  0  0  0  0  0  0  0  0
  -12.1627    0.1759   22.6766 C   0  0  0  0  0  0  0  0  0  0  0  0
  1  2  1  1
  1  3  1  0
  3  4  1  0
  8  9  1  0
  4 13  2  0
  1 14  1  0
 13 14  1  0
  9 11  2  0
 11 15  1  0
 15 17  2  0
 17 16  1  0
 16 12  2  0
 12  9  1  0
  2  5  2  0
  5  6  1  0
  6 10  2  0
 10  8  1  0
  8  7  2  0
  7  2  1  0
M  END
$$$$
