No_8414-complexes_sdf/6BKW-FPZ/2024-09-17-14-21-01/
     RDKit          3D

 13 14  0  0  0  0  0  0  0  0999 V2000
   -7.2496    3.8871   27.4508 C   0  0  0  0  0  0  0  0  0  0  0  0
   -7.9379    4.9063   27.8518 C   0  0  0  0  0  0  0  0  0  0  0  0
   -9.3376    4.8647   27.7795 C   0  0  0  0  0  0  0  0  0  0  0  0
   -7.8544    2.6294   27.0414 C   0  0  0  0  0  0  0  0  0  0  0  0
   -9.2665    2.6175   27.0340 C   0  0  0  0  0  0  0  0  0  0  0  0
   -9.9836    3.7042   27.4150 C   0  0  0  0  0  0  0  0  0  0  0  0
   -7.3185    1.4719   26.7855 N   0  0  0  0  0  0  0  0  0  0  0  0
   -7.9896    0.5536   26.1169 C   0  0  0  0  0  0  0  0  0  0  0  0
   -9.6526    1.3743   26.5384 C   0  0  0  0  0  0  0  0  0  0  0  0
  -11.4567    3.6292   27.4073 C   0  0  0  0  0  0  0  0  0  0  0  0
  -12.0708    4.0212   26.3334 C   0  0  0  0  0  0  0  0  0  0  0  0
  -12.1567    3.1072   28.5417 C   0  0  0  0  0  0  0  0  0  0  0  0
  -11.8266    2.5125   29.4710 C   0  0  0  0  0  0  0  0  0  0  0  0
  4  7  1  0
  7  8  2  0
  5  9  1  0
  8  9  1  0
  6 10  1  0
 10 11  1  0
 10 12  1  0
 12 13  2  0
  1  2  2  0
  2  3  1  0
  3  6  2  0
  6  5  1  0
  5  4  2  0
  4  1  1  0
M  END
$$$$
