No_8717-complexes_sdf/6BKW-FPZ/2024-09-17-14-21-01/
     RDKit          3D

 17 18  0  0  0  0  0  0  0  0999 V2000
   -7.9040    3.9820   27.1177 C   0  0  0  0  0  0  0  0  0  0  0  0
   -7.8663    4.8694   27.9238 C   0  0  0  0  0  0  0  0  0  0  0  0
   -9.0491    3.8523   26.2542 C   0  0  0  0  0  0  0  0  0  0  0  0
   -8.7661    5.9491   27.9690 C   0  0  0  0  0  0  0  0  0  0  0  0
   -9.9295    4.8502   26.2323 C   0  0  0  0  0  0  0  0  0  0  0  0
   -9.8077    5.9288   27.0933 C   0  0  0  0  0  0  0  0  0  0  0  0
   -6.9996    2.9096   27.1565 O   0  0  0  0  0  0  0  0  0  0  0  0
   -7.3398    1.5998   26.9303 C   0  0  0  0  0  0  0  0  0  0  0  0
   -8.4690    1.2494   26.3568 C   0  0  0  0  0  0  0  0  0  0  0  0
   -9.3723    2.4824   25.7650 C   0  0  0  0  0  0  0  0  0  0  0  0
   -6.4067    0.6011   27.3932 C   0  0  0  0  0  0  0  0  0  0  0  0
   -6.6612   -0.6403   27.5522 N   0  0  0  0  0  0  0  0  0  0  0  0
   -5.1009    0.9806   27.7584 N   0  0  0  0  0  0  0  0  0  0  0  0
   -7.7842   -1.3086   27.3655 C   0  0  0  0  0  0  0  0  0  0  0  0
   -4.3626    0.0575   28.3724 C   0  0  0  0  0  0  0  0  0  0  0  0
   -3.1633    0.4468   28.6828 C   0  0  0  0  0  0  0  0  0  0  0  0
   -4.8763   -1.1560   28.7416 C   0  0  0  0  0  0  0  0  0  0  0  0
  1  7  1  0
  7  8  1  0
  8  9  2  0
  3 10  1  0
  9 10  1  0
  8 11  1  0
 11 12  2  3
 11 13  1  0
 12 14  1  0
 13 15  1  0
 15 16  1  0
 15 17  1  0
  1  2  2  0
  2  4  1  0
  4  6  2  0
  6  5  1  0
  5  3  2  0
  3  1  1  0
M  END
$$$$
