No_8911-complexes_sdf/6BKW-FPZ/2024-09-17-14-21-01/
     RDKit          3D

 12 12  0  0  0  0  0  0  0  0999 V2000
   -7.9040    3.9820   27.1177 C   0  0  0  0  0  0  0  0  0  0  0  0
   -9.0711    4.3164   27.0630 C   0  0  0  0  0  0  0  0  0  0  0  0
   -9.5182    5.5541   27.5777 C   0  0  0  0  0  0  0  0  0  0  0  0
   -7.4468    2.6843   26.6499 C   0  0  0  0  0  0  0  0  0  0  0  0
   -6.3753    2.0179   27.3532 C   0  0  0  0  0  0  0  0  0  0  0  0
   -6.0779    0.6961   27.2494 C   0  0  0  0  0  0  0  0  0  0  0  0
   -4.9237    0.1931   27.9177 C   0  0  0  0  0  0  0  0  0  0  0  0
   -4.2066    1.0882   28.7438 C   0  0  0  0  0  0  0  0  0  0  0  0
   -4.5762    2.3871   28.7150 N   0  0  0  0  0  0  0  0  0  0  0  0
   -5.5379    2.8839   28.1092 C   0  0  0  0  0  0  0  0  0  0  0  0
   -8.5126    6.5348   27.8544 C   0  0  0  0  0  0  0  0  0  0  0  0
   -7.1336    5.0051   27.5322 F   0  0  0  0  0  0  0  0  0  0  0  0
  1  2  2  3
  2  3  1  0
  1  4  1  0
  3 11  2  0
  1 12  1  0
  4  5  1  0
  5  6  2  0
  6  7  1  0
  7  8  2  0
  8  9  1  0
  9 10  2  0
 10  5  1  0
M  END
$$$$
