No_8412-complexes_sdf/6BKW-FPZ/2024-09-17-14-21-01/
     RDKit          3D

 13 13  0  0  0  0  0  0  0  0999 V2000
   -7.9040    3.9820   27.1177 C   0  0  0  0  0  0  0  0  0  0  0  0
   -7.8663    4.8694   27.9238 C   0  0  0  0  0  0  0  0  0  0  0  0
   -7.4547    2.7080   27.4594 C   0  0  0  0  0  0  0  0  0  0  0  0
   -7.9337    1.5946   26.8372 C   0  0  0  0  0  0  0  0  0  0  0  0
   -8.9032    1.7881   25.8510 C   0  0  0  0  0  0  0  0  0  0  0  0
   -9.3649    0.5983   25.1884 C   0  0  0  0  0  0  0  0  0  0  0  0
   -8.8102    3.8888   26.0792 C   0  0  0  0  0  0  0  0  0  0  0  0
   -9.3611    2.9570   25.4861 C   0  0  0  0  0  0  0  0  0  0  0  0
   -8.1319    5.9627   28.1070 N   0  0  0  0  0  0  0  0  0  0  0  0
   -9.9234    0.2967   24.2941 Cl  0  0  0  0  0  0  0  0  0  0  0  0
   -8.8565   -0.6760   26.0864 C   0  0  0  0  0  0  0  0  0  0  0  0
   -9.4537   -1.7285   25.9197 C   0  0  0  0  0  0  0  0  0  0  0  0
  -10.5949   -1.8902   25.1479 C   0  0  0  0  0  0  0  0  0  0  0  0
  1  2  1  0
  5  6  1  0
  2  9  3  0
  6 10  1  0
  6 11  1  0
 11 12  2  3
 12 13  1  0
  1  3  2  0
  3  4  1  0
  4  5  2  0
  5  8  1  0
  8  7  2  0
  7  1  1  0
M  END
$$$$
