No_8005-complexes_sdf/6BKW-FPZ/2024-09-17-14-21-01/
     RDKit          3D

 10 10  0  0  0  0  0  0  0  0999 V2000
   -7.2496    3.8871   27.4508 C   0  0  0  0  0  0  0  0  0  0  0  0
   -7.6161    2.7143   27.1523 C   0  0  0  0  0  0  0  0  0  0  0  0
   -8.6212    2.2240   26.4074 C   0  0  0  0  0  0  0  0  0  0  0  0
   -8.2539    4.9237   27.1712 C   0  0  0  0  0  0  0  0  0  0  0  0
   -9.3729    4.5807   26.4433 C   0  0  0  0  0  0  0  0  0  0  0  0
   -9.5831    3.2969   26.1026 C   0  0  0  0  0  0  0  0  0  0  0  0
   -7.8697    6.5884   27.6339 P   0  0  0  0  0  0  0  0  0  0  0  0
   -8.9522    7.3572   26.9920 O   0  0  0  0  0  0  0  0  0  0  0  0
   -6.7232    6.6649   27.0879 O   0  0  0  0  0  0  0  0  0  0  0  0
   -7.7631    6.3886   29.0942 O   0  0  0  0  0  0  0  0  0  0  0  0
  4  7  1  0
  7  8  1  0
  7  9  2  0
  7 10  1  0
  1  2  2  0
  2  3  1  0
  3  6  2  0
  6  5  1  0
  5  4  2  0
  4  1  1  0
M  END
$$$$
