No_8365-complexes_sdf/6BKW-FPZ/2024-09-17-14-21-01/
     RDKit          3D

 31 35  0  0  0  0  0  0  0  0999 V2000
   -7.9040    3.9820   27.1177 C   0  0  0  0  0  0  0  0  0  0  0  0
   -7.8663    4.8694   27.9238 C   0  0  0  0  0  0  0  0  0  0  0  0
   -9.0501    3.8017   26.2617 C   0  0  0  0  0  0  0  0  0  0  0  0
   -9.1826    2.7026   25.3575 C   0  0  0  0  0  0  0  0  0  0  0  0
   -8.6940    6.0131   27.8614 C   0  0  0  0  0  0  0  0  0  0  0  0
   -9.9755    4.8547   26.2361 C   0  0  0  0  0  0  0  0  0  0  0  0
   -9.7463    5.9398   27.0364 C   0  0  0  0  0  0  0  0  0  0  0  0
  -10.1005    1.8694   25.7051 C   0  0  0  0  0  0  0  0  0  0  0  0
  -10.1112    0.7167   25.0387 C   0  0  0  0  0  0  0  0  0  0  0  0
  -11.1597    0.1123   24.7633 C   0  0  0  0  0  0  0  0  0  0  0  0
  -12.3747    0.3442   25.5080 C   0  0  0  0  0  0  0  0  0  0  0  0
  -12.3905    1.5174   26.2548 C   0  0  0  0  0  0  0  0  0  0  0  0
  -11.2925    2.3410   26.3337 C   0  0  0  0  0  0  0  0  0  0  0  0
   -6.9729    2.7923   27.2488 C   0  0  2  0  0  0  0  0  0  0  0  0
   -7.3066    1.5267   27.3498 N   0  0  0  0  0  0  0  0  0  0  0  0
   -6.4807    0.5179   27.4213 C   0  0  0  0  0  0  0  0  0  0  0  0
   -5.1953    0.8430   27.8880 C   0  0  0  0  0  0  0  0  0  0  0  0
   -4.2398   -0.1791   28.1064 C   0  0  0  0  0  0  0  0  0  0  0  0
   -5.7846    3.1242   27.7432 N   0  0  0  0  0  0  0  0  0  0  0  0
   -4.8818    2.2886   28.0355 C   0  0  0  0  0  0  0  0  0  0  0  0
   -4.5707   -1.2602   28.4408 C   0  0  0  0  0  0  0  0  0  0  0  0
   -5.9358   -1.7084   28.0418 C   0  0  0  0  0  0  0  0  0  0  0  0
   -6.8953   -0.7785   27.5912 C   0  0  0  0  0  0  0  0  0  0  0  0
   -8.2090   -1.2062   27.2875 C   0  0  0  0  0  0  0  0  0  0  0  0
   -8.6296   -2.3707   26.7574 C   0  0  0  0  0  0  0  0  0  0  0  0
   -7.8929   -2.9517   26.0519 C   0  0  0  0  0  0  0  0  0  0  0  0
   -8.3323   -4.1912   25.3427 C   0  0  0  0  0  0  0  0  0  0  0  0
   -9.6412   -4.5590   25.6221 C   0  0  0  0  0  0  0  0  0  0  0  0
  -10.4594   -3.8332   26.4429 C   0  0  0  0  0  0  0  0  0  0  0  0
   -9.9924   -2.6788   27.0362 C   0  0  0  0  0  0  0  0  0  0  0  0
   -9.1316   -0.3185   27.7863 O   0  0  0  0  0  0  0  0  0  0  0  0
  3  4  1  0
  4  8  1  0
 14  1  1  1
 14 15  1  0
 15 16  1  0
 14 19  1  0
 17 20  1  0
 19 20  1  0
 23 24  1  0
 24 25  1  0
 24 31  2  0
 25 26  2  0
 26 27  1  0
 27 28  2  0
 28 29  1  0
 29 30  2  0
 30 25  1  0
 16 17  2  0
 17 18  1  0
 18 21  2  0
 21 22  1  0
 22 23  2  0
 23 16  1  0
  8  9  2  0
  9 10  1  0
 10 11  2  0
 11 12  1  0
 12 13  2  0
 13  8  1  0
  1  2  2  0
  2  5  1  0
  5  7  2  0
  7  6  1  0
  6  3  2  0
  3  1  1  0
M  END
$$$$
