No_8912-complexes_sdf/6BKW-FPZ/2024-09-17-14-21-01/
     RDKit          3D

 22 24  0  0  0  0  0  0  0  0999 V2000
   -7.7129    4.2099   27.0854 C   0  0  0  0  0  0  0  0  0  0  0  0
   -8.2112    3.0637   26.9225 C   0  0  0  0  0  0  0  0  0  0  0  0
   -7.0021    4.5281   28.2396 C   0  0  0  0  0  0  0  0  0  0  0  0
   -7.5497    1.9016   27.4549 C   0  0  0  0  0  0  0  0  0  0  0  0
   -6.3677    2.2142   28.2276 C   0  0  0  0  0  0  0  0  0  0  0  0
   -6.0061    3.5229   28.4663 C   0  0  0  0  0  0  0  0  0  0  0  0
   -9.3619    2.7867   26.0482 C   0  0  0  0  0  0  0  0  0  0  0  0
  -10.3535    3.6717   25.8488 C   0  0  0  0  0  0  0  0  0  0  0  0
  -11.3353    3.5017   24.8896 C   0  0  0  0  0  0  0  0  0  0  0  0
  -11.3554    2.3086   24.1652 C   0  0  0  0  0  0  0  0  0  0  0  0
   -9.4270    1.6474   25.1632 C   0  0  0  0  0  0  0  0  0  0  0  0
  -10.3677    1.4343   24.2930 C   0  0  0  0  0  0  0  0  0  0  0  0
   -5.4351    1.0831   28.5648 C   0  0  0  0  0  0  0  0  0  0  0  0
   -4.5188    0.9983   29.3264 C   0  0  0  0  0  0  0  0  0  0  0  0
   -5.7385   -0.1982   27.8137 C   0  0  0  0  0  0  0  0  0  0  0  0
   -3.6427   -0.0397   29.7147 C   0  0  0  0  0  0  0  0  0  0  0  0
   -4.9828   -1.3319   28.1366 C   0  0  0  0  0  0  0  0  0  0  0  0
   -3.9223   -1.2341   29.0682 C   0  0  0  0  0  0  0  0  0  0  0  0
  -12.4461    2.1339   23.1519 C   0  0  0  0  0  0  0  0  0  0  0  0
  -12.3095    2.4858   21.9751 C   0  0  0  0  0  0  0  0  0  0  0  0
  -11.1677    2.8990   21.4374 C   0  0  0  0  0  0  0  0  0  0  0  0
  -11.0495    3.3336   19.9882 C   0  0  0  0  0  0  0  0  0  0  0  0
  2  7  1  0
  5 13  1  0
 10 19  1  0
 19 20  1  0
 20 21  2  3
 21 22  1  0
  1  2  2  0
  2  4  1  0
  4  5  2  0
  5  6  1  0
  6  3  2  0
  3  1  1  0
  7  8  2  0
  8  9  1  0
  9 10  2  0
 10 12  1  0
 12 11  2  0
 11  7  1  0
 13 14  2  0
 14 16  1  0
 16 18  2  0
 18 17  1  0
 17 15  2  0
 15 13  1  0
M  END
$$$$
