No_8304-complexes_sdf/6BKW-FPZ/2024-09-17-14-21-01/
     RDKit          3D

 17 19  0  0  0  0  0  0  0  0999 V2000
   -7.9040    3.9820   27.1177 C   0  0  0  0  0  0  0  0  0  0  0  0
   -9.0711    4.3164   27.0630 C   0  0  0  0  0  0  0  0  0  0  0  0
   -9.9692    3.7224   26.1073 C   0  0  0  0  0  0  0  0  0  0  0  0
   -7.4776    2.6994   26.6283 C   0  0  0  0  0  0  0  0  0  0  0  0
   -8.4406    1.9440   25.9776 C   0  0  0  0  0  0  0  0  0  0  0  0
   -9.6379    2.5001   25.6881 C   0  0  0  0  0  0  0  0  0  0  0  0
   -6.9731    4.6322   27.9653 N   0  0  0  0  0  0  0  0  0  0  0  0
   -7.0536    5.6780   28.4729 N   0  0  0  0  0  0  0  0  0  0  0  0
   -8.3857    6.2638   28.1636 C   0  0  0  0  0  0  0  0  0  0  0  0
   -9.3498    5.6749   27.4718 C   0  0  0  0  0  0  0  0  0  0  0  0
   -8.0616    0.6215   25.4592 C   0  0  0  0  0  0  0  0  0  0  0  0
   -8.6368    0.1202   24.3632 C   0  0  0  0  0  0  0  0  0  0  0  0
   -9.7810    0.8537   23.8018 C   0  0  0  0  0  0  0  0  0  0  0  0
  -10.3028    1.9235   24.5187 C   0  0  0  0  0  0  0  0  0  0  0  0
  -11.4687    2.5860   23.8995 C   0  0  0  0  0  0  0  0  0  0  0  0
  -12.6280    2.4017   24.5240 C   0  0  0  0  0  0  0  0  0  0  0  0
  -13.8144    3.0657   24.0156 C   0  0  0  0  0  0  0  0  0  0  0  0
 14 15  1  0
 15 16  2  3
 16 17  1  0
  2 10  1  0
 10  9  2  0
  9  8  1  0
  8  7  2  0
  7  1  1  0
  1  2  1  0
  2  3  2  0
  3  6  1  0
  5  4  1  0
  4  1  2  0
  5  6  2  0
  6 14  1  0
 14 13  2  0
 13 12  1  0
 12 11  2  0
 11  5  1  0
M  END
$$$$
