No_8247-complexes_sdf/6BKW-FPZ/2024-09-17-14-21-01/
     RDKit          3D

 21 22  0  0  0  0  0  0  0  0999 V2000
   -7.9040    3.9820   27.1177 C   0  0  0  0  0  0  0  0  0  0  0  0
   -7.8663    4.8694   27.9238 C   0  0  0  0  0  0  0  0  0  0  0  0
   -9.0491    3.8523   26.2542 C   0  0  0  0  0  0  0  0  0  0  0  0
   -8.7661    5.9491   27.9690 C   0  0  0  0  0  0  0  0  0  0  0  0
   -9.9295    4.8502   26.2323 C   0  0  0  0  0  0  0  0  0  0  0  0
   -9.8077    5.9288   27.0933 C   0  0  0  0  0  0  0  0  0  0  0  0
   -9.0726    2.7074   25.3087 C   0  0  0  0  0  0  0  0  0  0  0  0
   -9.9788    1.8124   25.6868 C   0  0  0  0  0  0  0  0  0  0  0  0
   -9.8886    0.6639   25.0471 C   0  0  0  0  0  0  0  0  0  0  0  0
  -10.8486   -0.2316   25.1579 C   0  0  0  0  0  0  0  0  0  0  0  0
  -11.9133   -0.0597   26.1074 C   0  0  0  0  0  0  0  0  0  0  0  0
  -11.9577    1.1289   26.7901 C   0  0  0  0  0  0  0  0  0  0  0  0
  -11.0180    2.0969   26.6113 C   0  0  0  0  0  0  0  0  0  0  0  0
   -8.8798    0.3917   23.9639 C   0  0  0  0  0  0  0  0  0  0  0  0
   -7.6690   -0.2769   24.3510 C   0  0  0  0  0  0  0  0  0  0  0  0
   -9.1112    0.7348   22.6116 C   0  0  0  0  0  0  0  0  0  0  0  0
   -7.4644   -1.3742   24.2117 C   0  0  0  0  0  0  0  0  0  0  0  0
   -8.2671   -2.2471   23.5766 C   0  0  0  0  0  0  0  0  0  0  0  0
   -8.3648   -3.4877   23.9995 C   0  0  0  0  0  0  0  0  0  0  0  0
   -7.9290   -3.8432   24.8564 C   0  0  0  0  0  0  0  0  0  0  0  0
   -8.0602   -5.2334   25.4497 C   0  0  0  0  0  0  0  0  0  0  0  0
  3  7  1  0
  7  8  1  0
  9 14  1  0
 14 15  1  0
 14 16  1  0
 15 17  2  3
 17 18  1  0
 18 19  2  3
 19 20  1  0
 20 21  2  0
  1  2  2  0
  2  4  1  0
  4  6  2  0
  6  5  1  0
  5  3  2  0
  3  1  1  0
  8  9  2  0
  9 10  1  0
 10 11  2  0
 11 12  1  0
 12 13  2  0
 13  8  1  0
M  END
$$$$
