No_8274-complexes_sdf/6BKW-FPZ/2024-09-17-14-21-01/
     RDKit          3D

 11 11  0  0  0  0  0  0  0  0999 V2000
   -7.9040    3.9820   27.1177 C   0  0  0  0  0  0  0  0  0  0  0  0
   -7.8663    4.8694   27.9238 C   0  0  0  0  0  0  0  0  0  0  0  0
   -9.0806    3.1428   27.1220 C   0  0  0  0  0  0  0  0  0  0  0  0
   -8.9544    1.8782   26.5467 C   0  0  0  0  0  0  0  0  0  0  0  0
   -8.5076    6.0545   27.5968 C   0  0  0  0  0  0  0  0  0  0  0  0
   -9.9663    1.1418   26.2860 C   0  0  0  0  0  0  0  0  0  0  0  0
   -9.0672    6.2496   26.5516 C   0  0  0  0  0  0  0  0  0  0  0  0
  -11.2552    1.6072   26.7224 C   0  0  0  0  0  0  0  0  0  0  0  0
  -11.3853    2.7881   27.4045 C   0  0  0  0  0  0  0  0  0  0  0  0
  -10.2075    3.5475   27.6526 C   0  0  0  0  0  0  0  0  0  0  0  0
   -9.3560    6.5393   25.4811 C   0  0  0  0  0  0  0  0  0  0  0  0
  1  2  1  0
  1  3  1  0
  2  5  1  0
  5  7  2  3
  7 11  1  0
  3  4  2  0
  4  6  1  0
  6  8  2  0
  8  9  1  0
  9 10  2  0
 10  3  1  0
M  END
$$$$
