No_8343-complexes_sdf/6BKW-FPZ/2024-09-17-14-21-01/
     RDKit          3D

 14 15  0  0  0  0  0  0  0  0999 V2000
   -7.9040    3.9820   27.1177 C   0  0  0  0  0  0  0  0  0  0  0  0
   -8.2057    2.8231   26.8733 C   0  0  0  0  0  0  0  0  0  0  0  0
   -8.7695    5.0740   26.7916 C   0  0  0  0  0  0  0  0  0  0  0  0
   -9.9618    4.7598   26.1630 C   0  0  0  0  0  0  0  0  0  0  0  0
   -9.4200    2.4524   26.2849 C   0  0  0  0  0  0  0  0  0  0  0  0
  -10.2590    3.4815   25.9250 C   0  0  0  0  0  0  0  0  0  0  0  0
   -8.3837    6.4702   27.0872 C   0  0  0  0  0  0  0  0  0  0  0  0
   -7.9910    7.5367   27.0318 N   0  0  0  0  0  0  0  0  0  0  0  0
   -7.2744    1.6693   27.2989 C   0  0  0  0  0  0  0  0  0  0  0  0
   -6.1018    1.9780   27.8347 N   0  0  0  0  0  0  0  0  0  0  0  0
   -7.6480    0.3305   27.3321 C   0  0  0  0  0  0  0  0  0  0  0  0
   -5.2149    0.9752   28.2074 C   0  0  0  0  0  0  0  0  0  0  0  0
   -5.5335   -0.3016   28.2889 C   0  0  0  0  0  0  0  0  0  0  0  0
   -6.8114   -0.6099   27.8421 C   0  0  0  0  0  0  0  0  0  0  0  0
  3  7  1  0
  7  8  3  0
  2  9  1  0
  9 10  2  0
 10 12  1  0
 12 13  2  0
 13 14  1  0
 14 11  2  0
 11  9  1  0
  1  2  2  0
  2  5  1  0
  5  6  2  0
  6  4  1  0
  4  3  2  0
  3  1  1  0
M  END
$$$$
