No_8858-complexes_sdf/6BKW-FPZ/2024-09-17-14-21-01/
     RDKit          3D

  7  6  0  0  0  0  0  0  0  0999 V2000
   -7.2496    3.8871   27.4508 C   0  0  0  0  0  0  0  0  0  0  0  0
   -7.9379    4.9063   27.8518 C   0  0  1  0  0  0  0  0  0  0  0  0
   -7.5112    6.1898   27.6280 C   0  0  0  0  0  0  0  0  0  0  0  0
   -9.4044    4.7330   27.8015 C   0  0  0  0  0  0  0  0  0  0  0  0
   -7.8289    2.5799   27.2061 C   0  0  0  0  0  0  0  0  0  0  0  0
   -7.0395    1.4885   26.9423 C   0  0  0  0  0  0  0  0  0  0  0  0
   -9.8675    3.7931   27.6371 C   0  0  0  0  0  0  0  0  0  0  0  0
  1  2  1  0
  2  3  1  6
  2  4  1  0
  1  5  1  0
  5  6  3  0
  4  7  2  0
M  END
$$$$
