No_8853-complexes_sdf/6BKW-FPZ/2024-09-17-14-21-01/
     RDKit          3D

 12 12  0  0  0  0  0  0  0  0999 V2000
   -7.2496    3.8871   27.4508 C   0  0  0  0  0  0  0  0  0  0  0  0
   -8.5096    4.0291   27.2770 C   0  0  0  0  0  0  0  0  0  0  0  0
   -9.3451    2.8786   26.9046 C   0  0  0  0  0  0  0  0  0  0  0  0
   -6.6065    2.5680   27.5073 C   0  0  0  0  0  0  0  0  0  0  0  0
   -7.3970    1.4834   27.2271 C   0  0  0  0  0  0  0  0  0  0  0  0
   -8.7029    1.6398   26.9934 C   0  0  0  0  0  0  0  0  0  0  0  0
   -8.9309    5.4667   27.1885 C   0  0  0  0  0  0  0  0  0  0  0  0
   -8.1748    6.4604   27.4839 N   0  0  0  0  0  0  0  0  0  0  0  0
  -10.1852    5.6383   26.9351 O   0  0  0  0  0  0  0  0  0  0  0  0
   -6.7609    0.1950   27.2282 C   0  0  0  0  0  0  0  0  0  0  0  0
   -7.3562   -0.8784   27.2426 C   0  0  0  0  0  0  0  0  0  0  0  0
   -6.7228   -2.1558   27.2613 C   0  0  0  0  0  0  0  0  0  0  0  0
  2  7  1  0
  7  8  1  0
  7  9  2  0
  5 10  1  0
 10 11  2  3
 11 12  1  0
  1  2  2  0
  2  3  1  0
  3  6  2  0
  6  5  1  0
  5  4  2  0
  4  1  1  0
M  END
$$$$
