No_8531-complexes_sdf/6BKW-FPZ/2024-09-17-14-21-01/
     RDKit          3D

 34 39  0  0  0  0  0  0  0  0999 V2000
   -7.9040    3.9820   27.1177 C   0  0  0  0  0  0  0  0  0  0  0  0
   -7.8663    4.8694   27.9238 C   0  0  0  0  0  0  0  0  0  0  0  0
   -9.0491    3.8523   26.2542 C   0  0  0  0  0  0  0  0  0  0  0  0
   -8.7661    5.9491   27.9690 C   0  0  0  0  0  0  0  0  0  0  0  0
   -9.1798    2.6731   25.4786 C   0  0  0  0  0  0  0  0  0  0  0  0
   -9.8964    5.8854   27.1460 C   0  0  0  0  0  0  0  0  0  0  0  0
   -9.9958    4.8034   26.3470 C   0  0  0  0  0  0  0  0  0  0  0  0
  -10.0251    2.6919   24.3447 C   0  0  0  0  0  0  0  0  0  0  0  0
  -10.8464    3.8605   24.2296 C   0  0  0  0  0  0  0  0  0  0  0  0
  -10.9196    4.7789   25.1976 C   0  0  0  0  0  0  0  0  0  0  0  0
  -11.8544    3.8028   23.1416 C   0  0  0  0  0  0  0  0  0  0  0  0
  -12.9745    3.7524   23.0784 C   0  0  0  0  0  0  0  0  0  0  0  0
  -13.8045    3.8773   21.9769 C   0  0  0  0  0  0  0  0  0  0  0  0
  -11.1126    3.9958   21.8139 C   0  0  0  0  0  0  0  0  0  0  0  0
   -9.6481    4.0410   21.7350 C   0  0  0  0  0  0  0  0  0  0  0  0
  -11.9647    4.2032   20.6946 C   0  0  0  0  0  0  0  0  0  0  0  0
  -15.2751    3.7928   22.0467 C   0  0  0  0  0  0  0  0  0  0  0  0
  -13.2038    4.1194   20.7456 C   0  0  0  0  0  0  0  0  0  0  0  0
   -6.8705    2.8696   27.2199 C   0  0  0  0  0  0  0  0  0  0  0  0
   -5.7499    3.0448   28.0051 C   0  0  0  0  0  0  0  0  0  0  0  0
   -4.9451    1.9139   28.1070 N   0  0  0  0  0  0  0  0  0  0  0  0
   -5.3268    0.7209   27.7586 C   0  0  0  0  0  0  0  0  0  0  0  0
   -6.5702    0.4803   27.1843 C   0  0  0  0  0  0  0  0  0  0  0  0
   -7.3216    1.5247   27.1460 C   0  0  0  0  0  0  0  0  0  0  0  0
   -4.3458   -0.3525   28.0947 C   0  0  0  0  0  0  0  0  0  0  0  0
   -4.4145   -1.4233   27.8497 N   0  0  0  0  0  0  0  0  0  0  0  0
   -3.1649    0.0675   28.9769 C   0  0  0  0  0  0  0  0  0  0  0  0
   -2.2564   -0.9160   29.2954 C   0  0  0  0  0  0  0  0  0  0  0  0
   -3.5360   -2.4701   28.0986 C   0  0  0  0  0  0  0  0  0  0  0  0
   -2.4205   -2.1701   28.8716 C   0  0  0  0  0  0  0  0  0  0  0  0
   -8.0694    1.6229   25.6820 C   0  0  0  0  0  0  0  0  0  0  0  0
  -15.8382    4.2139   21.2167 F   0  0  0  0  0  0  0  0  0  0  0  0
  -15.5821    2.4429   22.1999 F   0  0  0  0  0  0  0  0  0  0  0  0
  -15.7355    4.3984   23.2236 F   0  0  0  0  0  0  0  0  0  0  0  0
  9 11  1  0
 14 15  1  0
 13 17  1  0
  1 19  1  0
 22 25  1  0
  5 31  1  0
 24 31  1  0
 17 32  1  0
 17 33  1  0
 17 34  1  0
 11 12  2  0
 12 13  1  0
 13 18  2  0
 18 16  1  0
 16 14  2  0
 14 11  1  0
  3  5  2  0
  5  8  1  0
  8  9  2  0
  9 10  1  0
 10  7  2  0
 19 20  2  0
 20 21  1  0
 21 22  2  0
 22 23  1  0
 23 24  2  0
 24 19  1  0
  1  2  2  0
  2  4  1  0
  4  6  2  0
  6  7  1  0
  7  3  1  0
  3  1  1  0
 25 26  2  0
 26 29  1  0
 29 30  2  0
 30 28  1  0
 28 27  2  0
 27 25  1  0
M  END
$$$$
