No_8954-complexes_sdf/6BKW-FPZ/2024-09-17-14-21-01/
     RDKit          3D

 13 14  0  0  0  0  0  0  0  0999 V2000
   -7.7129    4.2099   27.0854 C   0  0  0  0  0  0  0  0  0  0  0  0
   -7.7814    5.1722   27.8972 C   0  0  0  0  0  0  0  0  0  0  0  0
   -8.8776    3.8408   26.3416 C   0  0  0  0  0  0  0  0  0  0  0  0
   -9.9844    4.6492   26.4743 C   0  0  0  0  0  0  0  0  0  0  0  0
   -8.7830    6.1594   27.8870 C   0  0  0  0  0  0  0  0  0  0  0  0
   -9.9269    5.8191   27.1183 C   0  0  0  0  0  0  0  0  0  0  0  0
   -8.8618    2.6242   25.5633 C   0  0  0  0  0  0  0  0  0  0  0  0
   -9.6825    2.5249   24.5651 N   0  0  0  0  0  0  0  0  0  0  0  0
   -9.6448    1.4036   23.8172 C   0  0  0  0  0  0  0  0  0  0  0  0
   -8.1119    1.5887   25.8728 C   0  0  0  0  0  0  0  0  0  0  0  0
   -8.0710    0.4075   25.2099 C   0  0  0  0  0  0  0  0  0  0  0  0
   -8.8811    0.3493   24.0938 C   0  0  0  0  0  0  0  0  0  0  0  0
  -10.4773    1.3777   22.7465 F   0  0  0  0  0  0  0  0  0  0  0  0
  3  7  1  0
  9 13  1  0
  1  2  2  0
  2  5  1  0
  5  6  2  0
  6  4  1  0
  4  3  2  0
  3  1  1  0
  7  8  2  0
  8  9  1  0
  9 12  2  0
 12 11  1  0
 11 10  2  0
 10  7  1  0
M  END
$$$$
