No_8226-complexes_sdf/6BKW-FPZ/2024-09-17-14-21-01/
     RDKit          3D

 25 27  0  0  0  0  0  0  0  0999 V2000
   -7.7129    4.2099   27.0854 C   0  0  0  0  0  0  0  0  0  0  0  0
   -8.2112    3.0637   26.9225 C   0  0  0  0  0  0  0  0  0  0  0  0
   -9.4446    2.8304   26.1868 C   0  0  0  0  0  0  0  0  0  0  0  0
   -8.4697    5.3956   26.7238 C   0  0  0  0  0  0  0  0  0  0  0  0
   -9.6172    5.2111   25.9513 C   0  0  0  0  0  0  0  0  0  0  0  0
  -10.0424    3.9782   25.6873 C   0  0  0  0  0  0  0  0  0  0  0  0
   -7.7623    6.6413   27.0662 C   0  0  0  0  0  0  0  0  0  0  0  0
   -7.4952    1.8015   27.3897 C   0  0  0  0  0  0  0  0  0  0  0  0
   -6.1148    1.8928   27.7133 C   0  0  0  0  0  0  0  0  0  0  0  0
   -5.4123    0.7382   28.1698 C   0  0  0  0  0  0  0  0  0  0  0  0
   -6.0744   -0.4674   28.1333 C   0  0  0  0  0  0  0  0  0  0  0  0
   -8.0329    0.5320   27.3675 C   0  0  0  0  0  0  0  0  0  0  0  0
   -7.4077   -0.5325   27.7951 C   0  0  0  0  0  0  0  0  0  0  0  0
   -4.0902    0.8811   28.5083 N   0  0  0  0  0  0  0  0  0  0  0  0
   -3.4555   -0.0561   29.3186 C   0  0  0  0  0  0  0  0  0  0  0  0
   -3.0935    0.0908   30.4302 C   0  0  0  0  0  0  0  0  0  0  0  0
   -2.4256   -0.9292   31.2563 C   0  0  0  0  0  0  0  0  0  0  0  0
   -2.9131   -1.2133   28.5823 C   0  0  0  0  0  0  0  0  0  0  0  0
   -2.1903   -2.1920   29.2749 C   0  0  0  0  0  0  0  0  0  0  0  0
   -1.9460   -2.0204   30.6407 C   0  0  0  0  0  0  0  0  0  0  0  0
   -8.1307    7.8381   27.2251 N   0  0  0  0  0  0  0  0  0  0  0  0
   -2.2438   -0.6839   32.7504 C   0  0  0  0  0  0  0  0  0  0  0  0
   -1.0513   -0.9223   33.0767 F   0  0  0  0  0  0  0  0  0  0  0  0
   -2.5731    0.5739   33.0236 F   0  0  0  0  0  0  0  0  0  0  0  0
   -3.0992   -1.5050   33.3445 F   0  0  0  0  0  0  0  0  0  0  0  0
  4  7  1  0
  2  8  1  0
 10 14  1  0
 14 15  1  0
  7 21  3  0
 17 22  1  0
 22 23  1  0
 22 24  1  0
 22 25  1  0
 15 16  2  0
 16 17  1  0
 17 20  2  0
 20 19  1  0
 19 18  2  0
 18 15  1  0
  1  2  2  0
  2  3  1  0
  3  6  2  0
  6  5  1  0
  5  4  2  0
  4  1  1  0
  8  9  2  0
  9 10  1  0
 10 11  2  0
 11 13  1  0
 13 12  2  0
 12  8  1  0
M  END
$$$$
