No_8401-complexes_sdf/6BKW-FPZ/2024-09-17-14-21-01/
     RDKit          3D

  9  9  0  0  0  0  0  0  0  0999 V2000
   -7.2496    3.8871   27.4508 C   0  0  0  0  0  0  0  0  0  0  0  0
   -7.6161    2.7143   27.1523 C   0  0  0  0  0  0  0  0  0  0  0  0
   -8.6212    2.2239   26.4073 C   0  0  0  0  0  0  0  0  0  0  0  0
   -8.2540    4.9237   27.1711 C   0  0  0  0  0  0  0  0  0  0  0  0
   -8.0299    6.2902   27.5026 C   0  0  0  0  0  0  0  0  0  0  0  0
   -9.3752    4.6359   26.4536 C   0  0  0  0  0  0  0  0  0  0  0  0
   -9.6012    3.2991   26.1124 C   0  0  0  0  0  0  0  0  0  0  0  0
   -8.8605    7.3649   27.0343 C   0  0  0  0  0  0  0  0  0  0  0  0
   -6.4155    1.3857   27.6284 Cl  0  0  0  0  0  0  0  0  0  0  0  0
  4  5  1  0
  5  8  2  0
  2  9  1  0
  1  2  2  0
  2  3  1  0
  3  7  2  0
  7  6  1  0
  6  4  2  0
  4  1  1  0
M  END
$$$$
