No_8219-complexes_sdf/6BKW-FPZ/2024-09-17-14-21-01/
     RDKit          3D

 31 35  0  0  0  0  0  0  0  0999 V2000
   -7.2496    3.8871   27.4508 C   0  0  0  0  0  0  0  0  0  0  0  0
   -8.5096    4.0291   27.2770 C   0  0  0  0  0  0  0  0  0  0  0  0
   -9.2677    5.1714   27.5773 C   0  0  0  0  0  0  0  0  0  0  0  0
   -6.5711    2.6400   27.2842 C   0  0  0  0  0  0  0  0  0  0  0  0
   -7.2939    1.5094   27.0532 C   0  0  0  0  0  0  0  0  0  0  0  0
   -8.6122    1.6580   26.7575 C   0  0  2  0  0  0  0  0  0  0  0  0
   -9.2984    2.8495   26.9904 C   0  0  0  0  0  0  0  0  0  0  0  0
   -9.2193    6.1529   26.7038 C   0  0  0  0  0  0  0  0  0  0  0  0
   -6.5784    0.2706   26.8850 C   0  0  0  0  0  0  0  0  0  0  0  0
   -5.5239    0.0259   27.8145 C   0  0  0  0  0  0  0  0  0  0  0  0
   -4.8245   -0.7257   28.0421 C   0  0  0  0  0  0  0  0  0  0  0  0
   -3.9748   -0.9083   28.9386 C   0  0  0  0  0  0  0  0  0  0  0  0
   -3.6278    0.2023   29.8845 C   0  0  0  0  0  0  0  0  0  0  0  0
   -4.3598    1.3700   29.5535 C   0  0  0  0  0  0  0  0  0  0  0  0
   -5.2586    1.3097   28.6342 C   0  0  0  0  0  0  0  0  0  0  0  0
   -5.8314    2.5095   28.2650 N   0  0  0  0  0  0  0  0  0  0  0  0
   -8.6058    7.4468   27.1271 C   0  0  0  0  0  0  0  0  0  0  0  0
   -9.3130    5.9271   25.3416 C   0  0  0  0  0  0  0  0  0  0  0  0
   -9.4596    0.5097   26.3383 C   0  0  0  0  0  0  0  0  0  0  0  0
   -9.5072    0.0818   25.3176 C   0  0  0  0  0  0  0  0  0  0  0  0
   -8.9325    0.8944   24.1556 C   0  0  0  0  0  0  0  0  0  0  0  0
   -8.8959    0.5317   22.8048 C   0  0  0  0  0  0  0  0  0  0  0  0
   -9.2235   -0.8028   22.5119 C   0  0  0  0  0  0  0  0  0  0  0  0
   -9.7566   -1.6433   23.4709 C   0  0  0  0  0  0  0  0  0  0  0  0
   -9.8019   -1.2209   24.7397 C   0  0  0  0  0  0  0  0  0  0  0  0
  -10.6321    0.1037   27.2993 C   0  0  0  0  0  0  0  0  0  0  0  0
  -10.2799   -0.9976   28.1567 C   0  0  0  0  0  0  0  0  0  0  0  0
  -11.2146   -1.4936   29.0341 C   0  0  0  0  0  0  0  0  0  0  0  0
  -12.4404   -0.7721   29.1675 C   0  0  0  0  0  0  0  0  0  0  0  0
  -12.7031    0.3632   28.4192 C   0  0  0  0  0  0  0  0  0  0  0  0
  -11.7505    0.8002   27.5103 C   0  0  0  0  0  0  0  0  0  0  0  0
  1  2  1  0
  2  3  2  3
  1  4  1  0
  5  6  1  0
  2  7  1  0
  6  7  1  0
  3  8  1  0
  8 17  2  0
  8 18  1  0
  6 19  1  1
 19 26  1  0
 19 20  1  0
 10 11  1  0
 11 12  2  0
 12 13  1  0
 13 14  2  0
 14 15  1  0
 20 21  2  0
 21 22  1  0
 22 23  2  0
 23 24  1  0
 24 25  2  0
 25 20  1  0
 26 27  2  0
 27 28  1  0
 28 29  2  0
 29 30  1  0
 30 31  2  0
 31 26  1  0
  4  5  2  0
  5  9  1  0
  9 10  2  0
 10 15  1  0
 15 16  2  0
 16  4  1  0
M  END
$$$$
