No_8866-complexes_sdf/6BKW-FPZ/2024-09-17-14-21-01/
     RDKit          3D

 40 44  0  0  0  0  0  0  0  0999 V2000
   -7.9040    3.9820   27.1177 C   0  0  0  0  0  0  0  0  0  0  0  0
   -8.2057    2.8231   26.8733 C   0  0  0  0  0  0  0  0  0  0  0  0
   -8.7695    5.0740   26.7916 C   0  0  0  0  0  0  0  0  0  0  0  0
   -8.4337    6.4678   27.0913 C   0  0  0  0  0  0  0  0  0  0  0  0
   -9.3742    2.4311   26.2346 C   0  0  0  0  0  0  0  0  0  0  0  0
  -10.2395    3.4267   25.8887 C   0  0  0  0  0  0  0  0  0  0  0  0
   -9.9567    4.7548   26.1374 C   0  0  0  0  0  0  0  0  0  0  0  0
   -8.8469    7.3199   26.4450 F   0  0  0  0  0  0  0  0  0  0  0  0
   -8.7294    6.5551   28.4543 F   0  0  0  0  0  0  0  0  0  0  0  0
   -7.0057    6.5672   27.1780 F   0  0  0  0  0  0  0  0  0  0  0  0
   -7.2391    1.6879   27.3041 C   0  0  0  0  0  0  0  0  0  0  0  0
   -7.5526    0.3205   27.2202 C   0  0  0  0  0  0  0  0  0  0  0  0
   -8.8016   -0.0906   26.7372 C   0  0  0  0  0  0  0  0  0  0  0  0
   -9.7397    1.0084   26.1658 C   0  0  0  0  0  0  0  0  0  0  0  0
   -6.5515   -0.5645   27.7188 C   0  0  0  0  0  0  0  0  0  0  0  0
   -5.2826   -0.1643   27.9171 C   0  0  0  0  0  0  0  0  0  0  0  0
   -5.0397    1.2789   27.9567 C   0  0  0  0  0  0  0  0  0  0  0  0
   -5.8449    2.1871   27.7452 C   0  0  0  0  0  0  0  0  0  0  0  0
  -10.9842    0.5889   25.6070 C   0  0  0  0  0  0  0  0  0  0  0  0
  -11.1961   -0.5563   25.4620 C   0  0  0  0  0  0  0  0  0  0  0  0
  -10.3087   -1.6058   25.9907 C   0  0  0  0  0  0  0  0  0  0  0  0
   -9.1315   -1.3470   26.6107 C   0  0  0  0  0  0  0  0  0  0  0  0
   -4.2670   -1.0736   28.4738 C   0  0  0  0  0  0  0  0  0  0  0  0
   -3.2332   -0.7594   28.5843 N   0  0  0  0  0  0  0  0  0  0  0  0
   -4.6437   -2.2418   28.7781 O   0  0  0  0  0  0  0  0  0  0  0  0
   -2.0421   -1.6403   29.0873 C   0  0  0  0  0  0  0  0  0  0  0  0
   -2.0234   -2.7636   28.8255 C   0  0  0  0  0  0  0  0  0  0  0  0
   -2.3613   -3.3487   27.9922 C   0  0  0  0  0  0  0  0  0  0  0  0
   -2.7104   -2.6309   26.7621 C   0  0  1  0  0  0  0  0  0  0  0  0
   -1.7348   -1.9105   26.2053 C   0  0  0  0  0  0  0  0  0  0  0  0
   -3.8475   -2.9040   25.9116 C   0  0  0  0  0  0  0  0  0  0  0  0
   -4.0944   -4.1147   25.4139 C   0  0  0  0  0  0  0  0  0  0  0  0
   -5.2261   -4.3407   24.5654 C   0  0  0  0  0  0  0  0  0  0  0  0
   -5.5717   -5.6475   24.1816 C   0  0  0  0  0  0  0  0  0  0  0  0
   -6.7606   -5.7939   23.4438 C   0  0  0  0  0  0  0  0  0  0  0  0
   -7.5332   -4.6757   23.0927 C   0  0  0  0  0  0  0  0  0  0  0  0
   -8.7080   -4.8843   22.3614 C   0  0  0  0  0  0  0  0  0  0  0  0
   -6.9584   -3.4207   23.5714 C   0  0  0  0  0  0  0  0  0  0  0  0
   -5.8784   -3.2580   24.2984 C   0  0  0  0  0  0  0  0  0  0  0  0
   -9.3923   -5.6247   22.2373 O   0  0  0  0  0  0  0  0  0  0  0  0
  3  4  1  0
  4  8  1  0
  4  9  1  0
  4 10  1  0
  2 11  1  0
 12 13  1  0
  5 14  1  0
 16 23  1  0
 23 24  1  0
 23 25  2  0
 24 26  1  0
 26 27  1  0
 27 28  2  3
 28 29  1  0
 29 30  1  6
 29 31  1  0
 31 32  2  3
 32 33  1  0
 36 37  1  0
 37 40  2  0
  1  2  2  0
  2  5  1  0
  5  6  2  0
  6  7  1  0
  7  3  2  0
  3  1  1  0
 11 12  2  0
 12 15  1  0
 15 16  2  0
 16 17  1  0
 17 18  2  0
 18 11  1  0
 13 14  2  0
 14 19  1  0
 19 20  2  0
 20 21  1  0
 21 22  2  0
 22 13  1  0
 33 34  2  0
 34 35  1  0
 35 36  2  0
 36 38  1  0
 38 39  2  0
 39 33  1  0
M  END
$$$$
