No_8848-complexes_sdf/6BKW-FPZ/2024-09-17-14-21-01/
     RDKit          3D

 23 25  0  0  0  0  0  0  0  0999 V2000
   -7.9040    3.9820   27.1177 C   0  0  0  0  0  0  0  0  0  0  0  0
   -7.8663    4.8694   27.9238 C   0  0  0  0  0  0  0  0  0  0  0  0
   -9.0501    3.8017   26.2617 C   0  0  0  0  0  0  0  0  0  0  0  0
   -9.1826    2.7026   25.3575 C   0  0  0  0  0  0  0  0  0  0  0  0
   -8.6940    6.0131   27.8614 C   0  0  0  0  0  0  0  0  0  0  0  0
   -9.7382    4.9916   26.1006 C   0  0  0  0  0  0  0  0  0  0  0  0
   -9.6356    6.0254   26.9506 C   0  0  0  0  0  0  0  0  0  0  0  0
  -10.1492    1.9257   25.7901 C   0  0  0  0  0  0  0  0  0  0  0  0
  -10.1956    0.7343   25.1591 C   0  0  0  0  0  0  0  0  0  0  0  0
   -9.7371   -0.2785   25.8382 C   0  0  0  0  0  0  0  0  0  0  0  0
   -9.3909   -1.5017   25.2615 C   0  0  0  0  0  0  0  0  0  0  0  0
   -9.8085   -1.7078   23.9428 C   0  0  0  0  0  0  0  0  0  0  0  0
  -10.3337   -0.6897   23.1828 C   0  0  0  0  0  0  0  0  0  0  0  0
  -10.4111    0.5791   23.7540 C   0  0  0  0  0  0  0  0  0  0  0  0
  -11.2641    2.2371   26.5721 C   0  0  0  0  0  0  0  0  0  0  0  0
   -7.0036    2.7640   27.3388 C   0  0  0  0  0  0  0  0  0  0  0  0
   -5.8072    2.9975   27.6168 F   0  0  0  0  0  0  0  0  0  0  0  0
   -7.6068    1.9035   28.3049 F   0  0  0  0  0  0  0  0  0  0  0  0
  -11.5555    1.4209   27.5629 C   0  0  0  0  0  0  0  0  0  0  0  0
  -12.6084    1.7570   28.5806 C   0  0  0  0  0  0  0  0  0  0  0  0
  -13.1272    3.0763   28.4977 C   0  0  0  0  0  0  0  0  0  0  0  0
  -12.7464    3.8950   27.4425 C   0  0  0  0  0  0  0  0  0  0  0  0
  -11.8314    3.5302   26.5638 C   0  0  0  0  0  0  0  0  0  0  0  0
  3  4  1  0
  4  8  1  0
  8  9  1  0
  8 15  1  0
  1 16  1  0
 16 17  1  0
 16 18  1  0
 15 19  2  0
 19 20  1  0
 20 21  2  0
 21 22  1  0
 22 23  2  0
 23 15  1  0
  9 10  2  0
 10 11  1  0
 11 12  2  0
 12 13  1  0
 13 14  2  0
 14  9  1  0
  1  2  2  0
  2  5  1  0
  5  7  2  0
  7  6  1  0
  6  3  2  0
  3  1  1  0
M  END
$$$$
