No_8952-complexes_sdf/6BKW-FPZ/2024-09-17-14-21-01/
     RDKit          3D

 19 20  0  0  0  0  0  0  0  0999 V2000
   -7.2496    3.8871   27.4508 C   0  0  0  0  0  0  0  0  0  0  0  0
   -8.5096    4.0291   27.2770 C   0  0  0  0  0  0  0  0  0  0  0  0
   -9.2669    5.1645   27.5845 C   0  0  0  0  0  0  0  0  0  0  0  0
  -10.6621    5.2321   27.4284 C   0  0  0  0  0  0  0  0  0  0  0  0
   -9.4015    2.8584   27.0493 C   0  0  0  0  0  0  0  0  0  0  0  0
   -8.7012    1.6337   26.7435 C   0  0  0  0  0  0  0  0  0  0  0  0
   -6.5749    2.6341   27.3715 C   0  0  0  0  0  0  0  0  0  0  0  0
   -7.2987    1.5648   27.0232 C   0  0  0  0  0  0  0  0  0  0  0  0
   -8.5234    6.4234   27.7893 C   0  0  0  0  0  0  0  0  0  0  0  0
   -6.6315    0.2800   26.8076 C   0  0  0  0  0  0  0  0  0  0  0  0
   -6.9162   -0.5030   26.0116 O   0  0  0  0  0  0  0  0  0  0  0  0
   -5.3408    0.1887   27.5448 N   0  0  0  0  0  0  0  0  0  0  0  0
   -4.7091   -0.7640   27.7760 C   0  0  0  0  0  0  0  0  0  0  0  0
   -4.5009   -1.1563   28.8788 C   0  0  0  0  0  0  0  0  0  0  0  0
   -4.3669   -0.1470   30.0550 C   0  0  0  0  0  0  0  0  0  0  0  0
   -4.1914   -0.5040   31.4106 C   0  0  0  0  0  0  0  0  0  0  0  0
   -4.2916   -1.7338   31.8328 C   0  0  0  0  0  0  0  0  0  0  0  0
   -4.4471   -2.7481   30.8371 C   0  0  0  0  0  0  0  0  0  0  0  0
   -4.0511   -2.3362   29.5548 C   0  0  0  0  0  0  0  0  0  0  0  0
  2  3  1  0
  3  4  1  0
  3  9  1  0
  8 10  1  0
 10 11  2  0
 10 12  1  0
 12 13  1  0
 13 14  1  0
 14 15  2  0
 15 16  1  0
 16 17  2  0
 17 18  1  0
 18 19  2  0
 19 14  1  0
  1  2  2  0
  2  5  1  0
  5  6  2  0
  6  8  1  0
  8  7  2  0
  7  1  1  0
M  END
$$$$
