No_8097-complexes_sdf/6BKW-FPZ/2024-09-17-14-21-01/
     RDKit          3D

 21 23  0  0  0  0  0  0  0  0999 V2000
   -7.9040    3.9820   27.1177 C   0  0  0  0  0  0  0  0  0  0  0  0
   -7.8663    4.8694   27.9238 C   0  0  0  0  0  0  0  0  0  0  0  0
   -7.4547    2.7080   27.4594 C   0  0  0  0  0  0  0  0  0  0  0  0
   -7.9337    1.5946   26.8372 C   0  0  0  0  0  0  0  0  0  0  0  0
   -8.9032    1.7881   25.8510 C   0  0  0  0  0  0  0  0  0  0  0  0
   -9.3787    2.9871   25.5530 C   0  0  0  0  0  0  0  0  0  0  0  0
   -8.9781    4.0300   26.2200 C   0  0  0  0  0  0  0  0  0  0  0  0
   -8.2454    6.2265   27.6332 N   0  0  0  0  0  0  0  0  0  0  0  0
   -9.1863    6.5523   26.7292 C   0  0  0  0  0  0  0  0  0  0  0  0
   -9.5464    5.3954   25.9189 C   0  0  0  0  0  0  0  0  0  0  0  0
   -7.3252    0.2709   27.1267 C   0  0  0  0  0  0  0  0  0  0  0  0
   -6.0491    0.1506   27.6477 C   0  0  0  0  0  0  0  0  0  0  0  0
   -5.1150    1.0945   27.5651 C   0  0  0  0  0  0  0  0  0  0  0  0
   -3.7928    0.8975   28.1695 C   0  0  0  0  0  0  0  0  0  0  0  0
   -3.5254   -0.2591   28.8225 C   0  0  0  0  0  0  0  0  0  0  0  0
   -4.5007   -1.2219   28.9466 C   0  0  0  0  0  0  0  0  0  0  0  0
   -5.7567   -1.0415   28.3858 C   0  0  0  0  0  0  0  0  0  0  0  0
   -8.1346   -0.8714   26.8369 C   0  0  0  0  0  0  0  0  0  0  0  0
   -7.6891   -1.8139   26.1469 C   0  0  0  0  0  0  0  0  0  0  0  0
   -8.5198   -2.9486   25.8696 C   0  0  0  0  0  0  0  0  0  0  0  0
   -9.8143   -2.9174   26.3327 C   0  0  0  0  0  0  0  0  0  0  0  0
  4 11  1  0
 11 12  1  0
 11 18  1  0
 18 19  2  3
 19 20  1  0
 20 21  2  0
 12 13  2  0
 13 14  1  0
 14 15  2  0
 15 16  1  0
 16 17  2  0
 17 12  1  0
  1  2  2  0
  2  8  1  0
  8  9  2  0
  9 10  1  0
 10  7  2  0
  1  3  1  0
  3  4  2  0
  4  5  1  0
  5  6  2  0
  6  7  1  0
  7  1  1  0
M  END
$$$$
