No_8359-complexes_sdf/6BKW-FPZ/2024-09-17-14-21-01/
     RDKit          3D

 25 27  0  0  0  0  0  0  0  0999 V2000
   -7.9040    3.9820   27.1177 C   0  0  0  0  0  0  0  0  0  0  0  0
   -8.2057    2.8231   26.8733 C   0  0  0  0  0  0  0  0  0  0  0  0
   -7.4766    1.7477   27.4593 C   0  0  0  0  0  0  0  0  0  0  0  0
   -8.7468    5.1251   26.6967 C   0  0  0  0  0  0  0  0  0  0  0  0
   -9.7234    4.8589   25.8202 C   0  0  0  0  0  0  0  0  0  0  0  0
   -9.9711    3.5858   25.4266 C   0  0  0  0  0  0  0  0  0  0  0  0
   -9.2266    2.4957   25.9600 C   0  0  0  0  0  0  0  0  0  0  0  0
   -6.1241    1.9216   27.8574 C   0  0  0  0  0  0  0  0  0  0  0  0
   -5.4248    0.7985   28.3602 C   0  0  0  0  0  0  0  0  0  0  0  0
   -5.9324   -0.4517   28.3727 C   0  0  0  0  0  0  0  0  0  0  0  0
   -7.8680    0.3890   27.4333 C   0  0  0  0  0  0  0  0  0  0  0  0
   -7.2076   -0.6217   27.9501 C   0  0  0  0  0  0  0  0  0  0  0  0
   -8.4174    6.5135   27.1003 C   0  0  0  0  0  0  0  0  0  0  0  0
   -8.5244    7.4819   26.4478 O   0  0  0  0  0  0  0  0  0  0  0  0
   -7.7571    6.5044   28.3145 O   0  0  0  0  0  0  0  0  0  0  0  0
   -4.1213    1.0932   28.7720 F   0  0  0  0  0  0  0  0  0  0  0  0
  -11.0199    3.3254   24.4308 C   0  0  0  0  0  0  0  0  0  0  0  0
  -12.2079    3.1262   24.7121 N   0  0  0  0  0  0  0  0  0  0  0  0
  -12.6637    2.7836   25.7946 C   0  0  0  0  0  0  0  0  0  0  0  0
  -13.3514    3.1708   26.5709 C   0  0  0  0  0  0  0  0  0  0  0  0
  -13.7390    2.7013   27.9264 C   0  0  0  0  0  0  0  0  0  0  0  0
  -14.3422    3.3435   28.9879 C   0  0  0  0  0  0  0  0  0  0  0  0
  -14.8111    4.6615   28.7145 C   0  0  0  0  0  0  0  0  0  0  0  0
  -14.5579    5.2739   27.5072 C   0  0  0  0  0  0  0  0  0  0  0  0
  -13.8034    4.6781   26.5374 C   0  0  0  0  0  0  0  0  0  0  0  0
  2  3  1  0
  4 13  1  0
 13 14  2  0
 13 15  1  0
  9 16  1  0
  6 17  1  0
 17 18  1  0
 18 19  1  0
 19 20  1  0
  3  8  2  0
  8  9  1  0
  9 10  2  0
 10 12  1  0
 12 11  2  0
 11  3  1  0
  1  2  2  0
  2  7  1  0
  7  6  2  0
  6  5  1  0
  5  4  2  0
  4  1  1  0
 20 21  2  0
 21 22  1  0
 22 23  2  0
 23 24  1  0
 24 25  2  0
 25 20  1  0
M  END
$$$$
