No_8507-complexes_sdf/6BKW-FPZ/2024-09-17-14-21-01/
     RDKit          3D

 15 15  0  0  0  0  0  0  0  0999 V2000
   -7.7129    4.2099   27.0854 C   0  0  0  0  0  0  0  0  0  0  0  0
   -8.2112    3.0637   26.9225 C   0  0  0  0  0  0  0  0  0  0  0  0
   -7.5138    1.9223   27.4249 C   0  0  0  0  0  0  0  0  0  0  0  0
   -8.5309    5.4147   26.8151 C   0  0  0  0  0  0  0  0  0  0  0  0
   -9.6817    5.2393   26.1100 C   0  0  0  0  0  0  0  0  0  0  0  0
  -10.1032    3.9957   25.8534 C   0  0  0  0  0  0  0  0  0  0  0  0
   -9.4034    2.8430   26.2573 C   0  0  0  0  0  0  0  0  0  0  0  0
   -6.2445    2.0060   27.8662 N   0  0  0  0  0  0  0  0  0  0  0  0
   -5.5344    0.8568   28.2200 C   0  0  0  0  0  0  0  0  0  0  0  0
   -6.1293   -0.3305   28.0871 C   0  0  0  0  0  0  0  0  0  0  0  0
   -8.1529    0.7522   27.4447 O   0  0  0  0  0  0  0  0  0  0  0  0
   -5.4263   -1.5457   28.4930 C   0  0  0  0  0  0  0  0  0  0  0  0
   -6.1674   -2.7236   28.4044 C   0  0  0  0  0  0  0  0  0  0  0  0
   -7.4741   -2.6991   27.8870 C   0  0  0  0  0  0  0  0  0  0  0  0
   -8.0868   -1.5437   27.5064 C   0  0  0  0  0  0  0  0  0  0  0  0
  2  3  1  0
  3  8  1  0
  8  9  2  3
  9 10  1  0
  3 11  2  0
 10 12  1  0
 12 13  2  3
 13 14  1  0
 14 15  2  0
  1  2  2  0
  2  7  1  0
  7  6  2  0
  6  5  1  0
  5  4  2  0
  4  1  1  0
M  END
$$$$
