No_8528-complexes_sdf/6BKW-FPZ/2024-09-17-14-21-01/
     RDKit          3D

 26 28  0  0  0  0  0  0  0  0999 V2000
   -7.9040    3.9820   27.1177 C   0  0  0  0  0  0  0  0  0  0  0  0
   -7.8663    4.8694   27.9238 C   0  0  0  0  0  0  0  0  0  0  0  0
   -9.0491    3.8523   26.2542 C   0  0  0  0  0  0  0  0  0  0  0  0
   -8.7661    5.9491   27.9690 C   0  0  0  0  0  0  0  0  0  0  0  0
   -9.9295    4.8502   26.2323 C   0  0  0  0  0  0  0  0  0  0  0  0
   -9.8077    5.9288   27.0933 C   0  0  0  0  0  0  0  0  0  0  0  0
   -6.9606    2.7994   27.1981 C   0  0  0  0  0  0  0  0  0  0  0  0
   -5.8113    2.9359   27.9439 C   0  0  0  0  0  0  0  0  0  0  0  0
   -4.9230    1.8028   28.0387 C   0  0  0  0  0  0  0  0  0  0  0  0
   -3.8025    1.7414   28.7091 C   0  0  0  0  0  0  0  0  0  0  0  0
   -5.5335    0.5996   27.4017 C   0  0  0  0  0  0  0  0  0  0  0  0
   -6.7775    0.4788   26.8558 C   0  0  0  0  0  0  0  0  0  0  0  0
   -7.5399    1.6026   26.7961 C   0  0  0  0  0  0  0  0  0  0  0  0
   -3.0896    0.4569   28.7734 C   0  0  0  0  0  0  0  0  0  0  0  0
   -3.5302   -0.7008   28.1680 C   0  0  0  0  0  0  0  0  0  0  0  0
   -4.7405   -0.6511   27.5510 C   0  0  2  0  0  0  0  0  0  0  0  0
  -10.9996    4.7764   25.2322 C   0  0  0  0  0  0  0  0  0  0  0  0
  -12.1211    4.4665   25.5051 O   0  0  0  0  0  0  0  0  0  0  0  0
  -10.6235    4.8672   23.9164 O   0  0  0  0  0  0  0  0  0  0  0  0
   -5.0452   -1.8526   26.9042 C   0  0  0  0  0  0  0  0  0  0  0  0
   -6.0196   -2.4988   27.2562 F   0  0  0  0  0  0  0  0  0  0  0  0
   -3.9397   -2.6366   26.8445 F   0  0  0  0  0  0  0  0  0  0  0  0
   -5.2231   -1.5951   25.5023 F   0  0  0  0  0  0  0  0  0  0  0  0
   -5.3768   -1.0873   28.7948 F   0  0  0  0  0  0  0  0  0  0  0  0
   -2.4541   -1.5313   27.9605 C   0  0  0  0  0  0  0  0  0  0  0  0
   -1.0648   -1.2848   28.4727 C   0  0  0  0  0  0  0  0  0  0  0  0
  1  2  2  0
  1  3  1  0
  2  4  1  0
  3  5  2  0
  4  6  2  0
  5  6  1  0
  1  7  1  0
  7  8  2  0
  8  9  1  0
  9 10  2  0
  9 11  1  0
 11 12  2  0
  7 13  1  0
 12 13  1  0
 10 14  1  0
 14 15  2  0
 11 16  1  0
 15 16  1  0
  5 17  1  0
 17 18  2  0
 17 19  1  0
 16 20  1  0
 20 21  1  0
 20 22  1  0
 20 23  1  0
 16 24  1  1
 15 25  1  0
 25 26  1  0
M  END
$$$$
