No_8844-complexes_sdf/6BKW-FPZ/2024-09-17-14-21-01/
     RDKit          3D

 14 15  0  0  0  0  0  0  0  0999 V2000
   -7.7129    4.2099   27.0854 C   0  0  0  0  0  0  0  0  0  0  0  0
   -7.7814    5.1722   27.8972 C   0  0  0  0  0  0  0  0  0  0  0  0
   -8.8776    3.8408   26.3416 C   0  0  0  0  0  0  0  0  0  0  0  0
   -9.9844    4.6492   26.4743 C   0  0  0  0  0  0  0  0  0  0  0  0
   -8.8033    6.1375   27.8728 C   0  0  0  0  0  0  0  0  0  0  0  0
   -9.9554    5.8280   27.1737 C   0  0  0  0  0  0  0  0  0  0  0  0
   -9.0179    2.7330   25.6233 F   0  0  0  0  0  0  0  0  0  0  0  0
  -11.0802    4.3695   25.7101 O   0  0  0  0  0  0  0  0  0  0  0  0
  -10.9144    4.0614   24.3784 C   0  0  0  0  0  0  0  0  0  0  0  0
  -11.1104    5.0715   23.4854 C   0  0  0  0  0  0  0  0  0  0  0  0
  -10.9885    4.7711   22.0630 C   0  0  0  0  0  0  0  0  0  0  0  0
  -10.6116    3.4356   21.7317 C   0  0  0  0  0  0  0  0  0  0  0  0
  -10.3140    2.4740   22.6757 C   0  0  0  0  0  0  0  0  0  0  0  0
  -10.4667    2.8428   24.1309 C   0  0  0  0  0  0  0  0  0  0  0  0
  3  7  1  0
  4  8  1  0
  8  9  1  0
  9 10  2  0
 10 11  1  0
 11 12  2  0
 12 13  1  0
 13 14  2  0
 14  9  1  0
  1  2  2  0
  2  5  1  0
  5  6  2  0
  6  4  1  0
  4  3  2  0
  3  1  1  0
M  END
$$$$
