No_8245-complexes_sdf/6BKW-FPZ/2024-09-17-14-21-01/
     RDKit          3D

 40 45  0  0  0  0  0  0  0  0999 V2000
   -7.7129    4.2099   27.0854 C   0  0  0  0  0  0  0  0  0  0  0  0
   -7.7814    5.1722   27.8972 C   0  0  0  0  0  0  0  0  0  0  0  0
   -8.7889    3.2468   27.2220 C   0  0  0  0  0  0  0  0  0  0  0  0
   -8.5940    1.9755   26.6525 C   0  0  0  0  0  0  0  0  0  0  0  0
   -9.4990    1.3567   25.9026 C   0  0  0  0  0  0  0  0  0  0  0  0
   -9.0214    5.8041   28.2929 C   0  0  0  0  0  0  0  0  0  0  0  0
   -9.8944    3.6512   27.9113 C   0  0  0  0  0  0  0  0  0  0  0  0
  -10.0302    4.8964   28.4608 C   0  0  0  0  0  0  0  0  0  0  0  0
   -9.2307    0.1444   25.2955 C   0  0  0  0  0  0  0  0  0  0  0  0
   -7.9858   -0.4240   25.4273 C   0  0  0  0  0  0  0  0  0  0  0  0
   -7.0309    0.1094   26.2658 C   0  0  0  0  0  0  0  0  0  0  0  0
   -7.2674    1.3501   26.8939 C   0  0  0  0  0  0  0  0  0  0  0  0
  -11.0559    2.6754   27.9959 C   0  0  0  0  0  0  0  0  0  0  0  0
  -12.3467    3.0509   27.5483 C   0  0  0  0  0  0  0  0  0  0  0  0
  -13.2756    2.2062   27.3485 C   0  0  0  0  0  0  0  0  0  0  0  0
  -12.9891    0.9091   27.7168 C   0  0  0  0  0  0  0  0  0  0  0  0
  -11.7646    0.4153   28.1641 C   0  0  0  0  0  0  0  0  0  0  0  0
  -10.7323    1.3676   28.2722 C   0  0  0  0  0  0  0  0  0  0  0  0
  -11.5279   -0.9923   28.5051 C   0  0  0  0  0  0  0  0  0  0  0  0
  -11.8245   -1.5860   29.4298 C   0  0  0  0  0  0  0  0  0  0  0  0
  -11.4334   -2.9596   29.7612 C   0  0  0  0  0  0  0  0  0  0  0  0
  -10.6370   -3.5929   28.8208 C   0  0  0  0  0  0  0  0  0  0  0  0
  -10.2410   -2.9450   27.6831 C   0  0  0  0  0  0  0  0  0  0  0  0
  -10.5995   -1.6129   27.5118 C   0  0  0  0  0  0  0  0  0  0  0  0
  -10.1789   -0.5115   24.3872 C   0  0  0  0  0  0  0  0  0  0  0  0
  -10.1746   -0.1179   23.0990 C   0  0  0  0  0  0  0  0  0  0  0  0
  -10.8157    0.4675   22.5787 C   0  0  0  0  0  0  0  0  0  0  0  0
  -10.6862    0.8731   21.1152 C   0  0  0  0  0  0  0  0  0  0  0  0
   -9.6596    0.1951   20.4939 C   0  0  0  0  0  0  0  0  0  0  0  0
   -9.0867   -0.6567   22.0969 C   0  0  2  0  0  0  0  0  0  0  0  0
   -8.0632   -1.4738   22.0889 C   0  0  0  0  0  0  0  0  0  0  0  0
   -7.8983   -2.4444   21.1579 C   0  0  0  0  0  0  0  0  0  0  0  0
   -6.6947   -3.2320   21.1326 C   0  0  0  0  0  0  0  0  0  0  0  0
   -5.7960   -3.0694   22.1473 C   0  0  0  0  0  0  0  0  0  0  0  0
   -5.9772   -2.0661   23.1132 C   0  0  0  0  0  0  0  0  0  0  0  0
   -7.0206   -1.2015   23.0354 C   0  0  0  0  0  0  0  0  0  0  0  0
  -11.4851    1.7720   20.2807 C   0  0  0  0  0  0  0  0  0  0  0  0
  -12.5790    4.5293   27.1638 C   0  0  0  0  0  0  0  0  0  0  0  0
  -12.2574    2.3952   20.9713 O   0  0  0  0  0  0  0  0  0  0  0  0
  -11.8781    3.3988   21.7155 C   0  0  0  0  0  0  0  0  0  0  0  0
  3  4  1  0
  7 13  1  0
 17 19  1  0
  9 25  1  0
 25 26  1  0
 26 27  2  0
 27 28  1  0
 28 29  2  0
 26 30  1  0
 29 30  1  0
 30 31  1  6
 28 37  1  0
 14 38  1  0
 37 39  1  0
 39 40  1  0
 31 32  2  0
 32 33  1  0
 33 34  2  0
 34 35  1  0
 35 36  2  0
 36 31  1  0
  4  5  2  0
  5  9  1  0
  9 10  2  0
 10 11  1  0
 11 12  2  0
 12  4  1  0
 19 20  2  0
 20 21  1  0
 21 22  2  0
 22 23  1  0
 23 24  2  0
 24 19  1  0
  1  2  2  0
  2  6  1  0
  6  8  2  0
  8  7  1  0
  7  3  2  0
  3  1  1  0
 13 14  2  0
 14 15  1  0
 15 16  2  0
 16 17  1  0
 17 18  2  0
 18 13  1  0
M  END
$$$$
