No_8991-complexes_sdf/6BKW-FPZ/2024-09-17-14-21-01/
     RDKit          3D

 24 27  0  0  0  0  0  0  0  0999 V2000
   -7.9040    3.9820   27.1177 C   0  0  0  0  0  0  0  0  0  0  0  0
   -7.8663    4.8694   27.9238 C   0  0  0  0  0  0  0  0  0  0  0  0
   -9.0491    3.8523   26.2542 C   0  0  0  0  0  0  0  0  0  0  0  0
   -8.7661    5.9491   27.9690 C   0  0  0  0  0  0  0  0  0  0  0  0
   -9.9279    4.8544   26.1938 C   0  0  0  0  0  0  0  0  0  0  0  0
   -9.8044    5.9413   27.0782 C   0  0  0  0  0  0  0  0  0  0  0  0
   -9.0655    2.7040   25.3098 C   0  0  0  0  0  0  0  0  0  0  0  0
  -10.0571    2.7131   24.3249 C   0  0  0  0  0  0  0  0  0  0  0  0
  -10.8712    3.8836   24.2023 C   0  0  0  0  0  0  0  0  0  0  0  0
  -10.8771    4.8333   25.1263 C   0  0  0  0  0  0  0  0  0  0  0  0
  -11.8985    3.8176   23.1360 C   0  0  0  0  0  0  0  0  0  0  0  0
  -11.4882    3.9169   21.9511 C   0  0  0  0  0  0  0  0  0  0  0  0
  -12.2108    3.7190   20.8242 C   0  0  0  0  0  0  0  0  0  0  0  0
  -13.2377    3.8430   23.4471 C   0  0  0  0  0  0  0  0  0  0  0  0
  -14.1589    3.7852   22.3295 C   0  0  0  0  0  0  0  0  0  0  0  0
  -13.6359    3.7703   21.0755 C   0  0  0  0  0  0  0  0  0  0  0  0
   -6.9711    2.9231   27.2302 N   0  0  0  0  0  0  0  0  0  0  0  0
   -5.7468    3.0275   27.5131 C   0  0  0  0  0  0  0  0  0  0  0  0
   -5.0561    1.7695   27.8520 C   0  0  0  0  0  0  0  0  0  0  0  0
   -5.6992    0.5790   27.8113 C   0  0  0  0  0  0  0  0  0  0  0  0
   -7.2935    1.4668   27.4654 C   0  0  0  0  0  0  0  0  0  0  0  0
   -5.6643   -0.6399   27.9226 C   0  0  0  0  0  0  0  0  0  0  0  0
   -5.1791   -0.9330   28.8342 O   0  0  0  0  0  0  0  0  0  0  0  0
   -6.1937   -1.4131   27.0242 O   0  0  0  0  0  0  0  0  0  0  0  0
  9 11  1  0
  1 17  1  0
 17 18  1  0
 18 19  2  0
 19 20  1  0
 17 21  1  0
 20 21  1  0
 20 22  1  0
 22 23  2  0
 22 24  1  0
  5 10  2  0
 10  9  1  0
  9  8  2  0
  8  7  1  0
  7  3  2  0
  1  2  2  0
  2  4  1  0
  4  6  2  0
  6  5  1  0
  5  3  1  0
  3  1  1  0
 11 12  2  0
 12 13  1  0
 13 16  2  0
 16 15  1  0
 15 14  2  0
 14 11  1  0
M  END
$$$$
