No_8511-complexes_sdf/6BKW-FPZ/2024-09-17-14-21-01/
     RDKit          3D

 16 17  0  0  0  0  0  0  0  0999 V2000
   -7.9040    3.9820   27.1177 C   0  0  2  0  0  0  0  0  0  0  0  0
   -9.0711    4.3164   27.0630 C   0  0  0  0  0  0  0  0  0  0  0  0
   -9.8698    3.9665   25.9495 C   0  0  0  0  0  0  0  0  0  0  0  0
   -7.0332    4.5030   28.2025 C   0  0  0  0  0  0  0  0  0  0  0  0
   -9.4357    2.9501   25.1393 C   0  0  2  0  0  0  0  0  0  0  0  0
  -10.2810    2.6266   24.0411 C   0  0  0  0  0  0  0  0  0  0  0  0
   -7.7787    5.4357   28.8257 N   0  0  0  0  0  0  0  0  0  0  0  0
   -9.0362    5.3819   28.0762 C   0  0  0  0  0  0  0  0  0  0  0  0
  -11.2749    3.4805   23.6196 C   0  0  0  0  0  0  0  0  0  0  0  0
  -12.0124    3.1011   22.5139 C   0  0  0  0  0  0  0  0  0  0  0  0
  -11.6629    2.0373   21.7445 C   0  0  0  0  0  0  0  0  0  0  0  0
   -9.9958    1.5642   23.1751 C   0  0  0  0  0  0  0  0  0  0  0  0
  -10.6279    1.2714   22.0588 C   0  0  0  0  0  0  0  0  0  0  0  0
   -8.5054    2.0314   25.6422 C   0  0  0  0  0  0  0  0  0  0  0  0
   -7.2438    2.3044   26.3977 Br  0  0  0  0  0  0  0  0  0  0  0  0
   -7.1776    4.8356   26.2040 F   0  0  0  0  0  0  0  0  0  0  0  0
  1  2  1  0
  2  3  2  3
  1  4  1  0
  3  5  1  0
  5  6  1  0
  4  7  2  0
  2  8  1  0
  7  8  1  0
  5 14  1  1
 14 15  1  0
  1 16  1  6
  6  9  2  0
  9 10  1  0
 10 11  2  0
 11 13  1  0
 13 12  2  0
 12  6  1  0
M  END
$$$$
