No_8597-complexes_sdf/6BKW-FPZ/2024-09-17-14-21-01/
     RDKit          3D

 40 44  0  0  0  0  0  0  0  0999 V2000
   -7.2496    3.8871   27.4508 C   0  0  0  0  0  0  0  0  0  0  0  0
   -7.6161    2.7143   27.1523 C   0  0  0  0  0  0  0  0  0  0  0  0
   -7.1619    1.8631   27.5232 C   0  0  2  0  0  0  0  0  0  0  0  0
   -8.0036    5.1085   27.2100 C   0  0  0  0  0  0  0  0  0  0  0  0
   -9.0764    5.1562   26.4023 C   0  0  0  0  0  0  0  0  0  0  0  0
   -9.5423    3.9741   25.8512 C   0  0  0  0  0  0  0  0  0  0  0  0
   -8.8464    2.7352   26.2619 C   0  0  0  0  0  0  0  0  0  0  0  0
   -5.7683    1.7949   28.0890 C   0  0  0  0  0  0  0  0  0  0  0  0
   -4.7572    1.3372   27.5633 C   0  0  0  0  0  0  0  0  0  0  0  0
   -3.9528    0.5445   28.1951 C   0  0  0  0  0  0  0  0  0  0  0  0
   -2.8825   -0.1885   27.5559 C   0  0  0  0  0  0  0  0  0  0  0  0
   -2.0306   -0.9761   28.2564 C   0  0  0  0  0  0  0  0  0  0  0  0
   -2.1394   -1.1356   29.6732 C   0  0  0  0  0  0  0  0  0  0  0  0
   -3.1460   -0.4315   30.3366 C   0  0  0  0  0  0  0  0  0  0  0  0
   -3.9985    0.4065   29.6853 C   0  0  0  0  0  0  0  0  0  0  0  0
   -7.4936    6.4372   27.8318 C   0  0  0  0  0  0  0  0  0  0  0  0
   -7.6480    0.4111   27.3966 C   0  0  0  0  0  0  0  0  0  0  0  0
   -8.6972    0.0116   28.0898 C   0  0  0  0  0  0  0  0  0  0  0  0
   -9.3973   -1.1124   27.8619 C   0  0  0  0  0  0  0  0  0  0  0  0
   -8.8177   -2.0510   27.0058 C   0  0  0  0  0  0  0  0  0  0  0  0
   -7.6673   -1.7418   26.3050 C   0  0  0  0  0  0  0  0  0  0  0  0
   -7.0759   -0.5074   26.4805 C   0  0  0  0  0  0  0  0  0  0  0  0
   -3.2106   -0.4663   31.8366 C   0  0  0  0  0  0  0  0  0  0  0  0
   -3.4215   -1.6046   32.4335 N   0  0  0  0  0  0  0  0  0  0  0  0
   -3.6472   -1.7355   33.6647 C   0  0  0  0  0  0  0  0  0  0  0  0
   -5.0173   -1.8975   34.0709 C   0  0  0  0  0  0  0  0  0  0  0  0
   -5.4261   -1.4776   35.2703 C   0  0  0  0  0  0  0  0  0  0  0  0
   -4.7054   -1.3866   36.1887 C   0  0  0  0  0  0  0  0  0  0  0  0
   -3.2555   -1.2823   36.0737 C   0  0  0  0  0  0  0  0  0  0  0  0
   -2.8141   -1.3399   34.7511 C   0  0  0  0  0  0  0  0  0  0  0  0
   -2.2795   -2.5411   32.1606 C   0  0  0  0  0  0  0  0  0  0  0  0
   -5.1963   -1.0646   37.6904 C   0  0  0  0  0  0  0  0  0  0  0  0
   -6.4026   -1.5223   38.0710 C   0  0  0  0  0  0  0  0  0  0  0  0
   -7.0417   -0.9265   39.1381 C   0  0  0  0  0  0  0  0  0  0  0  0
   -6.3752    0.0423   39.9408 C   0  0  0  0  0  0  0  0  0  0  0  0
   -5.1403    0.5463   39.5464 C   0  0  0  0  0  0  0  0  0  0  0  0
   -4.6201    0.0913   38.3758 C   0  0  0  0  0  0  0  0  0  0  0  0
   -2.6922   -3.7673   31.5519 C   0  0  0  0  0  0  0  0  0  0  0  0
   -3.8705   -4.0451   31.3746 C   0  0  0  0  0  0  0  0  0  0  0  0
   -4.3179   -5.2345   30.7445 C   0  0  0  0  0  0  0  0  0  0  0  0
  3  8  1  0
  8  9  2  3
  9 10  1  0
  4 16  1  0
  3 17  1  6
 14 23  1  0
 23 24  1  0
 24 25  1  0
 24 31  1  0
 28 32  1  0
 31 38  2  3
 38 39  1  0
 39 40  2  0
  3  2  1  0
 32 33  2  0
 33 34  1  0
 34 35  2  0
 35 36  1  0
 36 37  2  0
 37 32  1  0
 25 26  2  0
 26 27  1  0
 27 28  2  0
 28 29  1  0
 29 30  2  0
 30 25  1  0
  1  2  2  0
  2  7  1  0
  7  6  2  0
  6  5  1  0
  5  4  2  0
  4  1  1  0
 10 11  2  0
 11 12  1  0
 12 13  2  0
 13 14  1  0
 14 15  2  0
 15 10  1  0
 17 18  2  0
 18 19  1  0
 19 20  2  0
 20 21  1  0
 21 22  2  0
 22 17  1  0
M  END
$$$$
