No_8441-complexes_sdf/6BKW-FPZ/2024-09-17-14-21-01/
     RDKit          3D

 13 14  0  0  0  0  0  0  0  0999 V2000
   -7.9040    3.9820   27.1177 C   0  0  0  0  0  0  0  0  0  0  0  0
   -9.0711    4.3164   27.0630 C   0  0  0  0  0  0  0  0  0  0  0  0
   -9.5294    5.4517   27.7215 C   0  0  0  0  0  0  0  0  0  0  0  0
   -7.4336    2.7132   26.5681 C   0  0  0  0  0  0  0  0  0  0  0  0
   -8.2624    1.7597   26.6581 C   0  0  0  0  0  0  0  0  0  0  0  0
   -9.6598    2.0092   26.6342 C   0  0  0  0  0  0  0  0  0  0  0  0
  -10.0433    3.2712   27.0366 C   0  0  0  0  0  0  0  0  0  0  0  0
   -7.7943    0.4047   26.1912 C   0  0  0  0  0  0  0  0  0  0  0  0
   -6.7985   -0.0136   26.7495 O   0  0  0  0  0  0  0  0  0  0  0  0
   -8.4685   -0.2836   25.3820 O   0  0  0  0  0  0  0  0  0  0  0  0
  -11.4701    3.4733   27.3581 C   0  0  0  0  0  0  0  0  0  0  0  0
  -11.8453    4.3421   28.1167 C   0  0  0  0  0  0  0  0  0  0  0  0
  -10.9161    5.6914   28.0837 C   0  0  0  0  0  0  0  0  0  0  0  0
  5  8  1  0
  8  9  2  0
  8 10  1  0
  2  3  1  0
  3 13  2  0
 13 12  1  0
 12 11  2  0
 11  7  1  0
  1  2  2  0
  2  7  1  0
  7  6  2  0
  6  5  1  0
  5  4  2  0
  4  1  1  0
M  END
$$$$
