No_8586-complexes_sdf/6BKW-FPZ/2024-09-17-14-21-01/
     RDKit          3D

 22 24  0  0  0  0  0  0  0  0999 V2000
   -7.2496    3.8871   27.4508 C   0  0  0  0  0  0  0  0  0  0  0  0
   -7.6161    2.7143   27.1523 C   0  0  0  0  0  0  0  0  0  0  0  0
   -8.6212    2.2239   26.4074 C   0  0  0  0  0  0  0  0  0  0  0  0
   -8.2540    4.9237   27.1711 C   0  0  0  0  0  0  0  0  0  0  0  0
   -8.0299    6.2902   27.5027 C   0  0  0  0  0  0  0  0  0  0  0  0
   -9.3752    4.6360   26.4536 C   0  0  0  0  0  0  0  0  0  0  0  0
   -9.6012    3.2992   26.1125 C   0  0  0  0  0  0  0  0  0  0  0  0
   -8.8605    7.3649   27.0343 C   0  0  0  0  0  0  0  0  0  0  0  0
   -6.7725    1.4292   27.4807 C   0  0  0  0  0  0  0  0  0  0  0  0
   -5.4290    1.7123   28.0392 C   0  0  0  0  0  0  0  0  0  0  0  0
   -4.5846    0.6274   28.3502 C   0  0  0  0  0  0  0  0  0  0  0  0
   -5.0161   -0.6637   28.3520 C   0  0  0  0  0  0  0  0  0  0  0  0
   -7.0241    0.1222   27.5047 C   0  0  0  0  0  0  0  0  0  0  0  0
   -4.2002   -1.6994   28.8079 C   0  0  0  0  0  0  0  0  0  0  0  0
   -6.3102   -0.9011   27.9284 C   0  0  0  0  0  0  0  0  0  0  0  0
   -3.3763   -2.2011   28.0553 C   0  0  0  0  0  0  0  0  0  0  0  0
   -4.3487   -2.1614   30.1832 C   0  0  0  0  0  0  0  0  0  0  0  0
   -4.8384   -1.4397   31.1167 C   0  0  0  0  0  0  0  0  0  0  0  0
   -5.2717   -1.8970   32.3798 C   0  0  0  0  0  0  0  0  0  0  0  0
   -5.0625   -3.1135   32.6906 C   0  0  0  0  0  0  0  0  0  0  0  0
   -4.4943   -3.9680   31.7728 C   0  0  0  0  0  0  0  0  0  0  0  0
   -4.1392   -3.5155   30.5137 C   0  0  0  0  0  0  0  0  0  0  0  0
  4  5  1  0
  5  8  2  0
  2  9  1  0
 12 14  1  0
 14 16  1  0
 14 17  1  0
 17 18  2  0
 18 19  1  0
 19 20  2  0
 20 21  1  0
 21 22  2  0
 22 17  1  0
  9 10  2  0
 10 11  1  0
 11 12  2  0
 12 15  1  0
 15 13  2  0
 13  9  1  0
  1  2  2  0
  2  3  1  0
  3  7  2  0
  7  6  1  0
  6  4  2  0
  4  1  1  0
M  END
$$$$
