No_8859-complexes_sdf/6BKW-FPZ/2024-09-17-14-21-01/
     RDKit          3D

 16 17  0  0  0  0  0  0  0  0999 V2000
   -7.7129    4.2099   27.0854 C   0  0  0  0  0  0  0  0  0  0  0  0
   -7.7814    5.1722   27.8972 C   0  0  0  0  0  0  0  0  0  0  0  0
   -8.8776    3.8408   26.3416 C   0  0  0  0  0  0  0  0  0  0  0  0
   -8.9136    2.6330   25.5655 C   0  0  0  0  0  0  0  0  0  0  0  0
   -8.8361    6.1389   27.9032 C   0  0  0  0  0  0  0  0  0  0  0  0
   -9.9718    4.7048   26.3433 C   0  0  0  0  0  0  0  0  0  0  0  0
   -9.9205    5.8499   27.1013 C   0  0  0  0  0  0  0  0  0  0  0  0
   -8.3041    1.4977   26.1841 C   0  0  0  0  0  0  0  0  0  0  0  0
   -8.3335    0.2552   25.5744 C   0  0  2  0  0  0  0  0  0  0  0  0
   -7.7403   -0.8059   26.2155 C   0  0  0  0  0  0  0  0  0  0  0  0
   -7.0998   -0.6669   27.4687 C   0  0  0  0  0  0  0  0  0  0  0  0
   -6.4851   -1.7876   28.0647 C   0  0  0  0  0  0  0  0  0  0  0  0
   -6.6075   -2.9596   27.4853 C   0  0  0  0  0  0  0  0  0  0  0  0
   -7.2105   -3.1568   26.3094 C   0  0  0  0  0  0  0  0  0  0  0  0
   -7.7675   -2.0614   25.6394 C   0  0  0  0  0  0  0  0  0  0  0  0
   -8.7561    0.1993   24.2625 C   0  0  0  0  0  0  0  0  0  0  0  0
  3  4  1  0
  4  8  2  3
  8  9  1  0
  9 10  1  0
  9 16  1  6
 10 11  2  0
 11 12  1  0
 12 13  2  0
 13 14  1  0
 14 15  2  0
 15 10  1  0
  1  2  2  0
  2  5  1  0
  5  7  2  0
  7  6  1  0
  6  3  2  0
  3  1  1  0
M  END
$$$$
