No_8698-complexes_sdf/6BKW-FPZ/2024-09-17-14-21-01/
     RDKit          3D

 11 11  0  0  0  0  0  0  0  0999 V2000
   -7.7129    4.2099   27.0854 C   0  0  0  0  0  0  0  0  0  0  0  0
   -8.9133    4.4736   27.0998 C   0  0  1  0  0  0  0  0  0  0  0  0
   -9.4643    5.5426   27.7628 C   0  0  0  0  0  0  0  0  0  0  0  0
   -9.8091    3.6358   26.2841 C   0  0  0  0  0  0  0  0  0  0  0  0
  -10.3717    2.5594   26.9241 C   0  0  0  0  0  0  0  0  0  0  0  0
  -10.9894    1.7053   26.4703 C   0  0  0  0  0  0  0  0  0  0  0  0
   -7.1293    4.1054   28.3748 C   0  0  0  0  0  0  0  0  0  0  0  0
   -5.7048    3.7807   28.2406 C   0  0  0  0  0  0  0  0  0  0  0  0
  -11.4711    1.8280   25.2299 C   0  0  0  0  0  0  0  0  0  0  0  0
  -11.0500    2.9781   24.4378 C   0  0  0  0  0  0  0  0  0  0  0  0
  -10.2266    3.9450   25.0065 C   0  0  0  0  0  0  0  0  0  0  0  0
  1  2  1  0
  2  3  1  6
  2  4  1  0
  1  7  2  3
  7  8  1  0
  4  5  2  0
  5  6  1  0
  6  9  2  0
  9 10  1  0
 10 11  2  0
 11  4  1  0
M  END
$$$$
