No_8677-complexes_sdf/6BKW-FPZ/2024-09-17-14-21-01/
     RDKit          3D

 19 20  0  0  0  0  0  0  0  0999 V2000
   -7.2496    3.8871   27.4508 C   0  0  0  0  0  0  0  0  0  0  0  0
   -7.6161    2.7143   27.1523 C   0  0  0  0  0  0  0  0  0  0  0  0
   -7.1619    1.8631   27.5232 C   0  0  0  0  0  0  0  0  0  0  0  0
   -8.0384    5.0866   27.3232 C   0  0  0  0  0  0  0  0  0  0  0  0
   -9.1223    5.1097   26.4856 C   0  0  0  0  0  0  0  0  0  0  0  0
   -8.9186    2.6660   26.4794 C   0  0  0  0  0  0  0  0  0  0  0  0
   -9.6149    3.8296   26.1383 C   0  0  0  0  0  0  0  0  0  0  0  0
   -6.6109    0.7466   27.0119 C   0  0  0  0  0  0  0  0  0  0  0  0
   -5.8366   -0.2603   27.6523 C   0  0  0  0  0  0  0  0  0  0  0  0
   -5.1050    0.2317   28.6884 C   0  0  0  0  0  0  0  0  0  0  0  0
   -5.1065    1.5367   29.1437 C   0  0  0  0  0  0  0  0  0  0  0  0
   -5.6928    2.6084   28.3397 C   0  0  0  0  0  0  0  0  0  0  0  0
   -5.5014    3.5883   27.9969 N   0  0  0  0  0  0  0  0  0  0  0  0
   -6.8519    4.9691   27.7509 P   0  0  0  0  0  0  0  0  0  0  0  0
   -4.7414    3.6061   26.8820 C   0  0  0  0  0  0  0  0  0  0  0  0
   -7.3386    5.6410   29.0533 O   0  0  0  0  0  0  0  0  0  0  0  0
   -5.8273    5.7734   27.1230 O   0  0  0  0  0  0  0  0  0  0  0  0
   -8.6109    6.5293   27.8559 O   0  0  0  0  0  0  0  0  0  0  0  0
   -6.0778    5.4259   28.3624 O   0  0  0  0  0  0  0  0  0  0  0  0
  2  3  1  0
 12 13  1  0
  1 14  1  0
 13 15  1  0
 14 16  2  0
 14 17  1  0
  4 18  1  0
 14 19  1  0
  3  8  2  0
  8  9  1  0
  9 10  2  0
 10 11  1  0
 11 12  2  0
 12  3  1  0
  1  2  2  0
  2  6  1  0
  6  7  2  0
  7  5  1  0
  5  4  2  0
  4  1  1  0
M  END
$$$$
