No_8920-complexes_sdf/6BKW-FPZ/2024-09-17-14-21-01/
     RDKit          3D

 22 24  0  0  0  0  0  0  0  0999 V2000
   -7.9040    3.9820   27.1177 C   0  0  0  0  0  0  0  0  0  0  0  0
   -8.2057    2.8231   26.8733 C   0  0  0  0  0  0  0  0  0  0  0  0
   -7.0130    4.3706   28.1140 C   0  0  0  0  0  0  0  0  0  0  0  0
   -7.4093    1.7370   27.3857 C   0  0  0  0  0  0  0  0  0  0  0  0
   -6.1712    2.1248   28.0064 C   0  0  0  0  0  0  0  0  0  0  0  0
   -5.9967    3.4283   28.2944 N   0  0  0  0  0  0  0  0  0  0  0  0
   -8.8842    5.1070   26.7371 C   0  0  0  0  0  0  0  0  0  0  0  0
   -9.5696    4.9731   25.5033 C   0  0  0  0  0  0  0  0  0  0  0  0
   -9.7505    3.6888   24.9496 C   0  0  0  0  0  0  0  0  0  0  0  0
   -9.0810    2.4869   25.7127 C   0  0  0  0  0  0  0  0  0  0  0  0
   -5.3265    1.3181   28.4809 F   0  0  0  0  0  0  0  0  0  0  0  0
  -10.5239    3.6170   23.8314 C   0  0  0  0  0  0  0  0  0  0  0  0
  -11.1273    2.6174   23.3581 C   0  0  0  0  0  0  0  0  0  0  0  0
  -11.8793    2.6177   22.1093 C   0  0  0  0  0  0  0  0  0  0  0  0
  -11.9499    3.8838   21.4651 C   0  0  0  0  0  0  0  0  0  0  0  0
  -11.2599    4.9673   21.9239 C   0  0  0  0  0  0  0  0  0  0  0  0
  -10.5256    4.9215   23.1046 C   0  0  0  0  0  0  0  0  0  0  0  0
   -6.7697    5.6447   28.4909 N   0  0  0  0  0  0  0  0  0  0  0  0
   -7.6212    0.3252   27.0270 C   0  0  0  0  0  0  0  0  0  0  0  0
   -8.7552   -0.1478   27.6566 C   0  0  0  0  0  0  0  0  0  0  0  0
   -9.1894   -1.2611   27.5885 C   0  0  0  0  0  0  0  0  0  0  0  0
   -8.4963   -2.2455   26.8961 C   0  0  0  0  0  0  0  0  0  0  0  0
  5 11  1  0
  9 12  1  0
  3 18  1  0
  4 19  1  0
 19 20  2  3
 20 21  1  0
 21 22  2  0
  2  4  1  0
  4  5  2  0
  5  6  1  0
  6  3  2  0
  3  1  1  0
  1  2  2  0
  2 10  1  0
 10  9  2  0
  9  8  1  0
  8  7  2  0
  7  1  1  0
 12 13  2  0
 13 14  1  0
 14 15  2  0
 15 16  1  0
 16 17  2  0
 17 12  1  0
M  END
$$$$
