No_8786-complexes_sdf/6BKW-FPZ/2024-09-17-14-21-01/
     RDKit          3D

 19 21  0  0  0  0  0  0  0  0999 V2000
   -7.7129    4.2099   27.0854 C   0  0  0  0  0  0  0  0  0  0  0  0
   -7.7814    5.1722   27.8972 C   0  0  0  0  0  0  0  0  0  0  0  0
   -8.8998    3.8713   26.3707 C   0  0  0  0  0  0  0  0  0  0  0  0
   -8.9563    2.6796   25.5490 C   0  0  0  0  0  0  0  0  0  0  0  0
   -8.8131    6.1334   27.9344 C   0  0  0  0  0  0  0  0  0  0  0  0
   -9.9804    5.8121   27.1929 C   0  0  0  0  0  0  0  0  0  0  0  0
   -9.9861    4.6836   26.4532 C   0  0  0  0  0  0  0  0  0  0  0  0
   -9.8430    2.5340   24.5239 C   0  0  0  0  0  0  0  0  0  0  0  0
  -10.8827    3.5687   24.4657 C   0  0  0  0  0  0  0  0  0  0  0  0
  -10.9782    4.5310   25.4380 N   0  0  0  0  0  0  0  0  0  0  0  0
  -12.1493    3.4254   23.3893 Cl  0  0  0  0  0  0  0  0  0  0  0  0
   -6.7243    5.5511   28.6771 F   0  0  0  0  0  0  0  0  0  0  0  0
   -9.9200    1.4405   23.6528 C   0  0  0  0  0  0  0  0  0  0  0  0
   -9.0620    0.3611   23.8749 C   0  0  0  0  0  0  0  0  0  0  0  0
   -8.9978   -0.6905   22.8864 C   0  0  0  0  0  0  0  0  0  0  0  0
   -9.8474   -0.5661   21.7342 C   0  0  0  0  0  0  0  0  0  0  0  0
  -10.6023    0.5708   21.5397 C   0  0  0  0  0  0  0  0  0  0  0  0
  -10.5581    1.5716   22.4333 C   0  0  0  0  0  0  0  0  0  0  0  0
   -9.8062   -1.5187   20.8123 F   0  0  0  0  0  0  0  0  0  0  0  0
  9 11  1  0
  2 12  1  0
  8 13  1  0
 16 19  1  0
 13 14  2  0
 14 15  1  0
 15 16  2  0
 16 17  1  0
 17 18  2  0
 18 13  1  0
  1  2  2  0
  2  5  1  0
  5  6  2  0
  6  7  1  0
  3  1  1  0
  3  4  2  0
  4  8  1  0
  8  9  2  0
  9 10  1  0
 10  7  2  0
  7  3  1  0
M  END
$$$$
