No_856-complexes_sdf/6BKW-FPZ/2024-09-17-14-21-01/
     RDKit          3D

 16 17  0  0  0  0  0  0  0  0999 V2000
   -7.9040    3.9820   27.1177 C   0  0  0  0  0  0  0  0  0  0  0  0
   -8.2057    2.8231   26.8733 C   0  0  0  0  0  0  0  0  0  0  0  0
   -9.2962    2.4021   26.1155 C   0  0  0  0  0  0  0  0  0  0  0  0
   -8.7358    5.0662   26.5917 C   0  0  0  0  0  0  0  0  0  0  0  0
   -9.7618    4.7023   25.7546 C   0  0  0  0  0  0  0  0  0  0  0  0
  -10.0066    3.4105   25.4922 C   0  0  0  0  0  0  0  0  0  0  0  0
   -8.3943    6.4760   26.8801 C   0  0  0  0  0  0  0  0  0  0  0  0
   -8.6590    7.3213   26.1280 F   0  0  0  0  0  0  0  0  0  0  0  0
   -7.0387    6.4908   27.1906 F   0  0  0  0  0  0  0  0  0  0  0  0
   -9.0767    6.6237   28.1752 F   0  0  0  0  0  0  0  0  0  0  0  0
   -7.4166    1.7439   27.4594 N   0  0  0  0  0  0  0  0  0  0  0  0
   -6.0702    1.9069   27.7012 C   0  0  0  0  0  0  0  0  0  0  0  0
   -5.3486    0.7728   28.2290 C   0  0  0  0  0  0  0  0  0  0  0  0
   -7.8307    0.4470   27.5018 C   0  0  0  0  0  0  0  0  0  0  0  0
   -6.8838   -0.4606   27.7220 C   0  0  0  0  0  0  0  0  0  0  0  0
   -5.7425   -0.4046   28.2419 C   0  0  0  0  0  0  0  0  0  0  0  0
  4  7  1  0
  7  8  1  0
  7  9  1  0
  7 10  1  0
  2 11  1  0
 11 12  1  0
 11 14  1  0
 13 16  1  0
 15 16  1  0
 12 13  1  0
 15 14  1  0
  1  2  2  0
  2  3  1  0
  3  6  2  0
  6  5  1  0
  5  4  2  0
  4  1  1  0
M  END
$$$$
