No_8159-complexes_sdf/6BKW-FPZ/2024-09-17-14-21-01/
     RDKit          3D

 30 33  0  0  0  0  0  0  0  0999 V2000
   -7.2496    3.8871   27.4508 C   0  0  0  0  0  0  0  0  0  0  0  0
   -7.6161    2.7143   27.1523 C   0  0  0  0  0  0  0  0  0  0  0  0
   -7.1619    1.8631   27.5232 C   0  0  0  0  0  0  0  0  0  0  0  0
   -8.0384    5.0866   27.3232 C   0  0  0  0  0  0  0  0  0  0  0  0
   -9.1223    5.1097   26.4856 C   0  0  0  0  0  0  0  0  0  0  0  0
   -8.9382    2.7290   26.5134 C   0  0  0  0  0  0  0  0  0  0  0  0
   -9.4788    1.4415   26.1106 C   0  0  0  0  0  0  0  0  0  0  0  0
   -9.6548    3.8743   26.1530 C   0  0  0  0  0  0  0  0  0  0  0  0
   -7.5096    0.4253   27.2199 C   0  0  0  0  0  0  0  0  0  0  0  0
   -8.7101    0.3123   26.5126 C   0  0  0  0  0  0  0  0  0  0  0  0
   -7.4430    6.4309   27.7785 C   0  0  0  0  0  0  0  0  0  0  0  0
  -10.8436    3.8343   25.3315 C   0  0  0  0  0  0  0  0  0  0  0  0
  -10.7494    4.1254   23.9618 C   0  0  0  0  0  0  0  0  0  0  0  0
  -11.1246    3.6227   23.1232 C   0  0  0  0  0  0  0  0  0  0  0  0
  -10.7549    4.0000   21.7042 C   0  0  0  0  0  0  0  0  0  0  0  0
  -10.8423    3.1503   20.6593 C   0  0  0  0  0  0  0  0  0  0  0  0
  -11.5349    1.9405   20.7500 C   0  0  0  0  0  0  0  0  0  0  0  0
  -11.9552    1.5906   22.0148 C   0  0  0  0  0  0  0  0  0  0  0  0
  -11.6853    2.2979   23.1141 C   0  0  0  0  0  0  0  0  0  0  0  0
   -9.2079   -1.0084   26.1651 C   0  0  0  0  0  0  0  0  0  0  0  0
   -8.4562   -1.8788   25.9861 N   0  0  0  0  0  0  0  0  0  0  0  0
   -8.6462   -3.0647   25.6040 C   0  0  0  0  0  0  0  0  0  0  0  0
  -10.4009   -1.2616   26.4120 O   0  0  0  0  0  0  0  0  0  0  0  0
  -12.0461    4.5185   26.0139 C   0  0  0  0  0  0  0  0  0  0  0  0
  -13.2681    3.8448   26.0000 C   0  0  0  0  0  0  0  0  0  0  0  0
  -13.8015    3.6230   26.8644 C   0  0  0  0  0  0  0  0  0  0  0  0
  -15.0573    2.8599   26.9523 C   0  0  0  0  0  0  0  0  0  0  0  0
  -15.5546    2.4932   25.7044 C   0  0  0  0  0  0  0  0  0  0  0  0
  -14.8795    2.7809   24.5664 C   0  0  0  0  0  0  0  0  0  0  0  0
  -13.6855    3.4955   24.6813 C   0  0  0  0  0  0  0  0  0  0  0  0
  4 11  1  0
  8 12  1  0
 12 13  1  0
 10 20  1  0
 20 21  1  0
 21 22  1  0
 20 23  2  0
 12 24  1  0
 24 25  1  0
 13 14  1  0
  1  2  2  0
  6  8  2  0
  8  5  1  0
  5  4  2  0
  4  1  1  0
 14 15  2  0
 15 16  1  0
 16 17  2  0
 17 18  1  0
 18 19  2  0
 19 14  1  0
 25 26  2  0
 26 27  1  0
 27 28  2  0
 28 29  1  0
 29 30  2  0
 30 25  1  0
  2  3  1  0
  3  9  2  0
  9 10  1  0
 10  7  2  0
  7  6  1  0
  6  2  1  0
M  END
$$$$
