No_8804-complexes_sdf/6BKW-FPZ/2024-09-17-14-21-01/
     RDKit          3D

  8  8  0  0  0  0  0  0  0  0999 V2000
   -7.9040    3.9820   27.1177 C   0  0  0  0  0  0  0  0  0  0  0  0
   -7.8663    4.8694   27.9238 C   0  0  0  0  0  0  0  0  0  0  0  0
   -9.0501    3.8017   26.2617 C   0  0  0  0  0  0  0  0  0  0  0  0
  -10.0189    4.7608   26.3707 C   0  0  0  0  0  0  0  0  0  0  0  0
   -8.7164    5.9282   27.6640 C   0  0  0  0  0  0  0  0  0  0  0  0
   -9.8102    5.8845   26.9961 C   0  0  0  0  0  0  0  0  0  0  0  0
   -7.0268    2.9135   27.1629 F   0  0  0  0  0  0  0  0  0  0  0  0
   -9.1757    2.7001   25.5140 F   0  0  0  0  0  0  0  0  0  0  0  0
  1  7  1  0
  3  8  1  0
  1  2  2  0
  2  5  1  0
  5  6  2  0
  6  4  1  0
  4  3  2  0
  3  1  1  0
M  END
$$$$
