No_8893-complexes_sdf/6BKW-FPZ/2024-09-17-14-21-01/
     RDKit          3D

 16 17  0  0  0  0  0  0  0  0999 V2000
   -7.9040    3.9820   27.1177 C   0  0  0  0  0  0  0  0  0  0  0  0
   -8.2057    2.8231   26.8733 C   0  0  0  0  0  0  0  0  0  0  0  0
   -7.4766    1.7477   27.4593 C   0  0  0  0  0  0  0  0  0  0  0  0
   -6.7221    4.3631   27.8544 C   0  0  0  0  0  0  0  0  0  0  0  0
   -6.1698    2.0708   27.9540 C   0  0  0  0  0  0  0  0  0  0  0  0
   -5.8496    3.3886   28.1848 C   0  0  0  0  0  0  0  0  0  0  0  0
   -8.7592    5.1606   26.7369 C   0  0  0  0  0  0  0  0  0  0  0  0
   -9.1857    5.1539   25.5380 F   0  0  0  0  0  0  0  0  0  0  0  0
   -9.9500    5.2355   27.5479 F   0  0  0  0  0  0  0  0  0  0  0  0
   -8.1879    6.4158   26.8955 F   0  0  0  0  0  0  0  0  0  0  0  0
   -5.2891    0.9486   28.3434 C   0  0  0  0  0  0  0  0  0  0  0  0
   -3.9757    1.1658   28.7143 C   0  0  0  0  0  0  0  0  0  0  0  0
   -3.1526    0.0989   29.1223 C   0  0  0  0  0  0  0  0  0  0  0  0
   -3.7045   -1.1667   29.2536 C   0  0  0  0  0  0  0  0  0  0  0  0
   -5.8106   -0.3773   28.2834 C   0  0  0  0  0  0  0  0  0  0  0  0
   -5.0132   -1.4106   28.8006 C   0  0  0  0  0  0  0  0  0  0  0  0
  1  7  1  0
  7  8  1  0
  7  9  1  0
  7 10  1  0
  5 11  1  0
  1  2  2  0
  2  3  1  0
  3  5  2  0
  5  6  1  0
  6  4  2  0
  4  1  1  0
 11 12  2  0
 12 13  1  0
 13 14  2  0
 14 16  1  0
 16 15  2  0
 15 11  1  0
M  END
$$$$
