No_8188-complexes_sdf/6BKW-FPZ/2024-09-17-14-21-01/
     RDKit          3D

 40 44  0  0  0  0  0  0  0  0999 V2000
   -7.2496    3.8871   27.4508 C   0  0  0  0  0  0  0  0  0  0  0  0
   -8.5096    4.0291   27.2770 C   0  0  0  0  0  0  0  0  0  0  0  0
   -9.3451    2.8786   26.9046 C   0  0  0  0  0  0  0  0  0  0  0  0
   -6.6065    2.5680   27.5073 C   0  0  0  0  0  0  0  0  0  0  0  0
   -7.4233    1.4858   27.2402 C   0  0  0  0  0  0  0  0  0  0  0  0
   -8.7362    1.6525   26.9989 C   0  0  0  0  0  0  0  0  0  0  0  0
   -9.1023    5.3710   27.2131 C   0  0  0  0  0  0  0  0  0  0  0  0
  -10.3176    5.4276   27.6392 F   0  0  0  0  0  0  0  0  0  0  0  0
   -8.3884    6.2664   28.0320 F   0  0  0  0  0  0  0  0  0  0  0  0
   -9.0168    5.8639   25.9493 F   0  0  0  0  0  0  0  0  0  0  0  0
   -5.3334    2.4689   27.7975 O   0  0  0  0  0  0  0  0  0  0  0  0
   -6.7795    0.1799   27.2333 C   0  0  2  0  0  0  0  0  0  0  0  0
   -6.9357   -0.6029   26.1968 C   0  0  0  0  0  0  0  0  0  0  0  0
   -7.8246   -0.2652   25.1050 C   0  0  0  0  0  0  0  0  0  0  0  0
   -7.8453   -1.0693   23.9503 C   0  0  0  0  0  0  0  0  0  0  0  0
   -7.0272   -2.2387   23.9446 C   0  0  0  0  0  0  0  0  0  0  0  0
   -6.2256   -2.5712   25.0173 C   0  0  0  0  0  0  0  0  0  0  0  0
   -6.1048   -1.7760   26.0984 C   0  0  0  0  0  0  0  0  0  0  0  0
   -6.1417   -0.2989   28.4422 C   0  0  0  0  0  0  0  0  0  0  0  0
   -6.7275   -1.1441   29.3527 C   0  0  0  0  0  0  0  0  0  0  0  0
   -5.9326   -1.6205   30.4601 C   0  0  0  0  0  0  0  0  0  0  0  0
   -4.7982    0.1129   28.8001 C   0  0  0  0  0  0  0  0  0  0  0  0
   -4.1013   -0.2661   29.9355 C   0  0  0  0  0  0  0  0  0  0  0  0
   -4.7027   -1.1272   30.7945 C   0  0  0  0  0  0  0  0  0  0  0  0
   -4.0058   -1.5625   32.0103 C   0  0  0  0  0  0  0  0  0  0  0  0
   -2.9269   -1.2686   32.2567 C   0  0  0  0  0  0  0  0  0  0  0  0
   -2.2534   -0.2456   31.3360 C   0  0  0  0  0  0  0  0  0  0  0  0
   -2.8068    0.1995   30.1914 C   0  0  0  0  0  0  0  0  0  0  0  0
   -2.1201   -1.5581   33.4757 C   0  0  0  0  0  0  0  0  0  0  0  0
   -1.4761   -2.3301   33.7615 O   0  0  0  0  0  0  0  0  0  0  0  0
   -2.0608   -0.3470   34.2706 O   0  0  0  0  0  0  0  0  0  0  0  0
   -6.7457   -2.5668   31.3636 C   0  0  0  0  0  0  0  0  0  0  0  0
   -6.7286   -2.5133   32.5541 C   0  0  0  0  0  0  0  0  0  0  0  0
   -7.4824   -3.2152   33.5138 C   0  0  0  0  0  0  0  0  0  0  0  0
   -8.4599   -4.0537   32.9259 C   0  0  0  0  0  0  0  0  0  0  0  0
   -8.4904   -4.1890   31.5298 C   0  0  0  0  0  0  0  0  0  0  0  0
   -7.6908   -3.4098   30.6951 C   0  0  0  0  0  0  0  0  0  0  0  0
   -9.6700   -5.1978   30.7859 Cl  0  0  0  0  0  0  0  0  0  0  0  0
   -7.4101   -3.0924   34.8388 O   0  0  0  0  0  0  0  0  0  0  0  0
   -7.9530   -3.7926   35.7264 C   0  0  0  0  0  0  0  0  0  0  0  0
  2  7  1  0
  7  8  1  0
  7  9  1  0
  7 10  1  0
  4 11  1  0
 12  5  1  1
 12 19  1  0
 26 29  1  0
 29 30  2  0
 29 31  1  0
 21 32  1  0
 36 38  1  0
 34 39  1  0
 39 40  1  0
 12 13  1  0
 32 33  2  0
 33 34  1  0
 34 35  2  0
 35 36  1  0
 36 37  2  0
 37 32  1  0
  1  2  2  0
  2  3  1  0
  3  6  2  0
  6  5  1  0
  5  4  2  0
  4  1  1  0
 24 25  1  0
 25 26  2  0
 26 27  1  0
 27 28  2  0
 28 23  1  0
 13 14  2  0
 14 15  1  0
 15 16  2  0
 16 17  1  0
 17 18  2  0
 18 13  1  0
 19 20  2  0
 20 21  1  0
 21 24  2  0
 24 23  1  0
 23 22  2  0
 22 19  1  0
M  END
$$$$
