No_8795-complexes_sdf/6BKW-FPZ/2024-09-17-14-21-01/
     RDKit          3D

 13 14  0  0  0  0  0  0  0  0999 V2000
   -7.9040    3.9820   27.1177 C   0  0  0  0  0  0  0  0  0  0  0  0
   -7.8663    4.8694   27.9238 C   0  0  0  0  0  0  0  0  0  0  0  0
   -9.0953    3.1697   27.0532 C   0  0  0  0  0  0  0  0  0  0  0  0
  -10.1313    3.4052   27.8871 C   0  0  0  0  0  0  0  0  0  0  0  0
   -8.9489    5.3814   28.6671 C   0  0  0  0  0  0  0  0  0  0  0  0
  -10.1039    4.5714   28.7102 C   0  0  0  0  0  0  0  0  0  0  0  0
   -9.0505    1.9437   26.1963 C   0  0  0  0  0  0  0  0  0  0  0  0
   -9.5005    2.1052   24.8742 C   0  0  0  0  0  0  0  0  0  0  0  0
   -9.4919    1.0870   23.9344 C   0  0  0  0  0  0  0  0  0  0  0  0
   -8.5089    0.7561   26.5738 C   0  0  0  0  0  0  0  0  0  0  0  0
   -8.4570   -0.3334   25.6792 C   0  0  0  0  0  0  0  0  0  0  0  0
   -8.9264   -0.1459   24.3811 C   0  0  0  0  0  0  0  0  0  0  0  0
   -9.9198    3.3211   24.4106 F   0  0  0  0  0  0  0  0  0  0  0  0
  3  7  1  0
  8 13  1  0
  1  2  2  0
  2  5  1  0
  5  6  2  0
  6  4  1  0
  4  3  2  0
  3  1  1  0
  7  8  2  0
  8  9  1  0
  9 12  2  0
 12 11  1  0
 11 10  2  0
 10  7  1  0
M  END
$$$$
