No_8902-complexes_sdf/6BKW-FPZ/2024-09-17-14-21-01/
     RDKit          3D

 40 45  0  0  0  0  0  0  0  0999 V2000
   -7.9040    3.9820   27.1177 C   0  0  0  0  0  0  0  0  0  0  0  0
   -8.2057    2.8231   26.8733 C   0  0  0  0  0  0  0  0  0  0  0  0
   -7.4766    1.7477   27.4593 C   0  0  0  0  0  0  0  0  0  0  0  0
   -8.7468    5.1251   26.6967 C   0  0  0  0  0  0  0  0  0  0  0  0
   -9.7234    4.8589   25.8202 C   0  0  0  0  0  0  0  0  0  0  0  0
   -9.9711    3.5858   25.4266 C   0  0  0  0  0  0  0  0  0  0  0  0
   -9.2266    2.4957   25.9600 C   0  0  0  0  0  0  0  0  0  0  0  0
   -7.8394    0.3721   27.3404 C   0  0  0  0  0  0  0  0  0  0  0  0
   -6.9869   -0.5894   27.7767 C   0  0  0  0  0  0  0  0  0  0  0  0
   -5.7524   -0.2589   28.3393 C   0  0  0  0  0  0  0  0  0  0  0  0
   -5.2954    1.0903   28.3146 C   0  0  0  0  0  0  0  0  0  0  0  0
   -6.0655    2.0222   27.8435 C   0  0  0  0  0  0  0  0  0  0  0  0
   -8.4275    6.5193   27.1001 C   0  0  0  0  0  0  0  0  0  0  0  0
   -7.9047    7.5778   26.9691 N   0  0  0  0  0  0  0  0  0  0  0  0
   -4.8632   -1.3313   28.8921 C   0  0  0  0  0  0  0  0  0  0  0  0
   -5.0935   -2.3396   29.0893 C   0  0  0  0  0  0  0  0  0  0  0  0
   -4.2109   -3.3764   29.6906 C   0  0  0  0  0  0  0  0  0  0  0  0
   -2.9255   -2.9310   30.0415 C   0  0  0  0  0  0  0  0  0  0  0  0
   -3.4987   -0.7320   29.3319 C   0  0  0  0  0  0  0  0  0  0  0  0
   -2.5761   -1.5937   29.8761 C   0  0  0  0  0  0  0  0  0  0  0  0
  -10.9991    3.3229   24.4171 C   0  0  1  0  0  0  0  0  0  0  0  0
  -11.0413    2.3207   23.7165 C   0  0  0  0  0  0  0  0  0  0  0  0
  -11.0051    1.2038   23.9721 C   0  0  0  0  0  0  0  0  0  0  0  0
  -11.0362    0.0325   23.0165 C   0  0  0  0  0  0  0  0  0  0  0  0
  -11.1521    0.4190   21.6860 C   0  0  0  0  0  0  0  0  0  0  0  0
  -11.1579    1.7191   21.2762 C   0  0  0  0  0  0  0  0  0  0  0  0
  -11.0698    2.6979   22.1947 C   0  0  0  0  0  0  0  0  0  0  0  0
  -12.1225    4.2849   24.4157 C   0  0  0  0  0  0  0  0  0  0  0  0
   -3.0586    0.6769   29.1638 C   0  0  0  0  0  0  0  0  0  0  0  0
   -3.9889    1.4851   28.7054 C   0  0  0  0  0  0  0  0  0  0  0  0
  -11.1898   -0.6937   20.6500 C   0  0  0  0  0  0  0  0  0  0  0  0
  -11.7047   -0.4368   19.5474 N   0  0  0  0  0  0  0  0  0  0  0  0
  -12.4026    0.4046   19.2152 C   0  0  0  0  0  0  0  0  0  0  0  0
  -11.2791   -1.3989   18.4144 C   0  0  0  0  0  0  0  0  0  0  0  0
  -10.5231   -1.7595   20.9295 O   0  0  0  0  0  0  0  0  0  0  0  0
  -11.5458   -0.9701   17.2165 C   0  0  0  0  0  0  0  0  0  0  0  0
  -12.7824    0.8528   17.8346 C   0  0  0  0  0  0  0  0  0  0  0  0
  -12.3346    0.0744   16.8452 C   0  0  0  0  0  0  0  0  0  0  0  0
  -13.3748    3.7585   24.7598 C   0  0  0  0  0  0  0  0  0  0  0  0
  -14.4721    4.4151   24.3815 C   0  0  0  0  0  0  0  0  0  0  0  0
  2  3  1  0
  4 13  1  0
 13 14  3  0
 10 15  1  0
  6 21  1  0
 21 22  1  0
 21 28  1  1
 19 29  1  0
 11 30  1  0
 29 30  1  0
 25 31  1  0
 31 32  1  0
 32 33  1  0
 32 34  1  0
 31 35  2  0
 36 38  1  0
 37 38  1  0
 28 39  1  0
 39 40  2  0
 33 37  1  0
 36 34  1  0
 22 23  2  0
 23 24  1  0
 24 25  2  0
 25 26  1  0
 26 27  2  0
 27 22  1  0
  1  2  2  0
  2  7  1  0
  7  6  2  0
  6  5  1  0
  5  4  2  0
  4  1  1  0
 15 16  2  0
 16 17  1  0
 17 18  2  0
 18 20  1  0
 20 19  2  0
 19 15  1  0
  3  8  2  0
  8  9  1  0
  9 10  2  0
 10 11  1  0
 11 12  2  0
 12  3  1  0
M  END
$$$$
