No_825-complexes_sdf/6BKW-FPZ/2024-09-17-14-21-01/
     RDKit          3D

 20 22  0  0  0  0  0  0  0  0999 V2000
   -7.7129    4.2099   27.0854 C   0  0  0  0  0  0  0  0  0  0  0  0
   -8.2112    3.0637   26.9225 C   0  0  0  0  0  0  0  0  0  0  0  0
   -8.4224    5.2106   27.8516 C   0  0  0  0  0  0  0  0  0  0  0  0
   -9.5628    2.7160   27.4089 C   0  0  0  0  0  0  0  0  0  0  0  0
  -10.2428    3.7496   28.1155 C   0  0  0  0  0  0  0  0  0  0  0  0
   -9.6677    4.9738   28.3232 C   0  0  0  0  0  0  0  0  0  0  0  0
   -7.7834    6.4141   28.0170 O   0  0  0  0  0  0  0  0  0  0  0  0
  -10.1026    1.3916   27.2160 C   0  0  0  0  0  0  0  0  0  0  0  0
  -11.0053    1.0329   28.0163 N   0  0  0  0  0  0  0  0  0  0  0  0
  -11.3767   -0.2833   28.2563 C   0  0  0  0  0  0  0  0  0  0  0  0
  -10.6376   -1.1905   27.5148 C   0  0  0  0  0  0  0  0  0  0  0  0
   -9.5593    0.4499   26.5428 N   0  0  0  0  0  0  0  0  0  0  0  0
   -9.7343   -0.8264   26.6600 C   0  0  0  0  0  0  0  0  0  0  0  0
  -11.1283   -2.6480   27.6796 C   0  0  0  0  0  0  0  0  0  0  0  0
  -12.0175   -2.9553   28.1536 C   0  0  0  0  0  0  0  0  0  0  0  0
  -12.4390   -4.3261   28.3114 C   0  0  0  0  0  0  0  0  0  0  0  0
  -13.6234   -4.7529   28.9842 C   0  0  0  0  0  0  0  0  0  0  0  0
  -14.4423   -3.7741   29.5039 C   0  0  0  0  0  0  0  0  0  0  0  0
  -14.1511   -2.4448   29.4247 C   0  0  0  0  0  0  0  0  0  0  0  0
  -13.0241   -1.9877   28.8684 C   0  0  0  0  0  0  0  0  0  0  0  0
  3  7  1  0
  4  8  1  0
 11 14  1  0
 14 15  1  0
  1  2  2  0
  2  4  1  0
  4  5  2  0
  5  6  1  0
  6  3  2  0
  3  1  1  0
 15 16  2  0
 16 17  1  0
 17 18  2  0
 18 19  1  0
 19 20  2  0
 20 15  1  0
  8  9  2  0
  9 10  1  0
 10 11  2  0
 11 13  1  0
 13 12  2  0
 12  8  1  0
M  END
$$$$
