No_886-complexes_sdf/6BKW-FPZ/2024-09-17-14-21-01/
     RDKit          3D

 14 14  0  0  0  0  0  0  0  0999 V2000
   -7.9040    3.9820   27.1177 C   0  0  0  0  0  0  0  0  0  0  0  0
   -8.2057    2.8231   26.8733 C   0  0  0  0  0  0  0  0  0  0  0  0
   -8.7695    5.0740   26.7916 C   0  0  0  0  0  0  0  0  0  0  0  0
   -8.4337    6.4678   27.0913 C   0  0  0  0  0  0  0  0  0  0  0  0
   -9.3742    2.4311   26.2346 C   0  0  0  0  0  0  0  0  0  0  0  0
  -10.2395    3.4267   25.8887 C   0  0  0  0  0  0  0  0  0  0  0  0
   -9.9567    4.7548   26.1374 C   0  0  0  0  0  0  0  0  0  0  0  0
   -7.9449    7.5014   26.9590 N   0  0  0  0  0  0  0  0  0  0  0  0
   -7.2426    1.6814   27.2966 C   0  0  0  0  0  0  0  0  0  0  0  0
   -7.6440    0.6017   27.5092 F   0  0  0  0  0  0  0  0  0  0  0  0
   -5.9928    1.9793   27.4286 F   0  0  0  0  0  0  0  0  0  0  0  0
  -11.4597    3.1100   25.1192 C   0  0  0  0  0  0  0  0  0  0  0  0
  -12.5715    2.8774   25.7245 C   0  0  0  0  0  0  0  0  0  0  0  0
  -13.7874    2.5736   25.0243 C   0  0  0  0  0  0  0  0  0  0  0  0
  3  4  1  0
  4  8  3  0
  2  9  1  0
  9 10  1  0
  9 11  1  0
  6 12  1  0
 12 13  2  3
 13 14  1  0
  1  2  2  0
  2  5  1  0
  5  6  2  0
  6  7  1  0
  7  3  2  0
  3  1  1  0
M  END
$$$$
