No_8437-complexes_sdf/6BKW-FPZ/2024-09-17-14-21-01/
     RDKit          3D

 20 23  0  0  0  0  0  0  0  0999 V2000
   -7.7129    4.2099   27.0854 C   0  0  0  0  0  0  0  0  0  0  0  0
   -7.7814    5.1722   27.8972 C   0  0  0  0  0  0  0  0  0  0  0  0
   -8.8998    3.8713   26.3707 C   0  0  0  0  0  0  0  0  0  0  0  0
   -8.9563    2.6796   25.5490 C   0  0  0  0  0  0  0  0  0  0  0  0
   -8.8131    6.1334   27.9344 C   0  0  0  0  0  0  0  0  0  0  0  0
   -9.9804    5.8121   27.1929 C   0  0  0  0  0  0  0  0  0  0  0  0
   -9.9861    4.6836   26.4532 C   0  0  0  0  0  0  0  0  0  0  0  0
   -8.3568    1.4858   26.0897 C   0  0  0  0  0  0  0  0  0  0  0  0
   -8.2076    0.3518   25.3631 C   0  0  0  0  0  0  0  0  0  0  0  0
   -8.8085    0.3761   24.0865 C   0  0  0  0  0  0  0  0  0  0  0  0
   -9.4300    1.5031   23.5384 C   0  0  0  0  0  0  0  0  0  0  0  0
   -9.4277    2.6638   24.2839 C   0  0  0  0  0  0  0  0  0  0  0  0
   -9.9678    1.4927   22.1980 C   0  0  0  0  0  0  0  0  0  0  0  0
  -10.3947    2.6655   21.6866 C   0  0  0  0  0  0  0  0  0  0  0  0
  -10.5160    3.8013   22.5442 C   0  0  0  0  0  0  0  0  0  0  0  0
  -10.0589    3.8604   23.7721 C   0  0  0  0  0  0  0  0  0  0  0  0
  -10.8692    4.6717   25.3869 N   0  0  0  0  0  0  0  0  0  0  0  0
  -10.7457    4.9311   24.3891 N   0  0  0  0  0  0  0  0  0  0  0  0
  -11.0680    4.8461   21.8991 F   0  0  0  0  0  0  0  0  0  0  0  0
   -6.6901    5.5195   28.6667 O   0  0  0  0  0  0  0  0  0  0  0  0
  3  4  1  0
  7 17  1  0
 16 18  1  0
 17 18  1  0
 15 19  1  0
  2 20  1  0
  4  8  2  0
  8  9  1  0
  9 10  2  0
 10 11  1  0
 12  4  1  0
 11 12  2  0
 12 16  1  0
 16 15  2  0
 15 14  1  0
 14 13  2  0
 13 11  1  0
  1  2  2  0
  2  5  1  0
  5  6  2  0
  6  7  1  0
  7  3  2  0
  3  1  1  0
M  END
$$$$
