No_8799-complexes_sdf/6BKW-FPZ/2024-09-17-14-21-01/
     RDKit          3D

 22 24  0  0  0  0  0  0  0  0999 V2000
   -7.9040    3.9820   27.1177 C   0  0  0  0  0  0  0  0  0  0  0  0
   -9.0711    4.3164   27.0630 C   0  0  0  0  0  0  0  0  0  0  0  0
   -9.5182    5.5541   27.5777 C   0  0  0  0  0  0  0  0  0  0  0  0
   -6.9424    4.7983   27.8424 C   0  0  0  0  0  0  0  0  0  0  0  0
   -7.3526    5.9739   28.3909 C   0  0  0  0  0  0  0  0  0  0  0  0
   -8.6479    6.3742   28.2170 C   0  0  0  0  0  0  0  0  0  0  0  0
  -10.2021    3.5782   26.4472 C   0  0  0  0  0  0  0  0  0  0  0  0
  -10.5649    3.5707   25.2641 C   0  0  0  0  0  0  0  0  0  0  0  0
  -11.5488    2.8014   24.5954 C   0  0  0  0  0  0  0  0  0  0  0  0
  -12.0945    1.7944   25.3634 C   0  0  0  0  0  0  0  0  0  0  0  0
  -10.8386    2.4026   27.0208 C   0  0  0  0  0  0  0  0  0  0  0  0
  -11.7292    1.6005   26.6260 C   0  0  0  0  0  0  0  0  0  0  0  0
  -12.3288    0.5042   27.4428 C   0  0  0  0  0  0  0  0  0  0  0  0
  -13.1030    0.9227   28.4816 C   0  0  0  0  0  0  0  0  0  0  0  0
  -12.0987   -0.8363   27.1617 C   0  0  0  0  0  0  0  0  0  0  0  0
  -12.6619   -1.7411   27.8446 C   0  0  0  0  0  0  0  0  0  0  0  0
  -13.7071   -0.0925   29.3278 C   0  0  0  0  0  0  0  0  0  0  0  0
  -13.4701   -1.4085   29.0172 C   0  0  0  0  0  0  0  0  0  0  0  0
  -14.2264   -2.6390   29.9348 Cl  0  0  0  0  0  0  0  0  0  0  0  0
  -11.8942    3.1025   23.2091 C   0  0  0  0  0  0  0  0  0  0  0  0
  -12.4920    4.1266   22.8088 C   0  0  0  0  0  0  0  0  0  0  0  0
  -12.7874    4.4679   21.4536 C   0  0  0  0  0  0  0  0  0  0  0  0
  2  7  1  0
 12 13  1  0
 18 19  1  0
  9 20  1  0
 20 21  2  3
 21 22  1  0
  7  8  2  0
  8  9  1  0
  9 10  2  0
 10 12  1  0
 12 11  2  0
 11  7  1  0
  1  2  2  0
  2  3  1  0
  3  6  2  0
  6  5  1  0
  5  4  2  0
  4  1  1  0
 13 14  2  0
 14 17  1  0
 17 18  2  0
 18 16  1  0
 16 15  2  0
 15 13  1  0
M  END
$$$$
