No_80-complexes_sdf/6BKW-FPZ/2024-09-17-14-21-01/
     RDKit          3D

 29 32  0  0  0  0  0  0  0  0999 V2000
   -7.9040    3.9820   27.1177 C   0  0  0  0  0  0  0  0  0  0  0  0
   -8.2057    2.8231   26.8733 C   0  0  0  0  0  0  0  0  0  0  0  0
   -9.3234    2.2125   27.0599 C   0  0  0  0  0  0  0  0  0  0  0  0
   -9.0146    4.9428   27.2420 C   0  0  0  0  0  0  0  0  0  0  0  0
   -8.7904    6.3552   27.4306 C   0  0  1  0  0  0  0  0  0  0  0  0
  -10.4674    3.0192   27.2879 C   0  0  0  0  0  0  0  0  0  0  0  0
  -10.3212    4.3963   27.4586 C   0  0  0  0  0  0  0  0  0  0  0  0
   -7.9157    6.9979   26.4173 C   0  0  0  0  0  0  0  0  0  0  0  0
   -9.5341    0.7277   26.9218 C   0  0  0  0  0  0  0  0  0  0  0  0
  -10.4657    0.1423   27.5956 C   0  0  0  0  0  0  0  0  0  0  0  0
  -10.5854   -1.2248   27.5509 C   0  0  0  0  0  0  0  0  0  0  0  0
   -9.6447   -1.9661   26.8917 C   0  0  0  0  0  0  0  0  0  0  0  0
   -8.5182   -0.0337   26.3358 C   0  0  0  0  0  0  0  0  0  0  0  0
   -8.6065   -1.3657   26.2863 C   0  0  0  0  0  0  0  0  0  0  0  0
   -7.9975    8.1062   26.7955 C   0  0  0  0  0  0  0  0  0  0  0  0
   -9.9780    7.3103   27.1743 C   0  0  0  0  0  0  0  0  0  0  0  0
   -9.8108    8.3387   26.7236 N   0  0  0  0  0  0  0  0  0  0  0  0
  -11.7442   -1.9150   28.2853 C   0  0  0  0  0  0  0  0  0  0  0  0
  -11.9356   -1.5670   29.5441 C   0  0  0  0  0  0  0  0  0  0  0  0
  -11.7383   -3.2721   28.0800 C   0  0  0  0  0  0  0  0  0  0  0  0
  -12.9379   -3.9078   28.5602 C   0  0  0  0  0  0  0  0  0  0  0  0
  -13.1813   -1.9892   30.1911 C   0  0  0  0  0  0  0  0  0  0  0  0
  -13.7760   -1.3843   31.2953 C   0  0  0  0  0  0  0  0  0  0  0  0
  -13.4935   -3.3156   29.7437 C   0  0  0  0  0  0  0  0  0  0  0  0
  -14.2195   -0.1790   31.1567 O   0  0  0  0  0  0  0  0  0  0  0  0
  -13.5157   -1.7958   32.5085 O   0  0  0  0  0  0  0  0  0  0  0  0
  -13.3042   -5.1896   28.1400 C   0  0  0  0  0  0  0  0  0  0  0  0
  -12.8488   -5.7490   27.3114 O   0  0  0  0  0  0  0  0  0  0  0  0
  -14.3746   -5.7003   28.7376 F   0  0  0  0  0  0  0  0  0  0  0  0
  5  4  1  6
  5  8  1  0
  3  9  1  0
  8 15  2  0
  5 16  1  0
 15 17  1  0
 16 17  1  0
 11 18  1  0
 22 23  1  0
 23 25  2  0
 23 26  1  0
 21 27  1  0
 27 28  2  0
 27 29  1  0
  1  2  2  0
  2  3  1  0
  3  6  2  0
  6  7  1  0
  7  4  2  0
  4  1  1  0
  9 10  2  0
 10 11  1  0
 11 12  2  0
 12 14  1  0
 14 13  2  0
 13  9  1  0
 18 19  2  0
 19 22  1  0
 22 24  2  0
 24 21  1  0
 21 20  2  0
 20 18  1  0
M  END
$$$$
