No_8185-complexes_sdf/6BKW-FPZ/2024-09-17-14-21-01/
     RDKit          3D

 23 25  0  0  0  0  0  0  0  0999 V2000
   -7.9040    3.9820   27.1177 C   0  0  0  0  0  0  0  0  0  0  0  0
   -8.2057    2.8231   26.8733 C   0  0  0  0  0  0  0  0  0  0  0  0
   -7.4766    1.7477   27.4593 C   0  0  0  0  0  0  0  0  0  0  0  0
   -8.7468    5.1251   26.6967 C   0  0  0  0  0  0  0  0  0  0  0  0
   -9.7234    4.8589   25.8202 C   0  0  0  0  0  0  0  0  0  0  0  0
   -9.9711    3.5858   25.4266 C   0  0  0  0  0  0  0  0  0  0  0  0
   -9.2266    2.4957   25.9600 C   0  0  0  0  0  0  0  0  0  0  0  0
   -6.1241    1.9216   27.8574 C   0  0  0  0  0  0  0  0  0  0  0  0
   -5.3476    0.8215   28.3513 C   0  0  0  0  0  0  0  0  0  0  0  0
   -5.8615   -0.4216   28.3746 C   0  0  0  0  0  0  0  0  0  0  0  0
   -7.8873    0.3796   27.4328 C   0  0  0  0  0  0  0  0  0  0  0  0
   -7.1775   -0.6189   27.9519 C   0  0  0  0  0  0  0  0  0  0  0  0
   -8.4129    6.5117   27.1018 C   0  0  0  0  0  0  0  0  0  0  0  0
   -8.5963    7.5329   26.4088 N   0  0  0  0  0  0  0  0  0  0  0  0
   -7.7098    6.5504   28.2278 O   0  0  0  0  0  0  0  0  0  0  0  0
   -3.5582    1.2103   28.8930 Br  0  0  0  0  0  0  0  0  0  0  0  0
  -11.0096    3.3149   24.4335 C   0  0  0  0  0  0  0  0  0  0  0  0
  -10.7541    2.5757   23.3962 C   0  0  0  0  0  0  0  0  0  0  0  0
   -9.5532    1.8660   23.2863 C   0  0  0  0  0  0  0  0  0  0  0  0
   -9.3208    1.0676   22.1591 C   0  0  0  0  0  0  0  0  0  0  0  0
  -10.2271    1.0272   21.1431 C   0  0  0  0  0  0  0  0  0  0  0  0
  -11.3804    1.7694   21.1686 C   0  0  0  0  0  0  0  0  0  0  0  0
  -11.5908    2.5221   22.2376 C   0  0  0  0  0  0  0  0  0  0  0  0
  2  3  1  0
  4 13  1  0
 13 14  1  0
 13 15  2  0
  9 16  1  0
  6 17  1  0
 17 18  1  0
 18 19  2  0
 19 20  1  0
 20 21  2  0
 21 22  1  0
 22 23  2  0
 23 18  1  0
  3  8  2  0
  8  9  1  0
  9 10  2  0
 10 12  1  0
 12 11  2  0
 11  3  1  0
  1  2  2  0
  2  7  1  0
  7  6  2  0
  6  5  1  0
  5  4  2  0
  4  1  1  0
M  END
$$$$
