No_8605-complexes_sdf/6BKW-FPZ/2024-09-17-14-21-01/
     RDKit          3D

 14 15  0  0  0  0  0  0  0  0999 V2000
   -7.2496    3.8871   27.4508 C   0  0  0  0  0  0  0  0  0  0  0  0
   -7.6161    2.7143   27.1523 C   0  0  0  0  0  0  0  0  0  0  0  0
   -8.8827    2.2318   27.1220 C   0  0  0  0  0  0  0  0  0  0  0  0
   -8.2837    4.9116   27.6108 C   0  0  0  0  0  0  0  0  0  0  0  0
   -9.6088    4.5175   27.5560 C   0  0  0  0  0  0  0  0  0  0  0  0
   -9.9243    3.2149   27.3938 C   0  0  0  0  0  0  0  0  0  0  0  0
   -7.9033    6.1948   27.8730 N   0  0  0  0  0  0  0  0  0  0  0  0
   -9.0750    0.7840   26.9138 C   0  0  0  0  0  0  0  0  0  0  0  0
  -10.1196    0.2359   27.3539 C   0  0  0  0  0  0  0  0  0  0  0  0
  -10.4347   -0.8842   27.4799 C   0  0  0  0  0  0  0  0  0  0  0  0
  -11.6540   -1.4016   28.1835 C   0  0  0  0  0  0  0  0  0  0  0  0
  -12.4817   -0.4118   28.6961 C   0  0  0  0  0  0  0  0  0  0  0  0
  -12.2026    0.8948   28.6445 C   0  0  0  0  0  0  0  0  0  0  0  0
  -10.9531    1.2941   28.0843 C   0  0  0  0  0  0  0  0  0  0  0  0
  4  7  1  0
  3  8  1  0
  8  9  1  0
  1  2  2  0
  2  3  1  0
  3  6  2  0
  6  5  1  0
  5  4  2  0
  4  1  1  0
  9 10  2  0
 10 11  1  0
 11 12  2  0
 12 13  1  0
 13 14  2  0
 14  9  1  0
M  END
$$$$
