No_8261-complexes_sdf/6BKW-FPZ/2024-09-17-14-21-01/
     RDKit          3D

 22 25  0  0  0  0  0  0  0  0999 V2000
   -7.7129    4.2099   27.0854 C   0  0  0  0  0  0  0  0  0  0  0  0
   -7.7814    5.1722   27.8972 C   0  0  0  0  0  0  0  0  0  0  0  0
   -8.8998    3.8713   26.3707 C   0  0  0  0  0  0  0  0  0  0  0  0
   -8.9563    2.6796   25.5490 C   0  0  0  0  0  0  0  0  0  0  0  0
   -8.8131    6.1334   27.9344 C   0  0  0  0  0  0  0  0  0  0  0  0
   -9.9804    5.8121   27.1929 C   0  0  0  0  0  0  0  0  0  0  0  0
   -9.9861    4.6836   26.4532 C   0  0  0  0  0  0  0  0  0  0  0  0
   -9.8352    2.5435   24.5126 C   0  0  0  0  0  0  0  0  0  0  0  0
  -10.8691    3.5897   24.4503 C   0  0  0  0  0  0  0  0  0  0  0  0
  -10.9874    4.5302   25.4116 C   0  0  0  0  0  0  0  0  0  0  0  0
  -11.9507    3.3617   23.4536 C   0  0  0  0  0  0  0  0  0  0  0  0
  -11.5804    3.4489   22.2128 C   0  0  0  0  0  0  0  0  0  0  0  0
  -12.3758    3.3947   21.1444 C   0  0  0  0  0  0  0  0  0  0  0  0
  -13.2229    3.1746   23.8392 C   0  0  0  0  0  0  0  0  0  0  0  0
  -13.6582    3.0335   25.1610 C   0  0  0  0  0  0  0  0  0  0  0  0
  -13.7896    3.2260   21.4879 C   0  0  0  0  0  0  0  0  0  0  0  0
  -14.1849    3.1567   22.7365 C   0  0  0  0  0  0  0  0  0  0  0  0
  -14.7648    3.5468   25.6189 C   0  0  0  0  0  0  0  0  0  0  0  0
  -15.1552    3.4234   26.9685 C   0  0  0  0  0  0  0  0  0  0  0  0
  -14.3627    2.6909   27.8550 C   0  0  0  0  0  0  0  0  0  0  0  0
  -13.1372    2.1392   27.4550 C   0  0  0  0  0  0  0  0  0  0  0  0
  -12.7348    2.3334   26.0912 C   0  0  0  0  0  0  0  0  0  0  0  0
  9 11  1  0
 14 15  1  0
 11 12  2  0
 12 13  1  0
 13 16  2  0
 16 17  1  0
 17 14  2  0
 14 11  1  0
 15 18  2  0
 18 19  1  0
 19 20  2  0
 20 21  1  0
 21 22  2  0
 22 15  1  0
  1  2  2  0
  2  5  1  0
  5  6  2  0
  6  7  1  0
  3  1  1  0
  3  4  2  0
  4  8  1  0
  8  9  2  0
  9 10  1  0
 10  7  2  0
  7  3  1  0
M  END
$$$$
