No_8515-complexes_sdf/6BKW-FPZ/2024-09-17-14-21-01/
     RDKit          3D

 29 32  0  0  0  0  0  0  0  0999 V2000
   -7.7129    4.2099   27.0854 C   0  0  0  0  0  0  0  0  0  0  0  0
   -8.2112    3.0637   26.9225 C   0  0  0  0  0  0  0  0  0  0  0  0
   -9.4446    2.8304   26.1868 C   0  0  0  0  0  0  0  0  0  0  0  0
   -8.4697    5.3956   26.7238 C   0  0  0  0  0  0  0  0  0  0  0  0
   -9.6172    5.2111   25.9513 C   0  0  0  0  0  0  0  0  0  0  0  0
  -10.0424    3.9782   25.6873 C   0  0  0  0  0  0  0  0  0  0  0  0
   -7.9172    6.7181   27.0124 C   0  0  0  0  0  0  0  0  0  0  0  0
   -7.2016    6.7379   28.0490 F   0  0  0  0  0  0  0  0  0  0  0  0
   -7.3324    7.4256   26.0548 F   0  0  0  0  0  0  0  0  0  0  0  0
   -9.0624    7.4870   27.4199 F   0  0  0  0  0  0  0  0  0  0  0  0
   -7.4912    1.8182   27.3881 C   0  0  0  0  0  0  0  0  0  0  0  0
   -8.0785    0.6080   27.3260 N   0  0  0  0  0  0  0  0  0  0  0  0
   -6.1878    1.8760   27.7486 N   0  0  0  0  0  0  0  0  0  0  0  0
   -7.1781   -0.2931   27.8352 C   0  0  0  0  0  0  0  0  0  0  0  0
   -5.3621    0.9364   28.0988 C   0  0  0  0  0  0  0  0  0  0  0  0
   -5.9262   -0.2736   28.2022 C   0  0  0  0  0  0  0  0  0  0  0  0
   -4.0956    1.2196   28.4824 N   0  0  0  0  0  0  0  0  0  0  0  0
   -8.0718   -1.4848   27.7546 N   0  0  0  0  0  0  0  0  0  0  0  0
   -7.5317   -2.6424   28.0199 C   0  0  0  0  0  0  0  0  0  0  0  0
   -6.3594   -2.7053   28.4321 C   0  0  0  0  0  0  0  0  0  0  0  0
   -5.3899   -1.5635   28.5709 C   0  0  0  0  0  0  0  0  0  0  0  0
  -11.2564    3.8704   24.8528 C   0  0  0  0  0  0  0  0  0  0  0  0
  -11.4392    2.7155   24.2190 C   0  0  0  0  0  0  0  0  0  0  0  0
  -12.6008    2.5675   23.3286 C   0  0  0  0  0  0  0  0  0  0  0  0
  -13.4502    3.6819   23.2345 C   0  0  0  0  0  0  0  0  0  0  0  0
  -13.2376    4.8435   23.9577 C   0  0  0  0  0  0  0  0  0  0  0  0
  -12.1653    4.9512   24.7674 C   0  0  0  0  0  0  0  0  0  0  0  0
   -8.3299   -3.6781   28.0143 F   0  0  0  0  0  0  0  0  0  0  0  0
  -14.8359    3.5397   22.2229 Cl  0  0  0  0  0  0  0  0  0  0  0  0
  4  7  1  0
  7  8  1  0
  7  9  1  0
  7 10  1  0
  2 11  1  0
 15 17  1  0
  6 22  1  0
 19 28  1  0
 25 29  1  0
 11 12  2  0
 12 14  1  0
 16 15  1  0
 15 13  2  0
 13 11  1  0
 22 23  2  0
 23 24  1  0
 24 25  2  0
 25 26  1  0
 26 27  2  0
 27 22  1  0
  1  2  2  0
  2  3  1  0
  3  6  2  0
  6  5  1  0
  5  4  2  0
  4  1  1  0
 14 16  2  0
 16 21  1  0
 21 20  2  0
 20 19  1  0
 19 18  2  0
 18 14  1  0
M  END
$$$$
