No_8764-complexes_sdf/6BKW-FPZ/2024-09-17-14-21-01/
     RDKit          3D

 40 44  0  0  0  0  0  0  0  0999 V2000
   -7.9040    3.9820   27.1177 C   0  0  0  0  0  0  0  0  0  0  0  0
   -9.0711    4.3164   27.0630 C   0  0  0  0  0  0  0  0  0  0  0  0
   -9.9692    3.7224   26.1073 C   0  0  0  0  0  0  0  0  0  0  0  0
   -6.9787    4.6761   28.1003 C   0  0  0  0  0  0  0  0  0  0  0  0
   -9.4538    2.6801   25.3673 C   0  0  0  0  0  0  0  0  0  0  0  0
   -8.1927    2.1957   25.6621 C   0  0  0  0  0  0  0  0  0  0  0  0
   -7.4333    2.8255   26.6299 C   0  0  0  0  0  0  0  0  0  0  0  0
  -10.3181    2.0008   24.3846 C   0  0  0  0  0  0  0  0  0  0  0  0
   -9.7183    1.2105   23.5031 C   0  0  0  0  0  0  0  0  0  0  0  0
  -10.4449    0.6689   22.4496 C   0  0  0  0  0  0  0  0  0  0  0  0
  -11.8038    0.9417   22.3133 C   0  0  0  0  0  0  0  0  0  0  0  0
  -11.5327    2.3542   23.9717 C   0  0  0  0  0  0  0  0  0  0  0  0
  -12.3214    1.8691   23.0717 C   0  0  0  0  0  0  0  0  0  0  0  0
   -7.4866    5.7965   28.6621 N   0  0  0  0  0  0  0  0  0  0  0  0
   -5.7405    4.3036   28.2772 N   0  0  0  0  0  0  0  0  0  0  0  0
  -13.7425    2.2420   22.8634 C   0  0  0  0  0  0  0  0  0  0  0  0
  -14.4688    2.6084   24.0084 C   0  0  0  0  0  0  0  0  0  0  0  0
  -13.9104    2.4258   25.2479 C   0  0  0  0  0  0  0  0  0  0  0  0
  -12.3997    2.6952   25.3000 C   0  0  0  0  0  0  0  0  0  0  0  0
  -14.6309    2.6996   26.5233 C   0  0  2  0  0  0  0  0  0  0  0  0
  -14.1755    3.5864   27.3528 C   0  0  0  0  0  0  0  0  0  0  0  0
  -14.7007    3.6993   28.7307 C   0  0  0  0  0  0  0  0  0  0  0  0
  -14.1286    4.6254   29.6713 C   0  0  0  0  0  0  0  0  0  0  0  0
  -13.0203    5.2879   29.1654 C   0  0  0  0  0  0  0  0  0  0  0  0
  -13.0402    4.4620   27.3064 C   0  0  0  0  0  0  0  0  0  0  0  0
  -12.5411    5.3357   28.2539 N   0  0  0  0  0  0  0  0  0  0  0  0
  -15.6704    1.8095   26.7206 C   0  0  0  0  0  0  0  0  0  0  0  0
  -16.8426    1.9813   26.6168 C   0  0  0  0  0  0  0  0  0  0  0  0
  -17.4065    3.2872   26.2065 C   0  0  0  0  0  0  0  0  0  0  0  0
  -18.8085    3.5055   26.0017 C   0  0  0  0  0  0  0  0  0  0  0  0
  -19.5805    2.3747   26.2111 C   0  0  0  0  0  0  0  0  0  0  0  0
  -19.1716    1.1609   26.5644 C   0  0  0  0  0  0  0  0  0  0  0  0
  -17.8201    0.9424   26.7844 C   0  0  0  0  0  0  0  0  0  0  0  0
  -15.1708    0.6305   27.1083 F   0  0  0  0  0  0  0  0  0  0  0  0
  -14.3710    2.0883   21.5877 C   0  0  1  0  0  0  0  0  0  0  0  0
  -15.0996    0.9914   21.3592 C   0  0  0  0  0  0  0  0  0  0  0  0
  -15.5433    0.6525   20.2108 C   0  0  0  0  0  0  0  0  0  0  0  0
  -14.2401    3.0923   20.7053 C   0  0  0  0  0  0  0  0  0  0  0  0
  -13.4184    4.2864   20.9348 C   0  0  0  0  0  0  0  0  0  0  0  0
  -16.3692   -0.4727   19.9986 C   0  0  0  0  0  0  0  0  0  0  0  0
  1  4  1  0
  5  8  1  0
  4 14  1  0
  4 15  2  0
 18 20  1  0
 20 27  1  1
 27 34  1  0
 16 35  1  0
 35 36  1  0
 36 37  2  3
 35 38  1  1
 38 39  1  0
 37 40  1  0
 27 28  1  0
 20 21  1  0
  1  2  2  0
  2  3  1  0
  3  5  2  0
  5  6  1  0
  6  7  2  0
  7  1  1  0
 21 22  2  0
 22 23  1  0
 23 24  2  0
 24 26  1  0
 26 25  2  0
 25 21  1  0
 13 16  2  0
 16 17  1  0
 17 18  2  0
 18 19  1  0
 19 12  2  0
 28 29  2  0
 29 30  1  0
 30 31  2  0
 31 32  1  0
 32 33  2  0
 33 28  1  0
  8  9  2  0
  9 10  1  0
 10 11  2  0
 11 13  1  0
 13 12  1  0
 12  8  1  0
M  END
$$$$
