No_8331-complexes_sdf/6BKW-FPZ/2024-09-17-14-21-01/
     RDKit          3D

 35 39  0  0  0  0  0  0  0  0999 V2000
   -7.9040    3.9820   27.1177 C   0  0  0  0  0  0  0  0  0  0  0  0
   -8.2057    2.8231   26.8733 C   0  0  0  0  0  0  0  0  0  0  0  0
   -9.2962    2.4021   26.1155 C   0  0  0  0  0  0  0  0  0  0  0  0
   -8.7358    5.0662   26.5917 C   0  0  0  0  0  0  0  0  0  0  0  0
   -8.4603    6.4492   26.8781 C   0  0  0  0  0  0  0  0  0  0  0  0
  -10.1146    3.3815   25.6105 C   0  0  0  0  0  0  0  0  0  0  0  0
   -9.8194    4.7235   25.8263 C   0  0  0  0  0  0  0  0  0  0  0  0
   -8.5562    7.3988   26.1032 N   0  0  0  0  0  0  0  0  0  0  0  0
   -7.7210    6.5783   28.0111 O   0  0  0  0  0  0  0  0  0  0  0  0
   -7.3128    1.6693   27.4414 C   0  0  0  0  0  0  0  0  0  0  0  0
   -7.6582    0.3246   27.3471 C   0  0  0  0  0  0  0  0  0  0  0  0
   -8.8938    0.0888   26.7128 C   0  0  0  0  0  0  0  0  0  0  0  0
   -9.6776    1.0226   26.0412 C   0  0  0  0  0  0  0  0  0  0  0  0
   -6.8710   -0.6525   27.9847 C   0  0  0  0  0  0  0  0  0  0  0  0
   -7.3439   -1.8095   28.4319 N   0  0  0  0  0  0  0  0  0  0  0  0
   -5.4222   -0.4765   28.1427 C   0  0  0  0  0  0  0  0  0  0  0  0
   -4.6901   -1.3867   28.8982 C   0  0  0  0  0  0  0  0  0  0  0  0
   -6.6572   -2.6831   29.1757 C   0  0  0  0  0  0  0  0  0  0  0  0
   -3.2615   -1.1021   29.1473 C   0  0  0  0  0  0  0  0  0  0  0  0
   -5.3362   -2.4849   29.4494 C   0  0  0  0  0  0  0  0  0  0  0  0
   -2.6925   -0.2038   28.2787 C   0  0  0  0  0  0  0  0  0  0  0  0
   -3.5135    0.7308   27.5480 C   0  0  0  0  0  0  0  0  0  0  0  0
   -4.8091    0.5981   27.4723 C   0  0  0  0  0  0  0  0  0  0  0  0
   -7.6059   -4.1396   29.8851 Br  0  0  0  0  0  0  0  0  0  0  0  0
   -2.4524   -1.9680   30.0015 C   0  0  0  0  0  0  0  0  0  0  0  0
   -2.4729   -1.5793   31.3748 C   0  0  0  0  0  0  0  0  0  0  0  0
   -3.3794   -1.9874   32.2737 C   0  0  0  0  0  0  0  0  0  0  0  0
   -3.4475   -3.1195   32.6479 C   0  0  0  0  0  0  0  0  0  0  0  0
   -2.6299   -3.9852   32.5026 C   0  0  0  0  0  0  0  0  0  0  0  0
   -2.6613   -5.2327   33.1829 C   0  0  0  0  0  0  0  0  0  0  0  0
   -3.8690   -5.5625   33.7975 C   0  0  0  0  0  0  0  0  0  0  0  0
   -4.8894   -4.6773   33.9203 C   0  0  0  0  0  0  0  0  0  0  0  0
   -4.7001   -3.4043   33.4851 C   0  0  0  0  0  0  0  0  0  0  0  0
   -4.2610   -0.8042   32.6880 C   0  0  0  0  0  0  0  0  0  0  0  0
   -5.4495   -0.8844   33.0982 O   0  0  0  0  0  0  0  0  0  0  0  0
  4  5  1  0
  5  8  1  0
  5  9  2  0
 11 14  1  0
 18 24  1  0
 19 25  1  0
 25 26  1  0
 26 27  1  0
 27 28  1  0
 27 34  1  0
 34 35  2  0
 17 19  2  0
 19 21  1  0
 21 22  2  0
 22 23  1  0
 23 16  2  0
  3 13  1  0
 13 12  2  0
 12 11  1  0
 11 10  2  0
 10  2  1  0
  1  2  2  0
  2  3  1  0
  3  6  2  0
  6  7  1  0
  7  4  2  0
  4  1  1  0
 28 29  2  0
 29 30  1  0
 30 31  2  0
 31 32  1  0
 32 33  2  0
 33 28  1  0
 14 15  2  0
 15 18  1  0
 18 20  2  0
 20 17  1  0
 17 16  1  0
 16 14  1  0
M  END
$$$$
