No_8721-complexes_sdf/6BKW-FPZ/2024-09-17-14-21-01/
     RDKit          3D

 16 18  0  0  0  0  0  0  0  0999 V2000
   -7.7129    4.2099   27.0854 C   0  0  0  0  0  0  0  0  0  0  0  0
   -7.7814    5.1722   27.8972 C   0  0  0  0  0  0  0  0  0  0  0  0
   -8.7889    3.2468   27.2220 C   0  0  0  0  0  0  0  0  0  0  0  0
   -8.5940    1.9755   26.6525 C   0  0  0  0  0  0  0  0  0  0  0  0
   -7.5537    1.2112   27.0910 C   0  0  0  0  0  0  0  0  0  0  0  0
   -9.0671    5.9088   28.0133 C   0  0  0  0  0  0  0  0  0  0  0  0
   -7.4301    0.1077   26.9274 C   0  0  0  0  0  0  0  0  0  0  0  0
   -9.8929    3.5554   27.9980 C   0  0  0  0  0  0  0  0  0  0  0  0
  -10.2362    4.6080   28.1710 C   0  0  0  0  0  0  0  0  0  0  0  0
   -6.3373   -0.7045   27.5645 C   0  0  0  0  0  0  0  0  0  0  0  0
   -6.3537   -2.0660   27.7477 C   0  0  0  0  0  0  0  0  0  0  0  0
   -9.4439    1.3791   25.6852 C   0  0  0  0  0  0  0  0  0  0  0  0
   -9.2163    0.1207   25.2642 C   0  0  0  0  0  0  0  0  0  0  0  0
   -8.1697   -0.5877   25.9482 C   0  0  0  0  0  0  0  0  0  0  0  0
   -7.5382   -2.6841   27.4228 C   0  0  0  0  0  0  0  0  0  0  0  0
   -8.2917   -2.1011   26.0903 C   0  0  0  0  0  0  0  0  0  0  0  0
  3  4  1  0
  1  2  2  0
  2  6  1  0
  6  9  2  0
  9  8  1  0
  8  3  2  0
  3  1  1  0
  4  5  2  0
  5  7  1  0
 14 13  1  0
 13 12  2  0
 12  4  1  0
  7 10  2  0
 10 11  1  0
 11 15  2  0
 15 16  1  0
 16 14  2  0
 14  7  1  0
M  END
$$$$
