No_8472-complexes_sdf/6BKW-FPZ/2024-09-17-14-21-01/
     RDKit          3D

 28 31  0  0  0  0  0  0  0  0999 V2000
   -7.2496    3.8871   27.4508 C   0  0  0  0  0  0  0  0  0  0  0  0
   -8.5096    4.0291   27.2770 C   0  0  0  0  0  0  0  0  0  0  0  0
   -9.2677    5.1714   27.5773 C   0  0  0  0  0  0  0  0  0  0  0  0
   -6.5550    4.9883   28.1029 C   0  0  0  0  0  0  0  0  0  0  0  0
   -8.5395    6.2425   28.0724 C   0  0  0  0  0  0  0  0  0  0  0  0
   -7.1794    6.1173   28.2629 C   0  0  0  0  0  0  0  0  0  0  0  0
   -9.3001    2.8163   26.7852 C   0  0  0  0  0  0  0  0  0  0  0  0
  -10.3471    2.4902   26.8320 C   0  0  0  0  0  0  0  0  0  0  0  0
  -10.9505    1.2388   26.3281 C   0  0  0  0  0  0  0  0  0  0  0  0
  -10.0850    0.4031   25.6465 C   0  0  0  0  0  0  0  0  0  0  0  0
   -8.7836    0.7678   25.4477 C   0  0  0  0  0  0  0  0  0  0  0  0
   -8.2623    1.9281   25.9818 C   0  0  0  0  0  0  0  0  0  0  0  0
   -7.8726   -0.0888   24.6736 C   0  0  0  0  0  0  0  0  0  0  0  0
   -6.8041   -0.6518   25.2679 C   0  0  0  0  0  0  0  0  0  0  0  0
   -8.0800   -0.2199   23.2497 C   0  0  0  0  0  0  0  0  0  0  0  0
   -6.4667   -0.5156   26.5616 C   0  0  0  0  0  0  0  0  0  0  0  0
   -7.2093   -0.9663   27.5776 C   0  0  0  0  0  0  0  0  0  0  0  0
   -6.9041   -2.2899   28.0558 C   0  0  0  0  0  0  0  0  0  0  0  0
   -7.7432   -2.7872   29.0590 C   0  0  0  0  0  0  0  0  0  0  0  0
   -5.8976   -3.0462   27.5542 C   0  0  0  0  0  0  0  0  0  0  0  0
   -5.7148   -4.3623   28.0145 C   0  0  0  0  0  0  0  0  0  0  0  0
   -8.8361   -2.0221   29.6306 C   0  0  0  0  0  0  0  0  0  0  0  0
   -6.5665   -4.8304   29.0363 C   0  0  0  0  0  0  0  0  0  0  0  0
   -7.5503   -4.1054   29.5707 C   0  0  0  0  0  0  0  0  0  0  0  0
   -5.9379   -1.4480   24.3894 C   0  0  0  0  0  0  0  0  0  0  0  0
   -6.2021   -1.6857   23.0624 C   0  0  0  0  0  0  0  0  0  0  0  0
   -7.2405   -0.9798   22.5097 C   0  0  0  0  0  0  0  0  0  0  0  0
   -5.2094    0.2078   26.8730 C   0  0  0  0  0  0  0  0  0  0  0  0
  2  7  1  0
 11 13  1  0
 14 16  1  0
 16 17  1  0
 17 18  1  0
 19 22  1  0
 16 28  1  0
 13 14  2  0
 14 25  1  0
 25 26  2  0
 26 27  1  0
 27 15  2  0
 15 13  1  0
  1  2  2  0
  2  3  1  0
  3  5  2  0
  5  6  1  0
  6  4  2  0
  4  1  1  0
  7  8  2  0
  8  9  1  0
  9 10  2  0
 10 11  1  0
 11 12  2  0
 12  7  1  0
 18 19  2  0
 19 24  1  0
 24 23  2  0
 23 21  1  0
 21 20  2  0
 20 18  1  0
M  END
$$$$
