No_8602-complexes_sdf/6BKW-FPZ/2024-09-17-14-21-01/
     RDKit          3D

 28 31  0  0  0  0  0  0  0  0999 V2000
   -7.2496    3.8871   27.4508 C   0  0  0  0  0  0  0  0  0  0  0  0
   -7.6161    2.7143   27.1523 C   0  0  0  0  0  0  0  0  0  0  0  0
   -8.6212    2.2239   26.4074 C   0  0  0  0  0  0  0  0  0  0  0  0
   -6.2236    4.3429   28.3592 C   0  0  0  0  0  0  0  0  0  0  0  0
   -9.5004    3.2036   25.9135 C   0  0  0  0  0  0  0  0  0  0  0  0
   -9.2386    4.5882   26.2126 C   0  0  0  0  0  0  0  0  0  0  0  0
   -8.1605    4.9002   27.0001 C   0  0  0  0  0  0  0  0  0  0  0  0
  -10.5911    2.8969   25.0051 C   0  0  0  0  0  0  0  0  0  0  0  0
  -11.7824    2.8697   25.2852 C   0  0  0  0  0  0  0  0  0  0  0  0
  -10.1508    2.0342   23.8637 C   0  0  0  0  0  0  0  0  0  0  0  0
  -11.0021    1.7957   22.8347 C   0  0  0  0  0  0  0  0  0  0  0  0
  -12.8119    2.6192   24.2623 C   0  0  0  0  0  0  0  0  0  0  0  0
  -12.3755    1.9933   23.0950 C   0  0  0  0  0  0  0  0  0  0  0  0
   -7.9272    6.3239   27.3851 C   0  0  0  0  0  0  0  0  0  0  0  0
   -9.0511    7.1860   27.0710 C   0  0  0  0  0  0  0  0  0  0  0  0
  -13.1966    1.6182   22.1375 F   0  0  0  0  0  0  0  0  0  0  0  0
  -12.3486    3.6385   26.4900 C   0  0  0  0  0  0  0  0  0  0  0  0
  -11.6842    3.8440   27.5651 C   0  0  0  0  0  0  0  0  0  0  0  0
  -12.3757    4.3811   28.7404 C   0  0  0  0  0  0  0  0  0  0  0  0
  -13.7448    4.5529   28.6521 C   0  0  0  0  0  0  0  0  0  0  0  0
  -13.7791    3.9184   26.7552 C   0  0  0  0  0  0  0  0  0  0  0  0
  -14.4059    4.4092   27.5874 C   0  0  0  0  0  0  0  0  0  0  0  0
  -15.8485    4.6990   27.5092 C   0  0  0  0  0  0  0  0  0  0  0  0
  -16.6581    5.0346   28.1482 N   0  0  0  0  0  0  0  0  0  0  0  0
  -16.3412    4.5773   26.0205 C   0  0  0  0  0  0  0  0  0  0  0  0
  -17.9590    5.2959   28.0499 C   0  0  0  0  0  0  0  0  0  0  0  0
  -17.6503    4.7655   25.7578 C   0  0  0  0  0  0  0  0  0  0  0  0
  -18.4719    5.1629   26.8078 C   0  0  0  0  0  0  0  0  0  0  0  0
  1  4  1  0
  5  8  1  0
  7 14  1  0
 14 15  2  0
 13 16  1  0
  9 17  1  0
 22 23  1  0
 17 18  2  0
 18 19  1  0
 19 20  2  0
 20 22  1  0
 22 21  2  0
 21 17  1  0
  8  9  2  0
  9 12  1  0
 12 13  2  0
 13 11  1  0
 11 10  2  0
 10  8  1  0
 23 24  2  0
 24 26  1  0
 26 28  2  0
 28 27  1  0
 27 25  2  0
 25 23  1  0
  1  2  2  0
  2  3  1  0
  3  5  2  0
  5  6  1  0
  6  7  2  0
  7  1  1  0
M  END
$$$$
