No_8271-complexes_sdf/6BKW-FPZ/2024-09-17-14-21-01/
     RDKit          3D

 18 20  0  0  0  0  0  0  0  0999 V2000
   -7.7129    4.2099   27.0854 C   0  0  0  0  0  0  0  0  0  0  0  0
   -8.2112    3.0637   26.9225 C   0  0  0  0  0  0  0  0  0  0  0  0
   -9.4446    2.8304   26.1868 C   0  0  0  0  0  0  0  0  0  0  0  0
   -8.4697    5.3956   26.7238 C   0  0  0  0  0  0  0  0  0  0  0  0
   -9.6172    5.2111   25.9513 C   0  0  0  0  0  0  0  0  0  0  0  0
  -10.0424    3.9782   25.6873 C   0  0  0  0  0  0  0  0  0  0  0  0
   -8.1318    6.7643   27.0481 C   0  0  0  0  0  0  0  0  0  0  0  0
   -8.6538    7.6987   26.7642 F   0  0  0  0  0  0  0  0  0  0  0  0
   -6.9318    6.7683   27.7764 F   0  0  0  0  0  0  0  0  0  0  0  0
   -7.7034    1.7006   27.3256 C   0  0  0  0  0  0  0  0  0  0  0  0
   -8.3256    0.5080   27.3187 C   0  0  0  0  0  0  0  0  0  0  0  0
   -9.6178    0.5638   26.6436 C   0  0  0  0  0  0  0  0  0  0  0  0
  -10.1272    1.6425   26.0416 C   0  0  0  0  0  0  0  0  0  0  0  0
   -7.7399   -0.6527   27.8709 C   0  0  0  0  0  0  0  0  0  0  0  0
   -8.5305   -1.7515   28.2799 C   0  0  0  0  0  0  0  0  0  0  0  0
   -9.9324   -1.6439   27.8453 C   0  0  0  0  0  0  0  0  0  0  0  0
  -10.3976   -0.6241   27.0460 C   0  0  0  0  0  0  0  0  0  0  0  0
   -7.9529   -3.0485   29.0993 Cl  0  0  0  0  0  0  0  0  0  0  0  0
  4  7  1  0
  7  8  1  0
  7  9  1  0
 15 18  1  0
  1  2  2  0
  3  6  2  0
  6  5  1  0
  5  4  2  0
  4  1  1  0
  2  3  1  0
  3 13  1  0
 13 12  2  0
 11 10  2  0
 10  2  1  0
 11 12  1  0
 12 17  1  0
 17 16  2  0
 16 15  1  0
 15 14  2  0
 14 11  1  0
M  END
$$$$
