No_8070-complexes_sdf/6BKW-FPZ/2024-09-17-14-21-01/
     RDKit          3D

 40 45  0  0  0  0  0  0  0  0999 V2000
   -7.9040    3.9820   27.1177 C   0  0  0  0  0  0  0  0  0  0  0  0
   -9.0711    4.3164   27.0630 C   0  0  0  0  0  0  0  0  0  0  0  0
   -9.5294    5.4517   27.7215 C   0  0  0  0  0  0  0  0  0  0  0  0
   -6.9328    4.7309   27.8881 C   0  0  0  0  0  0  0  0  0  0  0  0
   -7.3666    5.8455   28.5488 C   0  0  0  0  0  0  0  0  0  0  0  0
   -8.6669    6.2428   28.4199 C   0  0  0  0  0  0  0  0  0  0  0  0
  -10.1698    3.6149   26.3541 C   0  0  0  0  0  0  0  0  0  0  0  0
  -10.2385    3.8109   25.0074 C   0  0  0  0  0  0  0  0  0  0  0  0
  -11.0417    3.1433   24.1122 C   0  0  0  0  0  0  0  0  0  0  0  0
  -11.9672    2.2794   24.6808 C   0  0  0  0  0  0  0  0  0  0  0  0
  -11.0277    2.6699   26.8356 C   0  0  0  0  0  0  0  0  0  0  0  0
  -11.9552    1.9894   26.0706 C   0  0  0  0  0  0  0  0  0  0  0  0
  -11.0889    3.5056   22.7027 C   0  0  0  0  0  0  0  0  0  0  0  0
  -10.9909    4.7777   22.3176 C   0  0  0  0  0  0  0  0  0  0  0  0
  -11.1370    2.4860   21.7541 C   0  0  0  0  0  0  0  0  0  0  0  0
  -11.1200    2.7709   20.3794 C   0  0  0  0  0  0  0  0  0  0  0  0
  -10.9363    5.1197   20.9137 C   0  0  0  0  0  0  0  0  0  0  0  0
  -10.9810    4.0964   19.9770 C   0  0  0  0  0  0  0  0  0  0  0  0
  -10.9520    2.4153   28.3528 C   0  0  0  0  0  0  0  0  0  0  0  0
  -12.1967    2.4766   29.0308 C   0  0  0  0  0  0  0  0  0  0  0  0
  -12.9641    1.3574   29.2741 C   0  0  0  0  0  0  0  0  0  0  0  0
  -14.1824    1.5093   29.9747 C   0  0  0  0  0  0  0  0  0  0  0  0
  -14.5609    2.4575   30.1025 C   0  0  0  0  0  0  0  0  0  0  0  0
  -13.0135    3.5889   29.5102 C   0  0  0  0  0  0  0  0  0  0  0  0
  -14.0412    3.7413   30.0299 C   0  0  0  0  0  0  0  0  0  0  0  0
  -12.4063    0.1039   28.9640 N   0  0  0  0  0  0  0  0  0  0  0  0
  -12.6157   -1.0084   29.5379 C   0  0  0  0  0  0  0  0  0  0  0  0
  -11.7740   -2.1281   29.1186 C   0  0  0  0  0  0  0  0  0  0  0  0
  -10.9185   -1.6920   28.1405 C   0  0  0  0  0  0  0  0  0  0  0  0
  -11.2229   -0.2307   28.0045 C   0  0  0  0  0  0  0  0  0  0  0  0
   -9.9400   -2.3303   27.4517 C   0  0  0  0  0  0  0  0  0  0  0  0
   -9.7702   -3.5090   27.5377 C   0  0  0  0  0  0  0  0  0  0  0  0
   -9.0871   -1.5393   26.5611 C   0  0  0  0  0  0  0  0  0  0  0  0
   -8.3594   -2.0588   25.6790 C   0  0  0  0  0  0  0  0  0  0  0  0
   -8.8409   -4.2167   26.5870 C   0  0  0  0  0  0  0  0  0  0  0  0
   -8.1065   -3.4308   25.7423 C   0  0  0  0  0  0  0  0  0  0  0  0
   -7.4997   -1.2046   24.7773 C   0  0  0  0  0  0  0  0  0  0  0  0
   -6.3338   -0.7236   25.1167 C   0  0  0  0  0  0  0  0  0  0  0  0
   -8.1126   -0.8198   23.5289 C   0  0  0  0  0  0  0  0  0  0  0  0
   -9.3584   -0.8803   23.1962 C   0  0  0  0  0  0  0  0  0  0  0  0
  2  7  1  0
  9 13  1  0
 11 19  1  0
 19 20  1  0
 21 26  1  0
 26 27  1  0
 27 28  2  0
 28 29  1  0
 26 30  1  0
 29 30  2  0
 29 31  1  0
 34 37  1  0
 37 38  2  0
 37 39  1  0
 39 40  1  0
  1  2  2  0
  2  3  1  0
  3  6  2  0
  6  5  1  0
  5  4  2  0
  4  1  1  0
 31 32  2  0
 32 35  1  0
 35 36  2  0
 36 34  1  0
 34 33  2  0
 33 31  1  0
 20 21  1  0
 21 22  2  0
 22 23  1  0
 23 25  2  0
 25 24  1  0
 24 20  2  0
 13 14  2  0
 14 17  1  0
 17 18  2  0
 18 16  1  0
 16 15  2  0
 15 13  1  0
  7  8  2  0
  8  9  1  0
  9 10  2  0
 10 12  1  0
 12 11  2  0
 11  7  1  0
M  END
$$$$
