No_8396-complexes_sdf/6BKW-FPZ/2024-09-17-14-21-01/
     RDKit          3D

 10 10  0  0  0  0  0  0  0  0999 V2000
   -7.9040    3.9820   27.1177 C   0  0  0  0  0  0  0  0  0  0  0  0
   -9.0711    4.3164   27.0630 C   0  0  0  0  0  0  0  0  0  0  0  0
   -9.8698    3.9665   25.9495 C   0  0  0  0  0  0  0  0  0  0  0  0
   -7.4046    2.7946   26.4568 C   0  0  0  0  0  0  0  0  0  0  0  0
   -8.3659    2.1310   25.6816 C   0  0  0  0  0  0  0  0  0  0  0  0
   -9.5390    2.7825   25.4030 C   0  0  0  0  0  0  0  0  0  0  0  0
   -6.7904    4.6933   28.2959 Cl  0  0  0  0  0  0  0  0  0  0  0  0
  -10.4510    2.1780   24.3668 C   0  0  0  0  0  0  0  0  0  0  0  0
  -10.9482    2.6837   23.4237 C   0  0  0  0  0  0  0  0  0  0  0  0
  -11.7843    2.1035   22.3978 C   0  0  0  0  0  0  0  0  0  0  0  0
  1  7  1  0
  6  8  1  0
  8  9  2  3
  9 10  1  0
  1  2  2  0
  2  3  1  0
  3  6  2  0
  6  5  1  0
  5  4  2  0
  4  1  1  0
M  END
$$$$
