No_8339-complexes_sdf/6BKW-FPZ/2024-09-17-14-21-01/
     RDKit          3D

 18 20  0  0  0  0  0  0  0  0999 V2000
   -7.2496    3.8871   27.4508 C   0  0  0  0  0  0  0  0  0  0  0  0
   -7.9379    4.9063   27.8518 C   0  0  0  0  0  0  0  0  0  0  0  0
   -7.5112    6.1898   27.6280 C   0  0  0  0  0  0  0  0  0  0  0  0
   -7.8078    2.6331   27.2522 C   0  0  2  0  0  0  0  0  0  0  0  0
   -9.1846    2.4724   27.5426 C   0  0  1  0  0  0  0  0  0  0  0  0
   -9.9168    3.5155   28.0405 C   0  0  0  0  0  0  0  0  0  0  0  0
   -9.3366    4.7963   28.1727 C   0  0  0  0  0  0  0  0  0  0  0  0
  -11.3251    3.2741   28.4031 C   0  0  0  0  0  0  0  0  0  0  0  0
  -11.8022    2.0322   28.7055 C   0  0  0  0  0  0  0  0  0  0  0  0
  -13.1146    1.8250   29.1070 C   0  0  0  0  0  0  0  0  0  0  0  0
  -13.9407    2.9390   29.3089 C   0  0  0  0  0  0  0  0  0  0  0  0
  -13.5179    4.2135   28.9982 C   0  0  0  0  0  0  0  0  0  0  0  0
  -12.2019    4.4090   28.5808 C   0  0  0  0  0  0  0  0  0  0  0  0
   -7.0583    1.4361   26.8675 C   0  0  0  0  0  0  0  0  0  0  0  0
   -7.5760    0.5669   26.0340 N   0  0  0  0  0  0  0  0  0  0  0  0
   -8.5022    0.7334   25.1964 C   0  0  0  0  0  0  0  0  0  0  0  0
   -9.5330    1.1010   25.2199 C   0  0  0  0  0  0  0  0  0  0  0  0
   -9.9935    1.5731   26.6308 C   0  0  0  0  0  0  0  0  0  0  0  0
  1  2  1  0
  2  3  2  0
  4  1  1  1
  4  5  1  0
  5  6  1  0
  2  7  1  0
  6  7  1  0
  6  8  1  0
  4 14  1  0
 14 15  1  0
 15 16  1  0
 16 17  2  0
  5 18  1  6
 17 18  1  0
  8  9  2  0
  9 10  1  0
 10 11  2  0
 11 12  1  0
 12 13  2  0
 13  8  1  0
M  END
$$$$
