No_8771-complexes_sdf/6BKW-FPZ/2024-09-17-14-21-01/
     RDKit          3D

 17 18  0  0  0  0  0  0  0  0999 V2000
   -7.9040    3.9820   27.1177 C   0  0  0  0  0  0  0  0  0  0  0  0
   -9.0711    4.3164   27.0630 C   0  0  0  0  0  0  0  0  0  0  0  0
  -10.0395    3.8218   27.1938 C   0  0  0  0  0  0  0  0  0  0  0  0
   -7.6424    2.5858   27.3610 C   0  0  0  0  0  0  0  0  0  0  0  0
   -6.3587    2.0254   27.5043 C   0  0  0  0  0  0  0  0  0  0  0  0
  -10.0535    2.3534   27.5126 C   0  0  0  0  0  0  0  0  0  0  0  0
   -8.7612    1.7909   27.6094 C   0  0  0  0  0  0  0  0  0  0  0  0
   -5.2554    2.7106   28.0971 C   0  0  0  0  0  0  0  0  0  0  0  0
   -6.2687    0.5701   27.5611 C   0  0  0  0  0  0  0  0  0  0  0  0
   -5.0140   -0.0322   27.7128 C   0  0  0  0  0  0  0  0  0  0  0  0
   -3.9254    0.7116   28.1492 C   0  0  0  0  0  0  0  0  0  0  0  0
   -4.0576    2.0675   28.3380 N   0  0  0  0  0  0  0  0  0  0  0  0
   -9.1759    5.9524   26.7125 C   0  0  0  0  0  0  0  0  0  0  0  0
   -8.8294    7.0002   26.8884 N   0  0  0  0  0  0  0  0  0  0  0  0
  -11.2401    1.5739   27.7708 C   0  0  0  0  0  0  0  0  0  0  0  0
  -12.1410    2.0228   28.5109 N   0  0  0  0  0  0  0  0  0  0  0  0
  -13.2049    1.2672   28.9831 C   0  0  0  0  0  0  0  0  0  0  0  0
  4  5  1  0
  2 13  1  0
 13 14  3  0
  6 15  1  0
 15 16  2  3
 16 17  1  0
  1  2  2  0
  2  3  1  0
  3  6  2  0
  6  7  1  0
  7  4  2  0
  4  1  1  0
  5  8  2  0
  8 12  1  0
 12 11  2  0
 11 10  1  0
 10  9  2  0
  9  5  1  0
M  END
$$$$
