No_8020-complexes_sdf/6BKW-FPZ/2024-09-17-14-21-01/
     RDKit          3D

 40 47  0  0  0  0  0  0  0  0999 V2000
   -7.9040    3.9820   27.1177 C   0  0  0  0  0  0  0  0  0  0  0  0
   -8.2057    2.8231   26.8733 C   0  0  0  0  0  0  0  0  0  0  0  0
   -8.7695    5.0740   26.7916 C   0  0  0  0  0  0  0  0  0  0  0  0
   -9.9618    4.7598   26.1630 C   0  0  0  0  0  0  0  0  0  0  0  0
   -9.4200    2.4524   26.2849 C   0  0  0  0  0  0  0  0  0  0  0  0
  -10.2590    3.4815   25.9250 C   0  0  0  0  0  0  0  0  0  0  0  0
   -8.6094    6.4941   27.0911 C   0  0  0  0  0  0  0  0  0  0  0  0
   -8.8035    6.8205   28.2448 F   0  0  0  0  0  0  0  0  0  0  0  0
   -7.1726    6.7847   26.9551 F   0  0  0  0  0  0  0  0  0  0  0  0
   -9.1134    7.2947   26.1540 F   0  0  0  0  0  0  0  0  0  0  0  0
   -7.2623    1.6922   27.3079 C   0  0  0  0  0  0  0  0  0  0  0  0
   -7.6149    0.3188   27.2471 C   0  0  0  0  0  0  0  0  0  0  0  0
   -6.7210   -0.6295   27.6680 C   0  0  0  0  0  0  0  0  0  0  0  0
   -5.4210   -0.2081   28.1045 C   0  0  0  0  0  0  0  0  0  0  0  0
   -5.0798    1.1417   28.1085 C   0  0  0  0  0  0  0  0  0  0  0  0
   -5.9236    2.0524   27.7438 C   0  0  0  0  0  0  0  0  0  0  0  0
   -4.4720   -1.2452   28.6204 C   0  0  0  0  0  0  0  0  0  0  0  0
   -3.3222   -1.0348   28.5915 C   0  0  0  0  0  0  0  0  0  0  0  0
   -2.3080   -2.0030   29.0633 C   0  0  0  0  0  0  0  0  0  0  0  0
   -2.8089   -3.1442   29.6021 C   0  0  0  0  0  0  0  0  0  0  0  0
   -4.9011   -2.4379   29.2197 C   0  0  0  0  0  0  0  0  0  0  0  0
   -6.4003   -2.5930   29.3191 C   0  0  1  0  0  0  0  0  0  0  0  0
   -4.1042   -3.3429   29.7432 C   0  0  0  0  0  0  0  0  0  0  0  0
   -7.2440   -1.8452   28.3713 C   0  0  0  0  0  0  0  0  0  0  0  0
   -6.9023   -4.0699   29.3107 C   0  0  0  0  0  0  0  0  0  0  0  0
   -8.2009   -4.0866   29.5298 C   0  0  2  0  0  0  0  0  0  0  0  0
   -9.0707   -3.4160   28.5605 C   0  0  2  0  0  0  0  0  0  0  0  0
   -8.5913   -2.2502   28.0936 C   0  0  0  0  0  0  0  0  0  0  0  0
  -10.4889   -3.1627   29.1489 C   0  0  0  0  0  0  0  0  0  0  0  0
  -11.3804   -2.8663   28.3469 C   0  0  0  0  0  0  0  0  0  0  0  0
  -12.5622   -2.3582   28.8375 C   0  0  0  0  0  0  0  0  0  0  0  0
  -12.8540   -2.4025   30.2128 C   0  0  0  0  0  0  0  0  0  0  0  0
  -11.8806   -2.7641   31.1062 C   0  0  0  0  0  0  0  0  0  0  0  0
  -10.6440   -3.0672   30.6094 C   0  0  0  0  0  0  0  0  0  0  0  0
   -9.3568   -4.3742   27.4014 C   0  0  0  0  0  0  0  0  0  0  0  0
  -10.2113   -4.2968   26.5839 C   0  0  0  0  0  0  0  0  0  0  0  0
  -11.4383   -3.3732   26.9936 C   0  0  0  0  0  0  0  0  0  0  0  0
   -8.6337   -3.5728   30.9309 C   0  0  0  0  0  0  0  0  0  0  0  0
   -9.6739   -3.0499   31.5732 C   0  0  0  0  0  0  0  0  0  0  0  0
   -8.5971   -5.6465   29.6983 C   0  0  0  0  0  0  0  0  0  0  0  0
  3  7  1  0
  7  8  1  0
  7  9  1  0
  7 10  1  0
  2 11  1  0
 14 17  1  0
 21 22  1  0
 13 24  1  0
 22 25  1  6
 25 26  1  0
 26 27  1  0
 24 28  1  0
 27 28  1  6
 27 29  1  0
 27 35  1  0
 30 37  1  0
 36 37  1  0
 26 38  1  0
 34 39  1  0
 38 39  1  0
 26 40  1  1
 22 24  1  0
 36 35  1  0
 11 12  2  0
 12 13  1  0
 13 14  2  0
 14 15  1  0
 15 16  2  0
 16 11  1  0
 17 18  2  0
 18 19  1  0
 19 20  2  0
 20 23  1  0
 23 21  2  0
 21 17  1  0
 29 30  2  0
 30 31  1  0
 31 32  2  0
 32 33  1  0
 33 34  2  0
 34 29  1  0
  1  2  2  0
  2  5  1  0
  5  6  2  0
  6  4  1  0
  4  3  2  0
  3  1  1  0
M  END
$$$$
