No_8078-complexes_sdf/6BKW-FPZ/2024-09-17-14-21-01/
     RDKit          3D

 11 12  0  0  0  0  0  0  0  0999 V2000
   -7.7129    4.2099   27.0854 C   0  0  0  0  0  0  0  0  0  0  0  0
   -8.2112    3.0637   26.9225 C   0  0  0  0  0  0  0  0  0  0  0  0
   -9.5629    2.7997   27.0678 C   0  0  0  0  0  0  0  0  0  0  0  0
   -8.5911    5.3704   27.2036 C   0  0  0  0  0  0  0  0  0  0  0  0
   -9.9544    5.1489   27.1401 C   0  0  0  0  0  0  0  0  0  0  0  0
  -10.4577    3.9280   27.0818 C   0  0  0  0  0  0  0  0  0  0  0  0
   -8.0506    6.5773   27.3166 F   0  0  0  0  0  0  0  0  0  0  0  0
  -10.0800    1.4067   26.9333 C   0  0  0  0  0  0  0  0  0  0  0  0
   -9.1848    0.4046   26.9900 C   0  0  0  0  0  0  0  0  0  0  0  0
   -7.7786    0.6972   26.9122 C   0  0  0  0  0  0  0  0  0  0  0  0
   -7.3019    1.9254   26.9577 C   0  0  0  0  0  0  0  0  0  0  0  0
  4  7  1  0
  1  2  2  0
  3  6  2  0
  6  5  1  0
  5  4  2  0
  4  1  1  0
  2  3  1  0
  3  8  1  0
  8  9  2  0
  9 10  1  0
 10 11  2  0
 11  2  1  0
M  END
$$$$
