No_8752-complexes_sdf/6BKW-FPZ/2024-09-17-14-21-01/
     RDKit          3D

 21 23  0  0  0  0  0  0  0  0999 V2000
   -7.2496    3.8871   27.4508 C   0  0  0  0  0  0  0  0  0  0  0  0
   -7.9379    4.9063   27.8518 C   0  0  0  0  0  0  0  0  0  0  0  0
   -9.3376    4.8647   27.7795 C   0  0  0  0  0  0  0  0  0  0  0  0
   -7.8544    2.6294   27.0414 C   0  0  0  0  0  0  0  0  0  0  0  0
   -9.2852    2.6570   27.0666 C   0  0  0  0  0  0  0  0  0  0  0  0
  -10.0126    3.7528   27.4890 C   0  0  0  0  0  0  0  0  0  0  0  0
  -11.4946    3.6924   27.5201 C   0  0  0  0  0  0  0  0  0  0  0  0
  -12.0181    2.6419   28.0792 C   0  0  0  0  0  0  0  0  0  0  0  0
  -13.4558    2.4682   28.2694 C   0  0  0  0  0  0  0  0  0  0  0  0
  -14.2214    3.5827   27.8675 C   0  0  0  0  0  0  0  0  0  0  0  0
  -13.6463    4.6925   27.3441 C   0  0  0  0  0  0  0  0  0  0  0  0
  -12.2538    4.8357   27.2257 C   0  0  0  0  0  0  0  0  0  0  0  0
   -7.1387    1.4721   26.7399 C   0  0  0  0  0  0  0  0  0  0  0  0
   -7.2769    0.4597   27.3626 N   0  0  0  0  0  0  0  0  0  0  0  0
   -6.3614   -0.5061   27.4848 C   0  0  0  0  0  0  0  0  0  0  0  0
   -5.6552   -0.6406   28.6118 C   0  0  0  0  0  0  0  0  0  0  0  0
   -5.6540    0.3563   29.6241 C   0  0  0  0  0  0  0  0  0  0  0  0
   -4.7089    0.2393   30.7270 C   0  0  0  0  0  0  0  0  0  0  0  0
   -3.8109   -0.8577   30.8072 C   0  0  0  0  0  0  0  0  0  0  0  0
   -3.7620   -1.7897   29.8306 C   0  0  0  0  0  0  0  0  0  0  0  0
   -4.6173   -1.6742   28.7328 C   0  0  0  0  0  0  0  0  0  0  0  0
  6  7  1  0
  4 13  1  0
 13 14  1  0
 14 15  1  0
 15 16  1  0
  1  2  2  0
  2  3  1  0
  3  6  2  0
  6  5  1  0
  5  4  2  0
  4  1  1  0
  7  8  2  0
  8  9  1  0
  9 10  2  0
 10 11  1  0
 11 12  2  0
 12  7  1  0
 16 17  2  0
 17 18  1  0
 18 19  2  0
 19 20  1  0
 20 21  2  0
 21 16  1  0
M  END
$$$$
