No_8205-complexes_sdf/6BKW-FPZ/2024-09-17-14-21-01/
     RDKit          3D

 27 29  0  0  0  0  0  0  0  0999 V2000
   -7.7129    4.2099   27.0854 C   0  0  0  0  0  0  0  0  0  0  0  0
   -8.2112    3.0637   26.9225 C   0  0  0  0  0  0  0  0  0  0  0  0
   -7.5138    1.9223   27.4249 C   0  0  0  0  0  0  0  0  0  0  0  0
   -8.5309    5.4147   26.8151 C   0  0  0  0  0  0  0  0  0  0  0  0
   -9.6817    5.2393   26.1100 C   0  0  0  0  0  0  0  0  0  0  0  0
  -10.1032    3.9957   25.8534 C   0  0  0  0  0  0  0  0  0  0  0  0
   -9.4034    2.8430   26.2573 C   0  0  0  0  0  0  0  0  0  0  0  0
   -6.8643    1.0176   26.6720 C   0  0  0  0  0  0  0  0  0  0  0  0
   -6.1576   -0.0541   27.2672 C   0  0  2  0  0  0  0  0  0  0  0  0
   -5.1482   -0.2456   27.2628 C   0  0  0  0  0  0  0  0  0  0  0  0
   -4.3958   -1.3077   27.9936 C   0  0  0  0  0  0  0  0  0  0  0  0
   -3.0205   -1.4349   28.1514 C   0  0  0  0  0  0  0  0  0  0  0  0
   -2.2213   -0.5020   27.4098 C   0  0  0  0  0  0  0  0  0  0  0  0
   -2.7905    0.4900   26.6900 C   0  0  0  0  0  0  0  0  0  0  0  0
   -4.1136    0.6868   26.7181 C   0  0  0  0  0  0  0  0  0  0  0  0
   -7.9834    6.7708   27.0470 C   0  0  0  0  0  0  0  0  0  0  0  0
   -8.6887    7.7734   26.8652 F   0  0  0  0  0  0  0  0  0  0  0  0
   -7.6478    6.7438   28.5018 F   0  0  0  0  0  0  0  0  0  0  0  0
   -7.1815   -1.0298   27.8470 C   0  0  0  0  0  0  0  0  0  0  0  0
   -6.7880    7.0125   26.5497 F   0  0  0  0  0  0  0  0  0  0  0  0
   -7.0141   -1.6411   28.8564 N   0  0  0  0  0  0  0  0  0  0  0  0
   -7.9327   -2.5111   29.3893 C   0  0  0  0  0  0  0  0  0  0  0  0
   -8.2460   -1.2042   27.1539 O   0  0  0  0  0  0  0  0  0  0  0  0
   -7.6775   -2.8718   30.7453 C   0  0  0  0  0  0  0  0  0  0  0  0
   -6.5784   -2.4158   31.4312 C   0  0  0  0  0  0  0  0  0  0  0  0
   -5.7109   -1.5174   30.8224 C   0  0  0  0  0  0  0  0  0  0  0  0
   -5.9078   -1.1137   29.6772 C   0  0  0  0  0  0  0  0  0  0  0  0
  2  3  1  0
  3  8  2  3
  8  9  1  0
  4 16  1  0
 16 17  1  0
 16 18  1  0
  9 19  1  6
 16 20  1  0
 19 21  1  0
 21 22  1  0
 19 23  2  0
 22 24  1  0
 24 25  1  0
 21 27  1  0
 26 27  1  0
  9 10  1  0
 25 26  1  0
  1  2  2  0
  2  7  1  0
  7  6  2  0
  6  5  1  0
  5  4  2  0
  4  1  1  0
 10 11  2  0
 11 12  1  0
 12 13  2  0
 13 14  1  0
 14 15  2  0
 15 10  1  0
M  END
$$$$
