No_8626-complexes_sdf/6BKW-FPZ/2024-09-17-14-21-01/
     RDKit          3D

 15 16  0  0  0  0  0  0  0  0999 V2000
   -7.9040    3.9820   27.1177 C   0  0  0  0  0  0  0  0  0  0  0  0
   -9.0711    4.3164   27.0630 C   0  0  1  0  0  0  0  0  0  0  0  0
  -10.0395    3.8218   27.1938 C   0  0  0  0  0  0  0  0  0  0  0  0
   -7.6268    2.6146   27.2991 C   0  0  0  0  0  0  0  0  0  0  0  0
  -11.4392    4.2704   27.1389 C   0  0  0  0  0  0  0  0  0  0  0  0
   -8.7280    1.7900   27.3609 C   0  0  0  0  0  0  0  0  0  0  0  0
   -9.9624    2.3500   27.3691 C   0  0  0  0  0  0  0  0  0  0  0  0
   -6.3587    1.8946   27.4889 C   0  0  0  0  0  0  0  0  0  0  0  0
   -5.2413    2.6007   28.1065 C   0  0  0  0  0  0  0  0  0  0  0  0
   -6.2033    0.5761   27.1204 C   0  0  0  0  0  0  0  0  0  0  0  0
  -12.1161    4.7596   28.4802 C   0  0  0  0  0  0  0  0  0  0  0  0
   -6.9816   -0.0651   26.5935 N   0  0  0  0  0  0  0  0  0  0  0  0
   -8.6060    0.3175   27.3752 C   0  0  0  0  0  0  0  0  0  0  0  0
   -9.0911    6.0104   26.9140 C   0  0  0  0  0  0  0  0  0  0  0  0
   -7.8744    6.7745   27.2123 C   0  0  0  0  0  0  0  0  0  0  0  0
  1  2  1  0
  2  3  1  0
  1  4  1  0
  3  5  2  3
  3  7  1  0
  6  7  1  0
  8  9  1  0
  5 11  1  0
  2 14  1  1
 14 15  1  0
  4  6  2  0
  6 13  1  0
 13 12  2  0
 12 10  1  0
 10  8  2  0
  8  4  1  0
M  END
$$$$
