No_8681-complexes_sdf/6BKW-FPZ/2024-09-17-14-21-01/
     RDKit          3D

 25 26  0  0  0  0  0  0  0  0999 V2000
   -7.7129    4.2099   27.0854 C   0  0  0  0  0  0  0  0  0  0  0  0
   -8.2112    3.0637   26.9225 C   0  0  0  0  0  0  0  0  0  0  0  0
   -8.5108    5.3904   26.9436 C   0  0  0  0  0  0  0  0  0  0  0  0
   -7.9752    6.6981   27.2112 C   0  0  0  0  0  0  0  0  0  0  0  0
   -9.5213    2.8208   26.4688 C   0  0  0  0  0  0  0  0  0  0  0  0
  -10.2979    3.9327   26.2378 C   0  0  0  0  0  0  0  0  0  0  0  0
   -9.7894    5.2123   26.4395 C   0  0  0  0  0  0  0  0  0  0  0  0
   -7.4035    1.9046   27.1655 N   0  0  0  0  0  0  0  0  0  0  0  0
   -6.1848    2.0067   27.8200 C   0  0  0  0  0  0  0  0  0  0  0  0
   -5.4431    0.7229   28.0221 C   0  0  0  0  0  0  0  0  0  0  0  0
   -6.1649   -0.3537   27.6692 C   0  0  0  0  0  0  0  0  0  0  0  0
   -7.6093    0.5111   27.0558 C   0  0  0  0  0  0  0  0  0  0  0  0
   -8.6369    7.8067   26.8231 N   0  0  0  0  0  0  0  0  0  0  0  0
   -6.8348    6.7973   27.7721 O   0  0  0  0  0  0  0  0  0  0  0  0
   -4.1253    0.6445   28.6232 C   0  0  0  0  0  0  0  0  0  0  0  0
   -3.6939   -0.3732   29.1637 N   0  0  0  0  0  0  0  0  0  0  0  0
   -3.4242   -0.5732   30.3685 C   0  0  0  0  0  0  0  0  0  0  0  0
   -3.2874    0.4303   31.1484 F   0  0  0  0  0  0  0  0  0  0  0  0
   -3.1983   -1.8750   30.9625 C   0  0  0  0  0  0  0  0  0  0  0  0
   -3.5211   -2.0775   32.0487 O   0  0  0  0  0  0  0  0  0  0  0  0
   -3.5239   -1.4140   28.1531 C   0  0  0  0  0  0  0  0  0  0  0  0
   -3.7027   -1.0935   32.9056 C   0  0  0  0  0  0  0  0  0  0  0  0
   -3.9676   -1.5354   34.3297 C   0  0  0  0  0  0  0  0  0  0  0  0
   -3.2149   -1.8983   34.9672 Cl  0  0  0  0  0  0  0  0  0  0  0  0
   -5.1789   -2.3489   34.0299 F   0  0  0  0  0  0  0  0  0  0  0  0
  3  4  1  0
  2  8  1  0
  8  9  1  0
  9 10  2  0
 10 11  1  0
  8 12  1  0
 11 12  2  0
  4 13  1  0
  4 14  2  0
 10 15  1  0
 15 16  1  0
 16 17  1  0
 17 18  1  0
 17 19  1  0
 19 20  1  0
 16 21  1  0
 20 22  1  0
 22 23  2  3
 23 24  1  0
 23 25  1  0
  1  2  2  0
  2  5  1  0
  5  6  2  0
  6  7  1  0
  7  3  2  0
  3  1  1  0
M  END
$$$$
