No_8269-complexes_sdf/6BKW-FPZ/2024-09-17-14-21-01/
     RDKit          3D

 13 13  0  0  0  0  0  0  0  0999 V2000
   -7.7129    4.2099   27.0854 C   0  0  0  0  0  0  0  0  0  0  0  0
   -8.2112    3.0637   26.9225 C   0  0  0  0  0  0  0  0  0  0  0  0
   -9.4446    2.8304   26.1868 C   0  0  0  0  0  0  0  0  0  0  0  0
   -8.4697    5.3956   26.7238 C   0  0  0  0  0  0  0  0  0  0  0  0
   -8.0091    6.7588   26.9904 C   0  0  0  0  0  0  0  0  0  0  0  0
  -10.1208    3.9213   25.7408 C   0  0  0  0  0  0  0  0  0  0  0  0
   -9.5939    5.2027   25.9665 C   0  0  0  0  0  0  0  0  0  0  0  0
   -8.6060    7.8403   26.5809 N   0  0  0  0  0  0  0  0  0  0  0  0
   -7.2515    6.8334   28.1366 O   0  0  0  0  0  0  0  0  0  0  0  0
   -7.5031    1.5234   27.4313 Cl  0  0  0  0  0  0  0  0  0  0  0  0
  -11.3075    3.8163   24.9338 C   0  0  0  0  0  0  0  0  0  0  0  0
  -11.3837    4.0602   23.8437 C   0  0  0  0  0  0  0  0  0  0  0  0
  -12.5669    3.9646   22.9350 C   0  0  0  0  0  0  0  0  0  0  0  0
  4  5  1  0
  5  8  1  0
  5  9  2  0
  2 10  1  0
  6 11  1  0
 11 12  2  3
 12 13  1  0
  1  2  2  0
  2  3  1  0
  3  6  2  0
  6  7  1  0
  7  4  2  0
  4  1  1  0
M  END
$$$$
