No_8870-complexes_sdf/6BKW-FPZ/2024-09-17-14-21-01/
     RDKit          3D

 34 38  0  0  0  0  0  0  0  0999 V2000
   -7.7129    4.2099   27.0854 C   0  0  0  0  0  0  0  0  0  0  0  0
   -8.2112    3.0637   26.9225 C   0  0  0  0  0  0  0  0  0  0  0  0
   -8.5108    5.3904   26.9436 C   0  0  0  0  0  0  0  0  0  0  0  0
   -7.9752    6.6981   27.2112 C   0  0  0  0  0  0  0  0  0  0  0  0
   -9.5213    2.8208   26.4688 C   0  0  0  0  0  0  0  0  0  0  0  0
  -10.2979    3.9327   26.2378 C   0  0  0  0  0  0  0  0  0  0  0  0
   -9.7894    5.2123   26.4395 C   0  0  0  0  0  0  0  0  0  0  0  0
   -7.3451    1.8185   27.1796 C   0  0  0  0  0  0  0  0  0  0  0  0
   -7.7334    0.5959   26.9376 N   0  0  0  0  0  0  0  0  0  0  0  0
   -6.0194    2.0467   27.5185 N   0  0  0  0  0  0  0  0  0  0  0  0
   -6.7292   -0.2669   27.2607 C   0  0  1  0  0  0  0  0  0  0  0  0
   -5.6741    0.6023   27.6493 C   0  0  0  0  0  0  0  0  0  0  0  0
   -4.3078    0.2726   28.1773 C   0  0  0  0  0  0  0  0  0  0  0  0
   -4.0287   -0.9354   28.2015 C   0  0  0  0  0  0  0  0  0  0  0  0
   -4.7665   -1.8255   28.3331 C   0  0  0  0  0  0  0  0  0  0  0  0
   -6.6234   -1.5436   27.5244 C   0  0  0  0  0  0  0  0  0  0  0  0
   -5.6371   -2.0479   27.9618 C   0  0  0  0  0  0  0  0  0  0  0  0
   -8.6202    7.8103   26.8060 N   0  0  0  0  0  0  0  0  0  0  0  0
   -6.8429    6.7858   27.7932 O   0  0  0  0  0  0  0  0  0  0  0  0
   -3.5281    1.3961   28.3144 O   0  0  0  0  0  0  0  0  0  0  0  0
  -11.6372    3.7871   25.6572 C   0  0  0  0  0  0  0  0  0  0  0  0
  -11.7302    3.3380   24.3961 C   0  0  0  0  0  0  0  0  0  0  0  0
  -10.5832    2.9524   23.6418 C   0  0  0  0  0  0  0  0  0  0  0  0
  -10.6649    2.5016   22.2984 C   0  0  0  0  0  0  0  0  0  0  0  0
  -11.8656    2.5288   21.6503 C   0  0  0  0  0  0  0  0  0  0  0  0
  -12.9925    2.9862   22.3461 C   0  0  0  0  0  0  0  0  0  0  0  0
  -12.9312    3.4238   23.6130 C   0  0  0  0  0  0  0  0  0  0  0  0
  -12.7842    4.0978   26.4983 C   0  0  0  0  0  0  0  0  0  0  0  0
  -13.1902    3.1893   27.4023 C   0  0  0  0  0  0  0  0  0  0  0  0
  -12.7004    2.3650   27.9985 C   0  0  0  0  0  0  0  0  0  0  0  0
  -13.1908    1.5727   29.1210 C   0  0  0  0  0  0  0  0  0  0  0  0
  -14.4354    1.9574   29.6108 C   0  0  0  0  0  0  0  0  0  0  0  0
  -15.1198    2.9648   28.9635 C   0  0  0  0  0  0  0  0  0  0  0  0
  -14.6092    3.7380   27.9569 C   0  0  0  0  0  0  0  0  0  0  0  0
  3  4  1  0
  2  8  1  0
  8  9  1  0
  8 10  2  0
 11  9  1  1
 10 12  1  0
 11 12  1  0
 12 13  1  0
 13 14  1  0
 14 15  2  0
 11 16  1  0
 15 17  1  0
 16 17  2  0
  4 18  1  0
  4 19  2  0
 13 20  2  0
  6 21  1  0
 21 28  1  0
 28 29  1  0
 21 22  1  0
 29 30  2  0
 30 31  1  0
 31 32  2  0
 32 33  1  0
 33 34  2  0
 34 29  1  0
 22 23  2  0
 23 24  1  0
 24 25  2  0
 25 26  1  0
 26 27  2  0
 27 22  1  0
  1  2  2  0
  2  5  1  0
  5  6  2  0
  6  7  1  0
  7  3  2  0
  3  1  1  0
M  END
$$$$
