No_8430-complexes_sdf/6BKW-FPZ/2024-09-17-14-21-01/
     RDKit          3D

 23 26  0  0  0  0  0  0  0  0999 V2000
   -7.7129    4.2099   27.0854 C   0  0  0  0  0  0  0  0  0  0  0  0
   -8.9133    4.4736   27.0998 C   0  0  0  0  0  0  0  0  0  0  0  0
   -9.4643    5.5426   27.7628 C   0  0  0  0  0  0  0  0  0  0  0  0
   -7.2009    2.9448   26.6134 C   0  0  0  0  0  0  0  0  0  0  0  0
   -8.1365    1.9533   26.2981 C   0  0  1  0  0  0  0  0  0  0  0  0
   -9.4501    2.2651   26.2497 C   0  0  2  0  0  0  0  0  0  0  0  0
   -9.8615    3.4703   26.6763 C   0  0  0  0  0  0  0  0  0  0  0  0
   -7.5839    0.6450   25.9087 C   0  0  2  0  0  0  0  0  0  0  0  0
   -8.0981   -0.2944   26.4719 N   0  0  0  0  0  0  0  0  0  0  0  0
   -7.6272   -1.4737   26.6244 C   0  0  0  0  0  0  0  0  0  0  0  0
   -6.3675   -1.6630   26.2985 C   0  0  0  0  0  0  0  0  0  0  0  0
   -5.7108   -0.6294   25.6336 C   0  0  0  0  0  0  0  0  0  0  0  0
   -6.2691    0.5437   25.4504 C   0  0  0  0  0  0  0  0  0  0  0  0
   -9.5831   -0.1808   27.0951 C   0  0  0  0  0  0  0  0  0  0  0  0
  -10.1856    1.1296   27.1551 C   0  0  0  0  0  0  0  0  0  0  0  0
   -9.9027    1.8595   24.7823 C   0  0  0  0  0  0  0  0  0  0  0  0
  -11.3263    2.0054   24.5335 C   0  0  0  0  0  0  0  0  0  0  0  0
  -11.6580    1.7618   23.2963 C   0  0  0  0  0  0  0  0  0  0  0  0
   -8.2193   -2.4610   27.2775 O   0  0  0  0  0  0  0  0  0  0  0  0
  -10.7125    1.4102   22.3533 C   0  0  0  0  0  0  0  0  0  0  0  0
   -9.3447    1.2375   22.6143 C   0  0  0  0  0  0  0  0  0  0  0  0
   -9.0166    1.4987   23.8818 C   0  0  0  0  0  0  0  0  0  0  0  0
  -11.1619    3.8172   26.6784 O   0  0  0  0  0  0  0  0  0  0  0  0
  1  2  1  0
  2  3  2  0
  1  4  1  0
  5  4  1  6
  5  6  1  0
  2  7  1  0
  6  7  1  0
  5  8  1  0
  8  9  1  0
  9 10  1  0
 10 11  1  0
  8 13  1  1
 12 13  1  0
  9 14  1  0
  6 15  1  0
 14 15  1  0
  6 16  1  6
 10 19  2  0
  7 23  2  0
 12 11  1  0
 16 17  2  0
 17 18  1  0
 18 20  2  0
 20 21  1  0
 21 22  2  0
 22 16  1  0
M  END
$$$$
