No_8068-complexes_sdf/6BKW-FPZ/2024-09-17-14-21-01/
     RDKit          3D

 40 44  0  0  0  0  0  0  0  0999 V2000
   -7.2496    3.8871   27.4508 C   0  0  0  0  0  0  0  0  0  0  0  0
   -7.6161    2.7143   27.1523 C   0  0  0  0  0  0  0  0  0  0  0  0
   -8.8302    2.4659   26.5056 C   0  0  0  0  0  0  0  0  0  0  0  0
   -8.1584    5.0090   27.3234 C   0  0  0  0  0  0  0  0  0  0  0  0
   -9.3788    4.7965   26.7695 C   0  0  0  0  0  0  0  0  0  0  0  0
   -9.7028    3.5649   26.3276 C   0  0  0  0  0  0  0  0  0  0  0  0
   -6.7190    1.5585   27.3667 C   0  0  0  0  0  0  0  0  0  0  0  0
   -7.0504    0.2135   27.2455 C   0  0  0  0  0  0  0  0  0  0  0  0
   -6.2345   -0.7674   27.5419 C   0  0  0  0  0  0  0  0  0  0  0  0
   -4.9557   -0.4544   28.0963 C   0  0  0  0  0  0  0  0  0  0  0  0
   -4.5769    0.8583   28.2784 C   0  0  0  0  0  0  0  0  0  0  0  0
   -5.4112    1.8384   27.9807 C   0  0  0  0  0  0  0  0  0  0  0  0
   -7.6962    6.3607   27.7749 C   0  0  0  0  0  0  0  0  0  0  0  0
   -4.0328   -1.5875   28.5063 C   0  0  0  0  0  0  0  0  0  0  0  0
   -2.9590   -1.5114   28.4049 C   0  0  0  0  0  0  0  0  0  0  0  0
   -2.2905   -0.0912   28.2609 C   0  0  0  0  0  0  0  0  0  0  0  0
   -0.9347    0.0962   28.1864 C   0  0  0  0  0  0  0  0  0  0  0  0
   -3.2264    1.0464   28.2033 C   0  0  0  0  0  0  0  0  0  0  0  0
   -8.4345    7.4039   27.2679 N   0  0  0  0  0  0  0  0  0  0  0  0
  -10.9962    3.3723   25.6281 C   0  0  1  0  0  0  0  0  0  0  0  0
  -12.1174    3.3535   26.3103 C   0  0  0  0  0  0  0  0  0  0  0  0
  -12.0664    3.4186   27.7777 C   0  0  0  0  0  0  0  0  0  0  0  0
  -13.3247    3.5203   28.5596 C   0  0  0  0  0  0  0  0  0  0  0  0
  -14.4223    3.9230   27.9697 C   0  0  0  0  0  0  0  0  0  0  0  0
  -14.4771    4.0003   26.5619 C   0  0  0  0  0  0  0  0  0  0  0  0
  -13.3488    3.8639   25.7510 C   0  0  0  0  0  0  0  0  0  0  0  0
  -10.9128    3.6986   24.3456 C   0  0  0  0  0  0  0  0  0  0  0  0
  -11.2216    2.5533   23.4234 C   0  0  0  0  0  0  0  0  0  0  0  0
  -11.0814    2.7767   22.0416 C   0  0  0  0  0  0  0  0  0  0  0  0
  -11.2431    1.6865   21.1843 C   0  0  0  0  0  0  0  0  0  0  0  0
  -11.5883    0.4186   21.7080 C   0  0  0  0  0  0  0  0  0  0  0  0
  -11.7348    0.2891   23.0535 C   0  0  0  0  0  0  0  0  0  0  0  0
  -11.5260    1.3176   23.9297 C   0  0  0  0  0  0  0  0  0  0  0  0
  -13.1634    3.4215   30.0754 C   0  0  0  0  0  0  0  0  0  0  0  0
  -13.0349    4.4271   30.7056 F   0  0  0  0  0  0  0  0  0  0  0  0
  -11.9527    2.6781   30.3601 F   0  0  0  0  0  0  0  0  0  0  0  0
  -14.1208    2.5811   30.4681 F   0  0  0  0  0  0  0  0  0  0  0  0
  -10.6257    4.0462   21.4482 C   0  0  0  0  0  0  0  0  0  0  0  0
  -10.0912    4.1500   20.3704 O   0  0  0  0  0  0  0  0  0  0  0  0
  -11.1755    5.1935   22.0535 O   0  0  0  0  0  0  0  0  0  0  0  0
  2  7  1  0
  4 13  1  0
 16 17  1  0
 13 19  1  0
  6 20  1  0
 20 27  1  6
 23 34  1  0
 34 35  1  0
 34 36  1  0
 34 37  1  0
 29 38  1  0
 38 39  2  0
 38 40  1  0
 20 21  1  0
 27 28  1  0
  1  2  2  0
  2  3  1  0
  3  6  2  0
  6  5  1  0
  5  4  2  0
  4  1  1  0
  7  8  2  0
  8  9  1  0
  9 10  2  0
 11 12  2  0
 12  7  1  0
 10 11  1  0
 11 18  1  0
 18 16  2  0
 16 15  1  0
 15 14  2  0
 14 10  1  0
 28 29  2  0
 29 30  1  0
 30 31  2  0
 31 32  1  0
 32 33  2  0
 33 28  1  0
 21 22  2  0
 22 23  1  0
 23 24  2  0
 24 25  1  0
 25 26  2  0
 26 21  1  0
M  END
$$$$
