No_8953-complexes_sdf/6BKW-FPZ/2024-09-17-14-21-01/
     RDKit          3D

 27 30  0  0  0  0  0  0  0  0999 V2000
   -7.7129    4.2099   27.0854 C   0  0  0  0  0  0  0  0  0  0  0  0
   -8.2112    3.0637   26.9225 C   0  0  0  0  0  0  0  0  0  0  0  0
   -8.5108    5.3904   26.9436 C   0  0  0  0  0  0  0  0  0  0  0  0
   -9.7256    5.1955   26.3518 C   0  0  0  0  0  0  0  0  0  0  0  0
   -9.4995    2.8258   26.4878 C   0  0  0  0  0  0  0  0  0  0  0  0
  -10.2542    3.9691   26.2055 C   0  0  0  0  0  0  0  0  0  0  0  0
   -8.1136    6.6258   27.2884 F   0  0  0  0  0  0  0  0  0  0  0  0
   -7.3476    1.8350   27.2393 C   0  0  0  0  0  0  0  0  0  0  0  0
   -6.0465    2.0309   27.7318 C   0  0  0  0  0  0  0  0  0  0  0  0
   -5.2387    0.8755   28.0554 C   0  0  0  0  0  0  0  0  0  0  0  0
   -5.7435   -0.3831   27.9211 C   0  0  0  0  0  0  0  0  0  0  0  0
   -7.7798    0.5271   27.1412 C   0  0  0  0  0  0  0  0  0  0  0  0
   -7.0629   -0.5223   27.5158 C   0  0  0  0  0  0  0  0  0  0  0  0
   -3.6237    1.1955   28.6063 Cl  0  0  0  0  0  0  0  0  0  0  0  0
  -11.6008    3.8204   25.6043 C   0  0  0  0  0  0  0  0  0  0  0  0
  -12.6770    3.8266   26.4399 C   0  0  0  0  0  0  0  0  0  0  0  0
  -14.0016    3.7204   25.9371 C   0  0  0  0  0  0  0  0  0  0  0  0
  -14.1397    3.5978   24.5494 C   0  0  0  0  0  0  0  0  0  0  0  0
  -11.8754    3.7806   24.2836 C   0  0  0  0  0  0  0  0  0  0  0  0
  -13.0608    3.7119   23.7360 C   0  0  0  0  0  0  0  0  0  0  0  0
  -10.7602    3.8963   23.3997 O   0  0  0  0  0  0  0  0  0  0  0  0
  -10.9297    3.9516   22.1034 C   0  0  0  0  0  0  0  0  0  0  0  0
   -9.7469    4.3005   21.4553 C   0  0  0  0  0  0  0  0  0  0  0  0
   -9.8637    4.3212   19.9715 C   0  0  0  0  0  0  0  0  0  0  0  0
  -11.1512    3.9295   19.4053 C   0  0  0  0  0  0  0  0  0  0  0  0
  -11.9621    3.6040   21.2136 C   0  0  0  0  0  0  0  0  0  0  0  0
  -12.1445    3.5932   20.0862 C   0  0  0  0  0  0  0  0  0  0  0  0
  3  7  1  0
  2  8  1  0
 10 14  1  0
  6 15  1  0
 19 21  1  0
 21 22  1  0
 15 16  2  0
 16 17  1  0
 17 18  2  0
 18 20  1  0
 20 19  2  0
 19 15  1  0
 22 23  2  0
 23 24  1  0
 24 25  2  0
 25 27  1  0
 27 26  2  0
 26 22  1  0
  1  2  2  0
  2  5  1  0
  5  6  2  0
  6  4  1  0
  4  3  2  0
  3  1  1  0
  8  9  2  0
  9 10  1  0
 10 11  2  0
 11 13  1  0
 13 12  2  0
 12  8  1  0
M  END
$$$$
