No_8529-complexes_sdf/6BKW-FPZ/2024-09-17-14-21-01/
     RDKit          3D

 21 23  0  0  0  0  0  0  0  0999 V2000
   -7.2496    3.8871   27.4508 C   0  0  0  0  0  0  0  0  0  0  0  0
   -7.9379    4.9063   27.8518 C   0  0  0  0  0  0  0  0  0  0  0  0
   -8.7729    5.5444   27.0168 C   0  0  0  0  0  0  0  0  0  0  0  0
   -6.2858    3.2138   28.3467 C   0  0  0  0  0  0  0  0  0  0  0  0
   -9.2459    4.9714   25.8185 C   0  0  0  0  0  0  0  0  0  0  0  0
   -8.7245    3.6550   25.5132 C   0  0  0  0  0  0  0  0  0  0  0  0
   -7.8326    3.1219   26.4052 C   0  0  0  0  0  0  0  0  0  0  0  0
   -5.6873    1.9697   27.9543 C   0  0  0  0  0  0  0  0  0  0  0  0
   -6.3755    1.1447   27.0491 C   0  0  0  0  0  0  0  0  0  0  0  0
   -7.3924    1.7275   26.1973 C   0  0  0  0  0  0  0  0  0  0  0  0
   -4.4183    1.3815   28.9352 Cl  0  0  0  0  0  0  0  0  0  0  0  0
   -9.3458    7.2260   27.3272 Cl  0  0  0  0  0  0  0  0  0  0  0  0
   -5.9424   -0.2114   26.8071 C   0  0  0  0  0  0  0  0  0  0  0  0
   -6.6041   -1.1896   27.5242 C   0  0  0  0  0  0  0  0  0  0  0  0
   -7.7162   -1.1332   28.0564 C   0  0  0  0  0  0  0  0  0  0  0  0
   -8.4075   -2.1882   28.8075 C   0  0  0  0  0  0  0  0  0  0  0  0
   -9.6699   -2.0219   29.3429 C   0  0  0  0  0  0  0  0  0  0  0  0
  -10.4938   -0.9580   28.8147 C   0  0  0  0  0  0  0  0  0  0  0  0
   -9.9423    0.0421   27.9778 C   0  0  0  0  0  0  0  0  0  0  0  0
   -8.6910   -0.0665   27.5850 C   0  0  0  0  0  0  0  0  0  0  0  0
   -7.2537    1.4979   24.8867 O   0  0  0  0  0  0  0  0  0  0  0  0
  8 11  1  0
  3 12  1  0
  9 13  1  0
 13 14  1  0
 10 21  1  0
 14 15  1  0
 15 16  2  0
 16 17  1  0
 17 18  2  0
 18 19  1  0
 19 20  2  0
 20 15  1  0
  1  4  1  0
  4  8  2  0
  8  9  1  0
  9 10  2  0
 10  7  1  0
  1  2  2  0
  2  3  1  0
  3  5  2  0
  5  6  1  0
  6  7  2  0
  7  1  1  0
M  END
$$$$
