No_8200-complexes_sdf/6BKW-FPZ/2024-09-17-14-21-01/
     RDKit          3D

 31 35  0  0  0  0  0  0  0  0999 V2000
   -7.7129    4.2099   27.0854 C   0  0  0  0  0  0  0  0  0  0  0  0
   -8.2112    3.0637   26.9225 C   0  0  0  0  0  0  0  0  0  0  0  0
   -7.0021    4.5281   28.2396 C   0  0  0  0  0  0  0  0  0  0  0  0
   -9.4237    2.7810   26.2714 C   0  0  0  0  0  0  0  0  0  0  0  0
   -9.9782    1.4391   26.2525 C   0  0  0  0  0  0  0  0  0  0  0  0
   -9.2622    0.4320   26.8729 C   0  0  0  0  0  0  0  0  0  0  0  0
   -8.0745    0.6657   27.5462 C   0  0  0  0  0  0  0  0  0  0  0  0
   -7.4723    1.9739   27.6189 C   0  0  0  0  0  0  0  0  0  0  0  0
   -6.8855    5.9211   28.5310 C   0  0  0  0  0  0  0  0  0  0  0  0
   -8.6136    5.3606   26.9145 C   0  0  2  0  0  0  0  0  0  0  0  0
   -9.7661    5.4339   26.0511 C   0  0  0  0  0  0  0  0  0  0  0  0
   -8.0679    6.5269   27.5361 C   0  0  0  0  0  0  0  0  0  0  0  0
  -10.2445    3.8691   25.7543 C   0  0  1  0  0  0  0  0  0  0  0  0
  -11.3144    3.7083   24.8810 C   0  0  0  0  0  0  0  0  0  0  0  0
  -11.0335    3.4485   23.5135 C   0  0  0  0  0  0  0  0  0  0  0  0
  -12.0518    3.3252   22.5966 C   0  0  0  0  0  0  0  0  0  0  0  0
  -12.3506    4.8092   24.9957 C   0  0  0  0  0  0  0  0  0  0  0  0
  -13.1398    4.2252   22.7260 C   0  0  0  0  0  0  0  0  0  0  0  0
  -13.4837    4.6703   24.0808 C   0  0  0  0  0  0  0  0  0  0  0  0
  -11.0809    1.2137   25.6792 O   0  0  0  0  0  0  0  0  0  0  0  0
  -12.0490    0.7027   26.4075 C   0  0  0  0  0  0  0  0  0  0  0  0
  -12.6932   -0.3488   25.8535 C   0  0  0  0  0  0  0  0  0  0  0  0
  -13.7312   -0.8503   26.4994 C   0  0  0  0  0  0  0  0  0  0  0  0
  -12.5989    1.2961   27.4957 C   0  0  0  0  0  0  0  0  0  0  0  0
  -13.6058    0.8413   28.2790 C   0  0  0  0  0  0  0  0  0  0  0  0
  -14.2464   -0.3153   27.7081 C   0  0  0  0  0  0  0  0  0  0  0  0
  -15.2902   -0.9190   28.3593 O   0  0  0  0  0  0  0  0  0  0  0  0
   -9.7783   -0.9386   26.8665 C   0  0  0  0  0  0  0  0  0  0  0  0
   -9.4729   -1.5395   25.9640 F   0  0  0  0  0  0  0  0  0  0  0  0
   -9.0883   -1.5338   28.0157 F   0  0  0  0  0  0  0  0  0  0  0  0
  -11.0077   -1.0847   27.3504 F   0  0  0  0  0  0  0  0  0  0  0  0
  1  2  1  0
  1  3  2  0
  3  9  1  0
  1 10  1  0
 10 11  1  6
  9 12  1  0
 10 12  1  0
  4 13  1  0
 11 13  1  0
 13 14  1  6
  5 20  1  0
 20 21  1  0
 26 27  1  0
  6 28  1  0
 28 29  1  0
 28 30  1  0
 28 31  1  0
 21 22  2  0
 22 23  1  0
 23 26  2  0
 26 25  1  0
 25 24  2  0
 24 21  1  0
 14 15  2  0
 15 16  1  0
 16 18  2  0
 18 19  1  0
 19 17  2  0
 17 14  1  0
  2  4  2  0
  4  5  1  0
  5  6  2  0
  6  7  1  0
  7  8  2  0
  8  2  1  0
M  END
$$$$
