No_8306-complexes_sdf/6BKW-FPZ/2024-09-17-14-21-01/
     RDKit          3D

 12 13  0  0  0  0  0  0  0  0999 V2000
   -7.9040    3.9820   27.1177 C   0  0  0  0  0  0  0  0  0  0  0  0
   -7.8663    4.8694   27.9238 C   0  0  0  0  0  0  0  0  0  0  0  0
   -9.0501    3.8017   26.2617 C   0  0  0  0  0  0  0  0  0  0  0  0
  -10.0189    4.7608   26.3707 C   0  0  0  0  0  0  0  0  0  0  0  0
   -8.6770    5.9780   27.9222 C   0  0  0  0  0  0  0  0  0  0  0  0
   -9.8040    5.8752   27.0958 C   0  0  0  0  0  0  0  0  0  0  0  0
   -9.3629    2.6531   25.4689 C   0  0  0  0  0  0  0  0  0  0  0  0
   -8.8321    1.4422   25.8355 C   0  0  0  0  0  0  0  0  0  0  0  0
   -9.9856    2.8138   24.2272 C   0  0  0  0  0  0  0  0  0  0  0  0
   -8.9514    0.3310   25.0170 C   0  0  0  0  0  0  0  0  0  0  0  0
  -10.1421    1.6835   23.4104 C   0  0  0  0  0  0  0  0  0  0  0  0
   -9.6108    0.4688   23.7948 C   0  0  0  0  0  0  0  0  0  0  0  0
  3  7  1  0
  1  2  2  0
  2  5  1  0
  5  6  2  0
  6  4  1  0
  4  3  2  0
  3  1  1  0
  7  8  2  0
  8 10  1  0
 10 12  2  0
 12 11  1  0
 11  9  2  0
  9  7  1  0
M  END
$$$$
