No_8542-complexes_sdf/6BKW-FPZ/2024-09-17-14-21-01/
     RDKit          3D

 14 15  0  0  0  0  0  0  0  0999 V2000
   -7.9040    3.9820   27.1177 C   0  0  0  0  0  0  0  0  0  0  0  0
   -9.0711    4.3164   27.0630 C   0  0  0  0  0  0  0  0  0  0  0  0
   -9.9692    3.7224   26.1073 C   0  0  0  0  0  0  0  0  0  0  0  0
   -7.4776    2.6994   26.6283 C   0  0  0  0  0  0  0  0  0  0  0  0
   -8.4406    1.9440   25.9776 C   0  0  0  0  0  0  0  0  0  0  0  0
   -9.6379    2.5001   25.6881 C   0  0  0  0  0  0  0  0  0  0  0  0
   -7.0137    4.6011   27.9177 F   0  0  0  0  0  0  0  0  0  0  0  0
  -10.6139    1.7222   24.8408 C   0  0  0  0  0  0  0  0  0  0  0  0
  -11.2776    2.2437   23.9371 C   0  0  0  0  0  0  0  0  0  0  0  0
  -12.2054    1.5542   23.0769 C   0  0  0  0  0  0  0  0  0  0  0  0
  -12.2723    0.1771   23.2527 C   0  0  0  0  0  0  0  0  0  0  0  0
  -10.6765    0.3785   24.7931 C   0  0  0  0  0  0  0  0  0  0  0  0
  -11.4675   -0.3943   24.1309 C   0  0  0  0  0  0  0  0  0  0  0  0
   -9.5679    6.1362   27.6316 Br  0  0  0  0  0  0  0  0  0  0  0  0
  1  7  1  0
  6  8  1  0
  2 14  1  0
  1  2  2  0
  2  3  1  0
  3  6  2  0
  6  5  1  0
  5  4  2  0
  4  1  1  0
  8  9  2  0
  9 10  1  0
 10 11  2  0
 11 13  1  0
 13 12  2  0
 12  8  1  0
M  END
$$$$
