No_8058-complexes_sdf/6BKW-FPZ/2024-09-17-14-21-01/
     RDKit          3D

 19 21  0  0  0  0  0  0  0  0999 V2000
   -7.7129    4.2099   27.0854 C   0  0  0  0  0  0  0  0  0  0  0  0
   -7.7814    5.1722   27.8972 C   0  0  0  0  0  0  0  0  0  0  0  0
   -8.7889    3.2468   27.2220 C   0  0  0  0  0  0  0  0  0  0  0  0
   -9.8671    3.4455   28.0317 C   0  0  0  0  0  0  0  0  0  0  0  0
   -8.9592    5.6476   28.6200 C   0  0  0  0  0  0  0  0  0  0  0  0
   -9.9658    4.7049   28.7257 C   0  0  0  0  0  0  0  0  0  0  0  0
   -8.6765    1.9196   26.5405 C   0  0  0  0  0  0  0  0  0  0  0  0
   -7.8364    0.9544   27.0012 C   0  0  0  0  0  0  0  0  0  0  0  0
   -7.7170   -0.2845   26.4321 C   0  0  0  0  0  0  0  0  0  0  0  0
   -9.4290    1.7148   25.4131 C   0  0  0  0  0  0  0  0  0  0  0  0
  -10.2515    2.7469   24.8914 C   0  0  0  0  0  0  0  0  0  0  0  0
  -10.8446    2.6205   23.6366 C   0  0  0  0  0  0  0  0  0  0  0  0
   -9.2685    0.5388   24.7600 C   0  0  0  0  0  0  0  0  0  0  0  0
   -8.4324   -0.4570   25.2072 C   0  0  0  0  0  0  0  0  0  0  0  0
  -10.6496    1.3891   23.0025 C   0  0  0  0  0  0  0  0  0  0  0  0
   -9.8367    0.3599   23.4650 C   0  0  0  0  0  0  0  0  0  0  0  0
  -11.7254    3.6415   23.0884 C   0  0  0  0  0  0  0  0  0  0  0  0
  -11.6495    4.0839   22.0411 C   0  0  0  0  0  0  0  0  0  0  0  0
  -12.5104    5.1416   21.4907 C   0  0  0  0  0  0  0  0  0  0  0  0
  3  7  1  0
 12 17  1  0
 17 18  2  3
 18 19  1  0
 10 11  2  0
 11 12  1  0
 12 15  2  0
 15 16  1  0
 16 13  2  0
  1  2  2  0
  2  5  1  0
  5  6  2  0
  6  4  1  0
  4  3  2  0
  3  1  1  0
  7  8  2  0
  8  9  1  0
  9 14  2  0
 14 13  1  0
 13 10  1  0
 10  7  1  0
M  END
$$$$
