No_8664-complexes_sdf/6BKW-FPZ/2024-09-17-14-21-01/
     RDKit          3D

 25 28  0  0  0  0  0  0  0  0999 V2000
   -7.9040    3.9820   27.1177 C   0  0  0  0  0  0  0  0  0  0  0  0
   -7.8663    4.8694   27.9238 C   0  0  0  0  0  0  0  0  0  0  0  0
   -7.4698    2.6989   27.4277 C   0  0  0  0  0  0  0  0  0  0  0  0
   -7.9683    1.5964   26.8266 C   0  0  0  0  0  0  0  0  0  0  0  0
   -8.9447    1.7923   25.8533 C   0  0  0  0  0  0  0  0  0  0  0  0
   -9.4405    2.9988   25.5757 C   0  0  0  0  0  0  0  0  0  0  0  0
   -8.9424    4.1117   26.2388 C   0  0  0  0  0  0  0  0  0  0  0  0
   -8.3103    6.1970   27.6444 N   0  0  0  0  0  0  0  0  0  0  0  0
   -9.2017    6.5264   26.7040 C   0  0  0  0  0  0  0  0  0  0  0  0
   -9.5492    5.4018   25.9329 C   0  0  0  0  0  0  0  0  0  0  0  0
   -7.3783    0.2539   27.0964 C   0  0  0  0  0  0  0  0  0  0  0  0
   -8.1457   -0.8105   27.2555 C   0  0  0  0  0  0  0  0  0  0  0  0
   -7.6588   -1.9374   27.8417 C   0  0  0  0  0  0  0  0  0  0  0  0
   -5.9885    0.1622   27.3267 C   0  0  0  0  0  0  0  0  0  0  0  0
   -5.4179   -0.9265   27.9330 C   0  0  0  0  0  0  0  0  0  0  0  0
   -4.0126   -0.9741   28.2671 C   0  0  0  0  0  0  0  0  0  0  0  0
   -6.2859   -2.0063   28.1393 C   0  0  0  0  0  0  0  0  0  0  0  0
   -3.6631   -0.5202   29.5215 C   0  0  0  0  0  0  0  0  0  0  0  0
   -3.9273    0.7696   29.9653 C   0  0  0  0  0  0  0  0  0  0  0  0
   -2.9020   -1.4068   30.4045 C   0  0  0  0  0  0  0  0  0  0  0  0
   -2.7085   -1.1072   31.7934 C   0  0  0  0  0  0  0  0  0  0  0  0
   -2.0181   -1.9973   32.6037 C   0  0  0  0  0  0  0  0  0  0  0  0
   -3.6886    1.0276   31.4160 C   0  0  0  0  0  0  0  0  0  0  0  0
   -3.1103    0.1428   32.2549 C   0  0  0  0  0  0  0  0  0  0  0  0
   -0.8900   -2.1266   32.5018 O   0  0  0  0  0  0  0  0  0  0  0  0
  4 11  1  0
 15 16  1  0
 16 18  1  0
 22 25  2  0
 22 21  1  0
  1  2  2  0
  2  8  1  0
  8  9  2  0
  9 10  1  0
 10  7  2  0
 18 19  2  0
 19 23  1  0
 23 24  2  0
 24 21  1  0
 21 20  2  0
 20 18  1  0
 11 12  2  0
 12 13  1  0
 13 17  2  0
 17 15  1  0
 15 14  2  0
 14 11  1  0
  1  3  1  0
  3  4  2  0
  4  5  1  0
  5  6  2  0
  6  7  1  0
  7  1  1  0
M  END
$$$$
