No_8303-complexes_sdf/6BKW-FPZ/2024-09-17-14-21-01/
     RDKit          3D

 17 18  0  0  0  0  0  0  0  0999 V2000
   -7.2496    3.8871   27.4508 C   0  0  0  0  0  0  0  0  0  0  0  0
   -8.5096    4.0291   27.2770 C   0  0  0  0  0  0  0  0  0  0  0  0
   -9.2677    5.1714   27.5773 C   0  0  0  0  0  0  0  0  0  0  0  0
   -9.2765    2.8248   26.8371 C   0  0  0  0  0  0  0  0  0  0  0  0
  -10.4623    3.0171   26.3236 C   0  0  1  0  0  0  0  0  0  0  0  0
  -11.3015    3.9610   26.8543 C   0  0  0  0  0  0  0  0  0  0  0  0
  -10.7070    5.2935   27.2178 C   0  0  0  0  0  0  0  0  0  0  0  0
   -6.6772    2.6291   27.3839 N   0  0  0  0  0  0  0  0  0  0  0  0
   -7.3046    1.5222   27.0897 C   0  0  0  0  0  0  0  0  0  0  0  0
   -8.6114    1.6456   26.7109 C   0  0  0  0  0  0  0  0  0  0  0  0
   -6.5792    0.4726   27.0085 F   0  0  0  0  0  0  0  0  0  0  0  0
   -6.5161    4.9295   27.9819 N   0  0  0  0  0  0  0  0  0  0  0  0
  -10.9291    2.4927   25.0503 C   0  0  0  0  0  0  0  0  0  0  0  0
  -10.9785    3.2767   24.0207 C   0  0  0  0  0  0  0  0  0  0  0  0
  -11.2607    2.8018   22.6880 C   0  0  0  0  0  0  0  0  0  0  0  0
  -11.1640    1.4816   22.5077 C   0  0  0  0  0  0  0  0  0  0  0  0
  -11.4343    0.9760   21.2177 C   0  0  0  0  0  0  0  0  0  0  0  0
  2  3  1  0
  4  5  1  0
  5  6  1  6
  3  7  1  0
  6  7  1  0
  9 11  1  0
  1 12  1  0
  5 13  1  0
 13 14  2  3
 14 15  1  0
 15 16  2  3
 16 17  1  0
  1  2  2  0
  2  4  1  0
  4 10  2  0
 10  9  1  0
  9  8  2  0
  8  1  1  0
M  END
$$$$
