No_8366-complexes_sdf/6BKW-FPZ/2024-09-17-14-21-01/
     RDKit          3D

 17 19  0  0  0  0  0  0  0  0999 V2000
   -7.7129    4.2099   27.0854 C   0  0  0  0  0  0  0  0  0  0  0  0
   -8.2112    3.0637   26.9225 C   0  0  0  0  0  0  0  0  0  0  0  0
   -8.4224    5.2106   27.8516 C   0  0  0  0  0  0  0  0  0  0  0  0
   -7.4917    1.9381   26.3986 C   0  0  0  0  0  0  0  0  0  0  0  0
   -9.7695    5.0306   28.1322 C   0  0  0  0  0  0  0  0  0  0  0  0
   -9.5975    2.7583   27.3362 C   0  0  0  0  0  0  0  0  0  0  0  0
  -10.1676    1.5100   27.0727 C   0  0  0  0  0  0  0  0  0  0  0  0
  -10.3192    3.7988   27.9268 C   0  0  0  0  0  0  0  0  0  0  0  0
   -9.3758    0.4297   26.7828 C   0  0  0  0  0  0  0  0  0  0  0  0
   -8.0571    0.6817   26.3139 C   0  0  0  0  0  0  0  0  0  0  0  0
  -11.5997    3.3644   28.4971 C   0  0  0  0  0  0  0  0  0  0  0  0
  -12.7101    3.8459   27.8957 C   0  0  0  0  0  0  0  0  0  0  0  0
  -13.9436    3.9437   28.4837 C   0  0  0  0  0  0  0  0  0  0  0  0
  -14.0906    3.4210   29.8011 C   0  0  0  0  0  0  0  0  0  0  0  0
  -12.9605    2.8726   30.4325 C   0  0  0  0  0  0  0  0  0  0  0  0
  -11.7586    2.9534   29.8377 C   0  0  0  0  0  0  0  0  0  0  0  0
   -7.7825    6.5960   27.9443 C   0  0  0  0  0  0  0  0  0  0  0  0
  8 11  1  0
  3 17  1  0
 11 12  2  0
 12 13  1  0
 13 14  2  0
 14 15  1  0
 15 16  2  0
 16 11  1  0
  2  4  1  0
  4 10  2  0
 10  9  1  0
  9  7  2  0
  7  6  1  0
  1  2  2  0
  2  6  1  0
  6  8  2  0
  8  5  1  0
  5  3  2  0
  3  1  1  0
M  END
$$$$
