No_9049-complexes_sdf/6BKW-FPZ/2024-09-17-14-21-01/
     RDKit          3D

 29 32  0  0  0  0  0  0  0  0999 V2000
   -7.9040    3.9820   27.1177 C   0  0  0  0  0  0  0  0  0  0  0  0
   -9.0711    4.3164   27.0630 C   0  0  0  0  0  0  0  0  0  0  0  0
   -9.5294    5.4517   27.7215 C   0  0  0  0  0  0  0  0  0  0  0  0
   -7.4336    2.7132   26.5681 C   0  0  0  0  0  0  0  0  0  0  0  0
   -8.3353    1.8569   26.0442 C   0  0  0  0  0  0  0  0  0  0  0  0
   -9.6477    2.2853   25.9146 C   0  0  0  0  0  0  0  0  0  0  0  0
  -10.0346    3.4497   26.4483 C   0  0  2  0  0  0  0  0  0  0  0  0
   -7.8750    0.5509   25.5918 C   0  0  0  0  0  0  0  0  0  0  0  0
   -8.4860   -0.3441   26.0976 F   0  0  0  0  0  0  0  0  0  0  0  0
   -6.6048    0.3791   26.0233 F   0  0  0  0  0  0  0  0  0  0  0  0
   -7.8754    0.4952   24.2949 F   0  0  0  0  0  0  0  0  0  0  0  0
   -7.0665    4.7723   28.0714 C   0  0  0  0  0  0  0  0  0  0  0  0
   -7.4080    5.9088   28.5699 N   0  0  0  0  0  0  0  0  0  0  0  0
   -8.7045    6.3290   28.3378 C   0  0  0  0  0  0  0  0  0  0  0  0
   -5.7385    4.3849   28.2206 N   0  0  0  0  0  0  0  0  0  0  0  0
  -11.4468    3.8228   26.1856 C   0  0  0  0  0  0  0  0  0  0  0  0
  -12.3558    3.6189   27.2323 C   0  0  0  0  0  0  0  0  0  0  0  0
  -11.9767    3.3647   28.4320 C   0  0  0  0  0  0  0  0  0  0  0  0
  -12.9340    3.1423   29.5645 C   0  0  0  0  0  0  0  0  0  0  0  0
  -14.2510    3.4208   29.3711 C   0  0  0  0  0  0  0  0  0  0  0  0
  -15.1635    3.2572   30.3549 C   0  0  0  0  0  0  0  0  0  0  0  0
  -13.7822    3.9578   27.0426 C   0  0  0  0  0  0  0  0  0  0  0  0
  -14.6774    3.8491   28.1055 C   0  0  0  0  0  0  0  0  0  0  0  0
  -11.7275    4.2652   25.0492 O   0  0  0  0  0  0  0  0  0  0  0  0
  -16.1669    2.9261   30.4084 C   0  0  0  0  0  0  0  0  0  0  0  0
  -17.1183    2.8301   31.5721 C   0  0  0  0  0  0  0  0  0  0  0  0
  -16.6219    3.2160   32.8041 C   0  0  0  0  0  0  0  0  0  0  0  0
  -15.3155    3.6501   32.9208 C   0  0  0  0  0  0  0  0  0  0  0  0
  -14.5253    3.7284   31.8234 C   0  0  0  0  0  0  0  0  0  0  0  0
  1  4  1  0
  4  5  1  0
  5  6  1  0
  2  7  1  0
  6  7  1  0
  5  8  1  0
  8  9  1  0
  8 10  1  0
  8 11  1  0
 12 15  1  0
  7 16  1  6
 16 17  1  0
 20 21  1  0
 16 24  2  0
  1  2  1  0
  2  3  2  0
  3 14  1  0
 14 13  2  0
 13 12  1  0
 12  1  2  0
 21 25  2  0
 25 26  1  0
 26 27  2  0
 27 28  1  0
 28 29  2  0
 29 21  1  0
 17 18  2  0
 18 19  1  0
 19 20  2  0
 20 23  1  0
 23 22  2  0
 22 17  1  0
M  END
$$$$
