No_9742-complexes_sdf/6BKW-FPZ/2024-09-17-14-21-01/
     RDKit          3D

 15 16  0  0  0  0  0  0  0  0999 V2000
   -7.9040    3.9820   27.1177 C   0  0  0  0  0  0  0  0  0  0  0  0
   -9.0711    4.3164   27.0630 C   0  0  0  0  0  0  0  0  0  0  0  0
   -9.9692    3.7224   26.1073 C   0  0  0  0  0  0  0  0  0  0  0  0
   -7.4776    2.6994   26.6283 C   0  0  0  0  0  0  0  0  0  0  0  0
   -8.4406    1.9440   25.9776 C   0  0  0  0  0  0  0  0  0  0  0  0
   -9.6379    2.5001   25.6881 C   0  0  0  0  0  0  0  0  0  0  0  0
   -6.7822    4.7986   28.1887 Cl  0  0  0  0  0  0  0  0  0  0  0  0
  -10.6003    1.7344   24.8207 C   0  0  0  0  0  0  0  0  0  0  0  0
  -11.3056    2.1672   24.0222 C   0  0  0  0  0  0  0  0  0  0  0  0
  -11.8449    2.0855   23.1610 C   0  0  0  0  0  0  0  0  0  0  0  0
  -12.7228    3.0128   22.3024 C   0  0  0  0  0  0  0  0  0  0  0  0
  -12.7309    4.3022   22.8005 C   0  0  0  0  0  0  0  0  0  0  0  0
  -12.0184    4.6455   23.8752 C   0  0  0  0  0  0  0  0  0  0  0  0
  -11.2260    3.8232   24.5066 C   0  0  0  0  0  0  0  0  0  0  0  0
  -10.5746    4.2703   25.5166 N   0  0  0  0  0  0  0  0  0  0  0  0
  1  7  1  0
  6  8  2  0
  8  9  1  0
  9 10  2  0
 10 11  1  0
 11 12  2  0
 12 13  1  0
 13 14  2  0
  3 15  2  0
 14 15  1  0
  1  2  2  0
  2  3  1  0
  3  6  1  0
  6  5  1  0
  5  4  2  0
  4  1  1  0
M  END
$$$$
