No_9465-complexes_sdf/6BKW-FPZ/2024-09-17-14-21-01/
     RDKit          3D

 25 28  0  0  0  0  0  0  0  0999 V2000
   -7.7129    4.2099   27.0854 C   0  0  0  0  0  0  0  0  0  0  0  0
   -8.2112    3.0637   26.9225 C   0  0  0  0  0  0  0  0  0  0  0  0
   -7.5138    1.9223   27.4249 C   0  0  0  0  0  0  0  0  0  0  0  0
   -8.5309    5.4147   26.8151 C   0  0  0  0  0  0  0  0  0  0  0  0
   -9.5564    5.2865   26.3590 C   0  0  0  0  0  0  0  0  0  0  0  0
  -10.1594    4.0753   26.0281 C   0  0  0  0  0  0  0  0  0  0  0  0
   -9.4783    2.8876   26.3977 C   0  0  0  0  0  0  0  0  0  0  0  0
   -8.0024    0.5709   27.2610 C   0  0  0  0  0  0  0  0  0  0  0  0
   -9.3435    0.5467   26.6740 C   0  0  0  0  0  0  0  0  0  0  0  0
  -10.0446    1.6077   26.2545 C   0  0  0  0  0  0  0  0  0  0  0  0
   -7.8783    6.7795   27.1296 C   0  0  0  0  0  0  0  0  0  0  0  0
   -8.5116    7.8867   26.7514 N   0  0  0  0  0  0  0  0  0  0  0  0
   -6.7648    6.8272   27.8654 N   0  0  0  0  0  0  0  0  0  0  0  0
   -7.2902   -0.5450   27.7271 C   0  0  0  0  0  0  0  0  0  0  0  0
   -6.6407   -1.1215   27.1374 C   0  0  0  0  0  0  0  0  0  0  0  0
   -6.2579   -0.8523   25.6952 C   0  0  0  0  0  0  0  0  0  0  0  0
   -6.9437   -0.5107   24.8508 C   0  0  0  0  0  0  0  0  0  0  0  0
   -6.4879   -0.4611   23.4161 C   0  0  0  0  0  0  0  0  0  0  0  0
   -6.7626   -1.2127   22.7373 C   0  0  0  0  0  0  0  0  0  0  0  0
   -8.1576   -1.7627   22.6235 C   0  0  0  0  0  0  0  0  0  0  0  0
   -8.9234   -1.3905   23.6992 C   0  0  0  0  0  0  0  0  0  0  0  0
   -8.3175   -0.9197   24.8815 C   0  0  0  0  0  0  0  0  0  0  0  0
   -9.0945   -0.3672   25.3341 C   0  0  0  0  0  0  0  0  0  0  0  0
  -10.3121   -1.4847   23.9194 C   0  0  0  0  0  0  0  0  0  0  0  0
  -10.8492   -0.6720   25.1206 Cl  0  0  0  0  0  0  0  0  0  0  0  0
  4 11  1  0
 11 12  1  0
 11 13  2  0
  8 14  1  0
 14 15  2  3
 15 16  1  0
 16 17  1  0
  9 23  1  0
 22 23  1  0
 21 24  1  0
 24 25  1  0
 17 18  2  0
 18 19  1  0
 19 20  2  0
 20 21  1  0
 21 22  2  0
 22 17  1  0
  1  2  2  0
  7  6  2  0
  6  5  1  0
  5  4  2  0
  4  1  1  0
  2  3  1  0
  3  8  2  0
  8  9  1  0
  9 10  2  0
 10  7  1  0
  7  2  1  0
M  END
$$$$
