No_9181-complexes_sdf/6BKW-FPZ/2024-09-17-14-21-01/
     RDKit          3D

 13 13  0  0  0  0  0  0  0  0999 V2000
   -7.2496    3.8871   27.4508 C   0  0  0  0  0  0  0  0  0  0  0  0
   -8.5096    4.0291   27.2770 C   0  0  0  0  0  0  0  0  0  0  0  0
   -9.3451    2.8786   26.9046 C   0  0  0  0  0  0  0  0  0  0  0  0
   -6.6065    2.5680   27.5073 C   0  0  0  0  0  0  0  0  0  0  0  0
   -7.3970    1.4834   27.2271 C   0  0  0  0  0  0  0  0  0  0  0  0
   -8.7029    1.6398   26.9934 C   0  0  0  0  0  0  0  0  0  0  0  0
   -9.1106    5.3702   27.2076 C   0  0  0  0  0  0  0  0  0  0  0  0
  -10.3556    5.4502   27.5687 F   0  0  0  0  0  0  0  0  0  0  0  0
   -8.4310    6.2623   28.0573 F   0  0  0  0  0  0  0  0  0  0  0  0
   -8.9707    5.8692   25.9539 F   0  0  0  0  0  0  0  0  0  0  0  0
   -6.7334    0.2107   27.2381 C   0  0  0  0  0  0  0  0  0  0  0  0
   -7.2961   -0.8847   27.1528 C   0  0  0  0  0  0  0  0  0  0  0  0
   -6.6483   -2.1506   27.1857 C   0  0  0  0  0  0  0  0  0  0  0  0
  2  7  1  0
  7  8  1  0
  7  9  1  0
  7 10  1  0
  5 11  1  0
 11 12  2  3
 12 13  1  0
  1  2  2  0
  2  3  1  0
  3  6  2  0
  6  5  1  0
  5  4  2  0
  4  1  1  0
M  END
$$$$
