No_9527-complexes_sdf/6BKW-FPZ/2024-09-17-14-21-01/
     RDKit          3D

 23 27  0  0  0  0  0  0  0  0999 V2000
   -7.9040    3.9820   27.1177 C   0  0  0  0  0  0  0  0  0  0  0  0
   -7.8663    4.8694   27.9238 C   0  0  0  0  0  0  0  0  0  0  0  0
   -7.4698    2.6989   27.4277 C   0  0  0  0  0  0  0  0  0  0  0  0
   -7.9683    1.5964   26.8266 C   0  0  0  0  0  0  0  0  0  0  0  0
   -8.9447    1.7923   25.8533 C   0  0  0  0  0  0  0  0  0  0  0  0
   -9.4405    2.9988   25.5757 C   0  0  0  0  0  0  0  0  0  0  0  0
   -8.9424    4.1117   26.2388 C   0  0  0  0  0  0  0  0  0  0  0  0
   -8.2732    6.2141   27.6484 N   0  0  0  0  0  0  0  0  0  0  0  0
   -9.1790    6.5361   26.7045 C   0  0  0  0  0  0  0  0  0  0  0  0
   -9.5395    5.4021   25.9218 C   0  0  0  0  0  0  0  0  0  0  0  0
   -7.3870    0.2618   27.0958 C   0  0  0  0  0  0  0  0  0  0  0  0
   -6.0772    0.1276   27.5398 C   0  0  0  0  0  0  0  0  0  0  0  0
   -5.1710    1.2630   27.7169 C   0  0  0  0  0  0  0  0  0  0  0  0
   -5.9506    2.5905   27.7930 C   0  0  0  0  0  0  0  0  0  0  0  0
   -3.7166    1.2365   28.4125 Cl  0  0  0  0  0  0  0  0  0  0  0  0
  -10.4955    3.1336   24.5282 C   0  0  0  0  0  0  0  0  0  0  0  0
  -10.4428    2.4440   23.4747 C   0  0  0  0  0  0  0  0  0  0  0  0
  -11.0632    2.7735   22.2887 C   0  0  0  0  0  0  0  0  0  0  0  0
  -11.8243    3.9379   22.2629 C   0  0  0  0  0  0  0  0  0  0  0  0
  -11.8943    4.7530   23.3543 C   0  0  0  0  0  0  0  0  0  0  0  0
  -11.1499    4.4372   24.4554 C   0  0  0  0  0  0  0  0  0  0  0  0
  -10.6578    5.4261   25.3068 N   0  0  0  0  0  0  0  0  0  0  0  0
   -9.6703    0.7560   25.4669 O   0  0  0  0  0  0  0  0  0  0  0  0
  1  3  1  0
  4  5  1  0
  5  6  1  0
  6  7  1  0
 13 15  1  0
  6 16  1  0
 10 22  1  0
 21 22  1  0
  5 23  2  0
  1  2  2  0
  2  8  1  0
  8  9  2  0
  9 10  1  0
 10  7  2  0
  7  1  1  0
  3  4  2  0
  4 11  1  0
 11 12  2  0
 12 13  1  0
 13 14  2  0
 14  3  1  0
 16 17  2  0
 17 18  1  0
 18 19  2  0
 19 20  1  0
 20 21  2  0
 21 16  1  0
M  END
$$$$
