No_9055-complexes_sdf/6BKW-FPZ/2024-09-17-14-21-01/
     RDKit          3D

 34 37  0  0  0  0  0  0  0  0999 V2000
   -7.9040    3.9820   27.1177 C   0  0  0  0  0  0  0  0  0  0  0  0
   -8.2057    2.8231   26.8733 C   0  0  0  0  0  0  0  0  0  0  0  0
   -8.7695    5.0740   26.7916 C   0  0  0  0  0  0  0  0  0  0  0  0
   -8.4337    6.4678   27.0913 C   0  0  0  0  0  0  0  0  0  0  0  0
   -9.3742    2.4311   26.2346 C   0  0  0  0  0  0  0  0  0  0  0  0
  -10.2395    3.4267   25.8887 C   0  0  0  0  0  0  0  0  0  0  0  0
   -9.9567    4.7548   26.1374 C   0  0  0  0  0  0  0  0  0  0  0  0
   -7.3600    6.6952   26.9116 F   0  0  0  0  0  0  0  0  0  0  0  0
   -8.9216    6.7108   28.4432 F   0  0  0  0  0  0  0  0  0  0  0  0
   -9.1639    7.3010   26.2815 F   0  0  0  0  0  0  0  0  0  0  0  0
   -7.2325    1.7002   27.3220 C   0  0  0  0  0  0  0  0  0  0  0  0
   -7.5750    0.3243   27.2732 C   0  0  0  0  0  0  0  0  0  0  0  0
   -6.6596   -0.5976   27.7026 C   0  0  0  0  0  0  0  0  0  0  0  0
   -5.3670   -0.1557   28.1386 C   0  0  0  0  0  0  0  0  0  0  0  0
   -5.0526    1.2097   28.1112 C   0  0  0  0  0  0  0  0  0  0  0  0
   -5.9054    2.0880   27.7349 C   0  0  0  0  0  0  0  0  0  0  0  0
   -4.4047   -1.1819   28.6516 C   0  0  0  0  0  0  0  0  0  0  0  0
   -3.7076   -1.0134   29.6894 C   0  0  0  0  0  0  0  0  0  0  0  0
   -2.6972   -1.8782   30.0954 C   0  0  0  0  0  0  0  0  0  0  0  0
   -2.5750   -3.0456   29.3604 C   0  0  0  0  0  0  0  0  0  0  0  0
   -4.1710   -2.3331   27.9108 C   0  0  0  0  0  0  0  0  0  0  0  0
   -3.2466   -3.2319   28.2295 C   0  0  0  0  0  0  0  0  0  0  0  0
  -11.4549    3.1669   25.1060 C   0  0  1  0  0  0  0  0  0  0  0  0
  -11.4189    3.0644   23.8500 C   0  0  0  0  0  0  0  0  0  0  0  0
  -10.6532    2.6343   23.1201 C   0  0  0  0  0  0  0  0  0  0  0  0
  -10.5736    2.6044   21.6178 C   0  0  0  0  0  0  0  0  0  0  0  0
  -11.5062    3.3315   20.9612 C   0  0  0  0  0  0  0  0  0  0  0  0
  -12.4716    4.0024   21.7238 C   0  0  0  0  0  0  0  0  0  0  0  0
  -12.4534    3.9728   23.0763 C   0  0  0  0  0  0  0  0  0  0  0  0
  -12.6024    2.7962   25.9076 C   0  0  0  0  0  0  0  0  0  0  0  0
  -13.4647    3.7937   26.1422 C   0  0  0  0  0  0  0  0  0  0  0  0
  -14.4798    3.8942   26.9636 C   0  0  0  0  0  0  0  0  0  0  0  0
  -14.5596    2.9409   28.0021 C   0  0  0  0  0  0  0  0  0  0  0  0
  -13.6433    1.8159   27.8398 C   0  0  0  0  0  0  0  0  0  0  0  0
  3  4  1  0
  4  8  1  0
  4  9  1  0
  4 10  1  0
  2 11  1  0
 14 17  1  0
 23  6  1  1
 23 24  1  0
 23 30  1  0
 30 31  2  3
 31 32  1  0
 32 33  2  3
 33 34  1  0
 11 12  2  0
 12 13  1  0
 13 14  2  0
 14 15  1  0
 15 16  2  0
 16 11  1  0
 17 18  2  0
 18 19  1  0
 19 20  2  0
 20 22  1  0
 22 21  2  0
 21 17  1  0
 24 25  2  0
 25 26  1  0
 26 27  2  0
 27 28  1  0
 28 29  2  0
 29 24  1  0
  1  2  2  0
  2  5  1  0
  5  6  2  0
  6  7  1  0
  7  3  2  0
  3  1  1  0
M  END
$$$$
