No_9971-complexes_sdf/6BKW-FPZ/2024-09-17-14-21-01/
     RDKit          3D

 36 40  0  0  0  0  0  0  0  0999 V2000
   -7.7129    4.2099   27.0854 C   0  0  0  0  0  0  0  0  0  0  0  0
   -8.2112    3.0637   26.9225 C   0  0  0  0  0  0  0  0  0  0  0  0
   -9.5629    2.7997   27.0678 C   0  0  0  0  0  0  0  0  0  0  0  0
   -8.5911    5.3704   27.2036 C   0  0  0  0  0  0  0  0  0  0  0  0
   -9.9544    5.1489   27.1401 C   0  0  0  0  0  0  0  0  0  0  0  0
  -10.4577    3.9280   27.0818 C   0  0  0  0  0  0  0  0  0  0  0  0
   -8.0506    6.5773   27.3166 F   0  0  0  0  0  0  0  0  0  0  0  0
  -10.2507    1.4813   27.0141 C   0  0  0  0  0  0  0  0  0  0  0  0
  -11.1431    1.1725   27.8214 C   0  0  0  0  0  0  0  0  0  0  0  0
  -11.7168   -0.1741   27.9221 C   0  0  0  0  0  0  0  0  0  0  0  0
  -11.0841   -1.1272   27.1545 C   0  0  0  0  0  0  0  0  0  0  0  0
   -9.7025    0.2662   26.4462 C   0  0  0  0  0  0  0  0  0  0  0  0
  -10.0961   -0.9046   26.4413 C   0  0  0  0  0  0  0  0  0  0  0  0
  -11.7604   -2.5461   27.2743 C   0  0  0  0  0  0  0  0  0  0  0  0
  -12.7238   -2.8651   26.6929 C   0  0  0  0  0  0  0  0  0  0  0  0
  -13.4421   -1.8999   25.8632 C   0  0  0  0  0  0  0  0  0  0  0  0
  -14.6495   -2.3414   25.1432 C   0  0  0  0  0  0  0  0  0  0  0  0
  -14.9978   -3.6795   25.3163 C   0  0  0  0  0  0  0  0  0  0  0  0
  -14.3405   -4.5574   26.0716 C   0  0  0  0  0  0  0  0  0  0  0  0
  -13.2150   -4.1827   26.8005 C   0  0  0  0  0  0  0  0  0  0  0  0
  -10.9815   -3.3614   28.2522 C   0  0  0  0  0  0  0  0  0  0  0  0
   -9.9882   -3.9873   28.2643 C   0  0  0  0  0  0  0  0  0  0  0  0
   -9.4525   -4.7659   29.3207 C   0  0  0  0  0  0  0  0  0  0  0  0
  -10.1949   -4.7938   30.5069 C   0  0  0  0  0  0  0  0  0  0  0  0
  -11.7268   -3.4635   29.5943 C   0  0  0  0  0  0  0  0  0  0  0  0
  -11.3036   -4.0974   30.6410 C   0  0  0  0  0  0  0  0  0  0  0  0
  -16.1121   -4.0985   24.6375 O   0  0  0  0  0  0  0  0  0  0  0  0
  -17.0286   -3.3613   24.1796 C   0  0  0  0  0  0  0  0  0  0  0  0
  -17.9457   -2.9275   24.9566 C   0  0  0  0  0  0  0  0  0  0  0  0
  -19.0256   -2.0765   24.4933 C   0  0  0  0  0  0  0  0  0  0  0  0
  -19.0886   -1.8369   23.1242 C   0  0  0  0  0  0  0  0  0  0  0  0
  -16.9272   -2.8878   22.8599 C   0  0  0  0  0  0  0  0  0  0  0  0
  -18.0057   -2.1685   22.3475 C   0  0  0  0  0  0  0  0  0  0  0  0
  -18.0000   -1.8072   20.9169 C   0  0  0  0  0  0  0  0  0  0  0  0
  -17.1190   -1.2327   20.4177 O   0  0  0  0  0  0  0  0  0  0  0  0
  -19.0784   -2.2161   20.2713 O   0  0  0  0  0  0  0  0  0  0  0  0
  4  7  1  0
  3  8  1  0
 11 14  1  0
 14 21  1  0
 18 27  1  0
 27 28  1  0
 33 34  1  0
 34 35  2  0
 34 36  1  0
 14 15  1  0
 15 16  2  0
 16 17  1  0
 17 18  2  0
 18 19  1  0
 19 20  2  0
 20 15  1  0
 28 29  2  0
 29 30  1  0
 30 31  2  0
 31 33  1  0
 33 32  2  0
 32 28  1  0
  1  2  2  0
  2  3  1  0
  3  6  2  0
  6  5  1  0
  5  4  2  0
  4  1  1  0
 21 22  2  0
 22 23  1  0
 23 24  2  0
 24 26  1  0
 26 25  2  0
 25 21  1  0
  8  9  2  0
  9 10  1  0
 10 11  2  0
 11 13  1  0
 13 12  2  0
 12  8  1  0
M  END
$$$$
