No_9026-complexes_sdf/6BKW-FPZ/2024-09-17-14-21-01/
     RDKit          3D

 23 25  0  0  0  0  0  0  0  0999 V2000
   -7.2496    3.8871   27.4508 C   0  0  0  0  0  0  0  0  0  0  0  0
   -7.9379    4.9063   27.8518 C   0  0  0  0  0  0  0  0  0  0  0  0
   -9.3376    4.8647   27.7795 C   0  0  0  0  0  0  0  0  0  0  0  0
   -7.8544    2.6294   27.0414 C   0  0  0  0  0  0  0  0  0  0  0  0
   -7.1614    1.5016   26.7557 C   0  0  0  0  0  0  0  0  0  0  0  0
   -9.2650    2.6778   27.0076 C   0  0  0  0  0  0  0  0  0  0  0  0
   -9.9987    3.7530   27.4159 C   0  0  0  0  0  0  0  0  0  0  0  0
   -7.3036    0.3617   27.5020 C   0  0  0  0  0  0  0  0  0  0  0  0
   -8.4500   -0.2380   27.6085 C   0  0  0  0  0  0  0  0  0  0  0  0
   -9.6302    0.2721   27.0109 C   0  0  0  0  0  0  0  0  0  0  0  0
  -10.0485    1.5698   26.5817 C   0  0  0  0  0  0  0  0  0  0  0  0
   -6.0905   -0.4080   27.9010 C   0  0  0  0  0  0  0  0  0  0  0  0
   -5.3797   -1.0721   27.1623 C   0  0  0  0  0  0  0  0  0  0  0  0
   -4.1001   -1.5132   27.4790 C   0  0  0  0  0  0  0  0  0  0  0  0
   -3.2032   -2.1395   26.5780 C   0  0  0  0  0  0  0  0  0  0  0  0
   -3.7555   -2.3993   25.2991 C   0  0  0  0  0  0  0  0  0  0  0  0
   -4.9808   -1.9247   24.9221 C   0  0  0  0  0  0  0  0  0  0  0  0
   -5.8103   -1.2144   25.8091 C   0  0  0  0  0  0  0  0  0  0  0  0
   -7.3304    6.0871   28.2131 O   0  0  0  0  0  0  0  0  0  0  0  0
   -5.3692   -2.1116   23.4991 C   0  0  0  0  0  0  0  0  0  0  0  0
   -5.5260   -0.8781   22.9347 F   0  0  0  0  0  0  0  0  0  0  0  0
   -4.5244   -2.7412   22.7939 F   0  0  0  0  0  0  0  0  0  0  0  0
   -6.5742   -2.7122   23.4928 F   0  0  0  0  0  0  0  0  0  0  0  0
  4  5  1  0
  5  8  1  0
  8  9  2  0
  9 10  1  0
  6 11  1  0
 10 11  2  0
  8 12  1  0
 12 13  1  0
  2 19  1  0
 17 20  1  0
 20 21  1  0
 20 22  1  0
 20 23  1  0
 13 14  2  0
 14 15  1  0
 15 16  2  0
 16 17  1  0
 17 18  2  0
 18 13  1  0
  1  2  2  0
  2  3  1  0
  3  7  2  0
  7  6  1  0
  6  4  2  0
  4  1  1  0
M  END
$$$$
