No_9118-complexes_sdf/6BKW-FPZ/2024-09-17-14-21-01/
     RDKit          3D

 22 24  0  0  0  0  0  0  0  0999 V2000
   -7.9040    3.9820   27.1177 C   0  0  0  0  0  0  0  0  0  0  0  0
   -9.0711    4.3164   27.0630 C   0  0  0  0  0  0  0  0  0  0  0  0
   -9.9692    3.7224   26.1073 C   0  0  0  0  0  0  0  0  0  0  0  0
   -7.4776    2.6994   26.6283 C   0  0  0  0  0  0  0  0  0  0  0  0
   -8.4406    1.9440   25.9776 C   0  0  0  0  0  0  0  0  0  0  0  0
   -9.6379    2.5001   25.6881 C   0  0  0  0  0  0  0  0  0  0  0  0
   -6.7701    4.7886   28.1891 Cl  0  0  0  0  0  0  0  0  0  0  0  0
  -10.5973    1.7372   24.8197 C   0  0  0  0  0  0  0  0  0  0  0  0
  -11.5592    1.1447   25.1628 C   0  0  0  0  0  0  0  0  0  0  0  0
  -11.8249    1.1226   26.6610 C   0  0  0  0  0  0  0  0  0  0  0  0
  -11.5841    1.6478   27.5357 C   0  0  0  0  0  0  0  0  0  0  0  0
  -12.0223    1.4072   28.9907 C   0  0  0  0  0  0  0  0  0  0  0  0
  -12.8354    0.3387   29.1539 C   0  0  0  0  0  0  0  0  0  0  0  0
  -13.2180   -0.4396   28.1275 C   0  0  0  0  0  0  0  0  0  0  0  0
  -12.8098   -0.1608   26.8845 C   0  0  0  0  0  0  0  0  0  0  0  0
  -10.1976    1.8630   23.3643 C   0  0  0  0  0  0  0  0  0  0  0  0
  -10.4528    2.9530   22.6641 C   0  0  0  0  0  0  0  0  0  0  0  0
   -9.9609    0.6076   22.6848 C   0  0  0  0  0  0  0  0  0  0  0  0
  -10.6472    4.2578   23.2069 C   0  0  0  0  0  0  0  0  0  0  0  0
  -10.1075    2.9211   21.2474 C   0  0  0  0  0  0  0  0  0  0  0  0
   -9.9906    0.4937   21.4086 C   0  0  0  0  0  0  0  0  0  0  0  0
   -9.9001    1.7224   20.6354 C   0  0  0  0  0  0  0  0  0  0  0  0
  1  7  1  0
  6  8  1  0
  8  9  2  3
  9 10  1  0
  8 16  1  0
 17 19  1  0
 16 17  2  0
 17 20  1  0
 20 22  2  0
 22 21  1  0
 21 18  2  0
 18 16  1  0
  1  2  2  0
  2  3  1  0
  3  6  2  0
  6  5  1  0
  5  4  2  0
  4  1  1  0
 10 11  2  0
 11 12  1  0
 12 13  2  0
 13 14  1  0
 14 15  2  0
 15 10  1  0
M  END
$$$$
