No_9808-complexes_sdf/6BKW-FPZ/2024-09-17-14-21-01/
     RDKit          3D

 12 12  0  0  0  0  0  0  0  0999 V2000
   -7.2496    3.8871   27.4508 C   0  0  0  0  0  0  0  0  0  0  0  0
   -8.5096    4.0291   27.2770 C   0  0  0  0  0  0  0  0  0  0  0  0
   -9.3451    2.8786   26.9046 C   0  0  0  0  0  0  0  0  0  0  0  0
   -6.6065    2.5680   27.5073 C   0  0  0  0  0  0  0  0  0  0  0  0
   -7.4233    1.4858   27.2402 C   0  0  0  0  0  0  0  0  0  0  0  0
   -8.7362    1.6525   26.9989 C   0  0  0  0  0  0  0  0  0  0  0  0
   -8.9197    5.4825   27.2215 C   0  0  1  0  0  0  0  0  0  0  0  0
   -8.3813    6.3503   26.3983 C   0  0  0  0  0  0  0  0  0  0  0  0
  -10.5327    5.3847   26.9301 C   0  0  0  0  0  0  0  0  0  0  0  0
   -5.3166    2.4441   27.7650 O   0  0  0  0  0  0  0  0  0  0  0  0
   -8.3354    7.8099   27.0831 C   0  0  0  0  0  0  0  0  0  0  0  0
   -6.7016   -0.0634   27.3144 Cl  0  0  0  0  0  0  0  0  0  0  0  0
  2  7  1  0
  7  8  1  0
  7  9  1  6
  4 10  1  0
  8 11  1  0
  5 12  1  0
  1  2  2  0
  2  3  1  0
  3  6  2  0
  6  5  1  0
  5  4  2  0
  4  1  1  0
M  END
$$$$
