No_9857-complexes_sdf/6BKW-FPZ/2024-09-17-14-21-01/
     RDKit          3D

 25 28  0  0  0  0  0  0  0  0999 V2000
   -7.7129    4.2099   27.0854 C   0  0  0  0  0  0  0  0  0  0  0  0
   -8.2112    3.0637   26.9225 C   0  0  0  0  0  0  0  0  0  0  0  0
   -7.5138    1.9223   27.4249 C   0  0  0  0  0  0  0  0  0  0  0  0
   -8.5309    5.4147   26.8151 C   0  0  0  0  0  0  0  0  0  0  0  0
   -9.6817    5.2393   26.1100 C   0  0  0  0  0  0  0  0  0  0  0  0
  -10.1032    3.9957   25.8534 C   0  0  0  0  0  0  0  0  0  0  0  0
   -9.4034    2.8430   26.2573 C   0  0  0  0  0  0  0  0  0  0  0  0
   -8.0069    0.6506   27.2927 N   0  0  0  0  0  0  0  0  0  0  0  0
   -9.2459    0.5300   26.7222 C   0  0  0  0  0  0  0  0  0  0  0  0
   -9.9559    1.5428   26.1592 C   0  0  0  0  0  0  0  0  0  0  0  0
   -8.0291    7.1929   27.2227 Br  0  0  0  0  0  0  0  0  0  0  0  0
   -6.3015    1.8946   28.0460 N   0  0  0  0  0  0  0  0  0  0  0  0
   -5.4974    0.8172   28.2084 C   0  0  0  0  0  0  0  0  0  0  0  0
   -5.6929   -0.3517   28.1417 C   0  0  0  0  0  0  0  0  0  0  0  0
   -5.0060   -1.4595   28.4715 C   0  0  0  0  0  0  0  0  0  0  0  0
   -3.6929   -1.1040   28.9986 C   0  0  0  0  0  0  0  0  0  0  0  0
   -3.2653    0.2043   29.0647 C   0  0  0  0  0  0  0  0  0  0  0  0
   -4.1135    1.1875   28.7722 C   0  0  0  0  0  0  0  0  0  0  0  0
   -2.8057   -2.1664   29.3471 N   0  0  0  0  0  0  0  0  0  0  0  0
   -1.7428   -2.3136   29.0760 C   0  0  0  0  0  0  0  0  0  0  0  0
   -1.0868   -1.4714   28.1284 C   0  0  0  0  0  0  0  0  0  0  0  0
    0.2693   -1.7569   27.7498 C   0  0  0  0  0  0  0  0  0  0  0  0
    0.9426   -2.7723   28.3697 C   0  0  0  0  0  0  0  0  0  0  0  0
    0.3261   -3.5793   29.2944 C   0  0  0  0  0  0  0  0  0  0  0  0
   -0.9069   -3.3198   29.6897 C   0  0  0  0  0  0  0  0  0  0  0  0
  4 11  1  0
  3 12  1  0
 12 13  1  0
 16 19  1  0
 19 20  1  0
 13 14  2  0
 14 15  1  0
 15 16  2  0
 16 17  1  0
 17 18  2  0
 18 13  1  0
  1  2  2  0
  7  6  2  0
  6  5  1  0
  5  4  2  0
  4  1  1  0
 20 21  2  0
 21 22  1  0
 22 23  2  0
 23 24  1  0
 24 25  2  0
 25 20  1  0
  2  3  1  0
  3  8  2  0
  8  9  1  0
  9 10  2  0
 10  7  1  0
  7  2  1  0
M  END
$$$$
