No_969-complexes_sdf/6BKW-FPZ/2024-09-17-14-21-01/
     RDKit          3D

 31 34  0  0  0  0  0  0  0  0999 V2000
   -7.9040    3.9820   27.1177 C   0  0  0  0  0  0  0  0  0  0  0  0
   -8.2057    2.8231   26.8733 C   0  0  0  0  0  0  0  0  0  0  0  0
   -8.7695    5.0740   26.7916 C   0  0  0  0  0  0  0  0  0  0  0  0
   -8.4337    6.4678   27.0913 C   0  0  0  0  0  0  0  0  0  0  0  0
   -9.3742    2.4311   26.2346 C   0  0  0  0  0  0  0  0  0  0  0  0
  -10.2395    3.4267   25.8887 C   0  0  0  0  0  0  0  0  0  0  0  0
   -9.9567    4.7548   26.1374 C   0  0  0  0  0  0  0  0  0  0  0  0
   -7.9839    7.5474   27.0128 N   0  0  0  0  0  0  0  0  0  0  0  0
   -7.1373    1.9169   27.3680 N   0  0  0  0  0  0  0  0  0  0  0  0
   -7.2631    0.5708   27.5031 C   0  0  0  0  0  0  0  0  0  0  0  0
   -6.1170   -0.1075   27.9444 C   0  0  0  0  0  0  0  0  0  0  0  0
   -6.0039   -1.4181   28.2401 C   0  0  0  0  0  0  0  0  0  0  0  0
   -7.2386   -2.1104   28.0750 C   0  0  0  0  0  0  0  0  0  0  0  0
   -8.3965   -1.5022   27.6731 C   0  0  0  0  0  0  0  0  0  0  0  0
   -8.3988   -0.1556   27.4534 C   0  0  0  0  0  0  0  0  0  0  0  0
   -4.8064    0.7367   28.0556 C   0  0  0  0  0  0  0  0  0  0  0  0
   -3.8151    0.2307   28.1353 O   0  0  0  0  0  0  0  0  0  0  0  0
   -4.9680    2.0723   28.3912 O   0  0  0  0  0  0  0  0  0  0  0  0
  -11.4581    3.1161   25.1039 C   0  0  0  0  0  0  0  0  0  0  0  0
  -12.5875    2.8718   25.6986 C   0  0  0  0  0  0  0  0  0  0  0  0
  -11.4102    3.0801   23.6828 C   0  0  0  0  0  0  0  0  0  0  0  0
  -10.3155    3.2283   23.0196 C   0  0  0  0  0  0  0  0  0  0  0  0
  -10.2418    3.2682   21.5672 C   0  0  0  0  0  0  0  0  0  0  0  0
  -11.3838    2.9864   20.8920 C   0  0  0  0  0  0  0  0  0  0  0  0
  -12.5908    2.8155   21.5625 C   0  0  0  0  0  0  0  0  0  0  0  0
  -12.5881    2.9068   22.9429 C   0  0  0  0  0  0  0  0  0  0  0  0
  -12.7563    2.6763   27.0075 C   0  0  0  0  0  0  0  0  0  0  0  0
  -14.0125    2.5148   27.6529 C   0  0  0  0  0  0  0  0  0  0  0  0
  -15.0869    2.4770   26.8387 C   0  0  0  0  0  0  0  0  0  0  0  0
  -13.8793    2.8878   25.0248 C   0  0  0  0  0  0  0  0  0  0  0  0
  -14.7735    2.9223   25.6686 C   0  0  0  0  0  0  0  0  0  0  0  0
  3  4  1  0
  4  8  3  0
  2  9  1  0
  9 10  1  0
 11 16  1  0
 16 17  2  0
 16 18  1  0
  6 19  1  0
 19 20  1  0
 19 21  1  0
 20 27  2  0
 27 28  1  0
 28 29  2  0
 29 31  1  0
 31 30  2  0
 30 20  1  0
  1  2  2  0
  2  5  1  0
  5  6  2  0
  6  7  1  0
  7  3  2  0
  3  1  1  0
 10 11  2  0
 11 12  1  0
 12 13  2  0
 13 14  1  0
 14 15  2  0
 15 10  1  0
 21 22  2  0
 22 23  1  0
 23 24  2  0
 24 25  1  0
 25 26  2  0
 26 21  1  0
M  END
$$$$
