No_9099-complexes_sdf/6BKW-FPZ/2024-09-17-14-21-01/
     RDKit          3D

 20 21  0  0  0  0  0  0  0  0999 V2000
   -7.9040    3.9820   27.1177 C   0  0  0  0  0  0  0  0  0  0  0  0
   -8.2057    2.8231   26.8733 C   0  0  0  0  0  0  0  0  0  0  0  0
   -7.4766    1.7477   27.4593 C   0  0  0  0  0  0  0  0  0  0  0  0
   -6.7221    4.3631   27.8544 C   0  0  0  0  0  0  0  0  0  0  0  0
   -6.1698    2.0708   27.9540 C   0  0  0  0  0  0  0  0  0  0  0  0
   -5.8496    3.3886   28.1848 C   0  0  0  0  0  0  0  0  0  0  0  0
   -8.7560    5.1534   26.7276 C   0  0  0  0  0  0  0  0  0  0  0  0
   -9.1846    5.1471   25.5262 F   0  0  0  0  0  0  0  0  0  0  0  0
   -9.9335    5.2633   27.5434 F   0  0  0  0  0  0  0  0  0  0  0  0
   -8.1678    6.4231   26.8804 F   0  0  0  0  0  0  0  0  0  0  0  0
   -5.4233    0.8332   28.2800 C   0  0  0  0  0  0  0  0  0  0  0  0
   -5.7911   -0.4420   28.2507 C   0  0  0  0  0  0  0  0  0  0  0  0
   -4.9713   -1.4849   28.6919 C   0  0  0  0  0  0  0  0  0  0  0  0
   -3.6691   -1.1676   29.1465 C   0  0  0  0  0  0  0  0  0  0  0  0
   -3.2063    0.1241   29.1542 C   0  0  0  0  0  0  0  0  0  0  0  0
   -3.9952    1.1221   28.7894 C   0  0  0  0  0  0  0  0  0  0  0  0
   -2.7839   -2.3020   29.6035 C   0  0  0  0  0  0  0  0  0  0  0  0
   -3.0997   -3.0667   30.4207 F   0  0  0  0  0  0  0  0  0  0  0  0
   -1.5889   -1.7070   30.0090 F   0  0  0  0  0  0  0  0  0  0  0  0
   -2.3942   -2.9370   28.4223 F   0  0  0  0  0  0  0  0  0  0  0  0
  1  7  1  0
  7  8  1  0
  7  9  1  0
  7 10  1  0
  5 11  1  0
 14 17  1  0
 17 18  1  0
 17 19  1  0
 17 20  1  0
 11 12  2  0
 12 13  1  0
 13 14  2  0
 14 15  1  0
 15 16  2  0
 16 11  1  0
  1  2  2  0
  2  3  1  0
  3  5  2  0
  5  6  1  0
  6  4  2  0
  4  1  1  0
M  END
$$$$
