No_923-complexes_sdf/6BKW-FPZ/2024-09-17-14-21-01/
     RDKit          3D

 40 44  0  0  0  0  0  0  0  0999 V2000
   -7.9040    3.9820   27.1177 C   0  0  0  0  0  0  0  0  0  0  0  0
   -7.8663    4.8694   27.9238 C   0  0  0  0  0  0  0  0  0  0  0  0
   -7.4698    2.6989   27.4277 C   0  0  0  0  0  0  0  0  0  0  0  0
   -7.9683    1.5964   26.8266 C   0  0  1  0  0  0  0  0  0  0  0  0
   -8.9447    1.7923   25.8533 C   0  0  0  0  0  0  0  0  0  0  0  0
   -9.4405    2.9988   25.5757 C   0  0  1  0  0  0  0  0  0  0  0  0
   -8.9424    4.1117   26.2388 C   0  0  0  0  0  0  0  0  0  0  0  0
   -8.2732    6.2141   27.6484 N   0  0  0  0  0  0  0  0  0  0  0  0
   -9.1790    6.5361   26.7045 C   0  0  0  0  0  0  0  0  0  0  0  0
   -9.5395    5.4021   25.9218 C   0  0  0  0  0  0  0  0  0  0  0  0
   -7.3870    0.2618   27.0958 C   0  0  0  0  0  0  0  0  0  0  0  0
   -6.0772    0.1276   27.5398 C   0  0  0  0  0  0  0  0  0  0  0  0
   -5.5493   -1.1023   27.8802 C   0  0  0  0  0  0  0  0  0  0  0  0
   -6.3598   -2.1938   27.7943 C   0  0  0  0  0  0  0  0  0  0  0  0
   -8.0405   -0.9605   27.1117 C   0  0  0  0  0  0  0  0  0  0  0  0
   -7.6119   -2.1134   27.4360 C   0  0  0  0  0  0  0  0  0  0  0  0
  -10.4001    3.1130   24.4630 C   0  0  0  0  0  0  0  0  0  0  0  0
  -11.4830    3.8660   24.6190 C   0  0  0  0  0  0  0  0  0  0  0  0
  -10.1370    2.4629   23.2737 C   0  0  0  0  0  0  0  0  0  0  0  0
  -10.7052    2.7890   22.0801 C   0  0  0  0  0  0  0  0  0  0  0  0
  -12.2783    4.1631   23.4155 C   0  0  0  0  0  0  0  0  0  0  0  0
  -11.8825    3.6021   22.1666 C   0  0  0  0  0  0  0  0  0  0  0  0
   -4.1155   -1.1272   28.3740 C   0  0  0  0  0  0  0  0  0  0  0  0
   -3.9598   -0.9517   29.6304 F   0  0  0  0  0  0  0  0  0  0  0  0
   -3.4689   -0.0933   27.7700 F   0  0  0  0  0  0  0  0  0  0  0  0
   -3.5315   -2.2276   28.0084 F   0  0  0  0  0  0  0  0  0  0  0  0
  -12.5879    3.8445   21.0555 O   0  0  0  0  0  0  0  0  0  0  0  0
  -12.0994    3.4642   19.8934 C   0  0  0  0  0  0  0  0  0  0  0  0
   -8.4229   -3.3157   27.3880 C   0  0  0  0  0  0  0  0  0  0  0  0
   -9.0860   -3.8382   28.0552 C   0  0  0  0  0  0  0  0  0  0  0  0
   -9.7865   -4.2768   28.6694 C   0  0  0  0  0  0  0  0  0  0  0  0
   -8.1970   -4.0023   26.0086 C   0  0  0  0  0  0  0  0  0  0  0  0
   -7.4536   -3.7472   25.1460 C   0  0  0  0  0  0  0  0  0  0  0  0
  -10.1891   -3.7127   29.7895 O   0  0  0  0  0  0  0  0  0  0  0  0
   -7.3677   -4.4834   23.9386 C   0  0  0  0  0  0  0  0  0  0  0  0
  -10.3654   -5.4344   28.4603 F   0  0  0  0  0  0  0  0  0  0  0  0
   -8.2124   -5.5232   23.8342 C   0  0  0  0  0  0  0  0  0  0  0  0
   -9.1076   -5.8632   24.7947 C   0  0  0  0  0  0  0  0  0  0  0  0
   -9.1095   -5.1140   25.9012 C   0  0  0  0  0  0  0  0  0  0  0  0
   -8.5468   -3.0990   28.9811 F   0  0  0  0  0  0  0  0  0  0  0  0
  1  3  1  0
  3  4  1  0
  4  5  1  0
  5  6  1  0
  6  7  1  0
  4 11  1  6
  6 17  1  6
 13 23  1  0
 23 24  1  0
 23 25  1  0
 23 26  1  0
 22 27  1  0
 27 28  1  0
 16 29  1  0
 29 30  2  3
 30 31  1  0
 29 32  1  0
 31 34  1  0
 31 36  1  0
 30 40  1  0
  1  2  2  0
  2  8  1  0
  8  9  2  0
  9 10  1  0
 10  7  2  0
  7  1  1  0
 17 18  2  0
 18 21  1  0
 21 22  2  0
 22 20  1  0
 20 19  2  0
 19 17  1  0
 32 33  2  0
 33 35  1  0
 35 37  2  0
 37 38  1  0
 38 39  2  0
 39 32  1  0
 11 12  2  0
 12 13  1  0
 13 14  2  0
 14 16  1  0
 16 15  2  0
 15 11  1  0
M  END
$$$$
