No_9931-complexes_sdf/6BKW-FPZ/2024-09-17-14-21-01/
     RDKit          3D

 14 16  0  0  0  0  0  0  0  0999 V2000
   -7.2496    3.8871   27.4508 C   0  0  0  0  0  0  0  0  0  0  0  0
   -7.6161    2.7143   27.1523 C   0  0  0  0  0  0  0  0  0  0  0  0
   -8.8302    2.4659   26.5056 C   0  0  0  0  0  0  0  0  0  0  0  0
   -8.1584    5.0089   27.3234 C   0  0  0  0  0  0  0  0  0  0  0  0
   -9.3788    4.7965   26.7695 C   0  0  0  0  0  0  0  0  0  0  0  0
   -9.7028    3.5649   26.3276 C   0  0  0  0  0  0  0  0  0  0  0  0
   -6.9181    1.4461   27.3185 C   0  0  0  0  0  0  0  0  0  0  0  0
   -5.7139    1.5528   28.0109 N   0  0  0  0  0  0  0  0  0  0  0  0
   -7.2112    0.2133   26.8628 C   0  0  0  0  0  0  0  0  0  0  0  0
   -5.0025    0.4132   28.2175 C   0  0  0  0  0  0  0  0  0  0  0  0
   -8.5052    0.0955   26.1674 C   0  0  0  0  0  0  0  0  0  0  0  0
   -9.3859    1.1768   25.9412 C   0  0  0  0  0  0  0  0  0  0  0  0
   -5.4237   -0.7890   27.9489 C   0  0  0  0  0  0  0  0  0  0  0  0
   -6.5489   -0.9322   27.2066 C   0  0  0  0  0  0  0  0  0  0  0  0
  3 12  1  0
 12 11  2  0
 11  9  1  0
  7  2  1  0
  1  2  2  0
  2  3  1  0
  3  6  2  0
  6  5  1  0
  5  4  2  0
  4  1  1  0
  7  8  2  0
  8 10  1  0
 10 13  2  0
 13 14  1  0
 14  9  2  0
  9  7  1  0
M  END
$$$$
