No_9683-complexes_sdf/6BKW-FPZ/2024-09-17-14-21-01/
     RDKit          3D

 12 13  0  0  0  0  0  0  0  0999 V2000
   -7.2496    3.8871   27.4508 C   0  0  0  0  0  0  0  0  0  0  0  0
   -7.9379    4.9063   27.8518 C   0  0  0  0  0  0  0  0  0  0  0  0
   -9.3460    4.8223   27.8695 C   0  0  0  0  0  0  0  0  0  0  0  0
   -7.8628    2.6163   27.1065 C   0  0  0  0  0  0  0  0  0  0  0  0
   -9.2787    2.5744   27.1970 C   0  0  0  0  0  0  0  0  0  0  0  0
  -10.0108    3.6770   27.6340 C   0  0  0  0  0  0  0  0  0  0  0  0
  -11.4834    3.5674   27.7432 C   0  0  0  0  0  0  0  0  0  0  0  0
  -12.3295    3.8838   27.2730 C   0  0  0  0  0  0  0  0  0  0  0  0
  -13.3572    4.0099   27.2530 C   0  0  0  0  0  0  0  0  0  0  0  0
  -14.0871    3.4965   28.3847 C   0  0  0  0  0  0  0  0  0  0  0  0
  -13.2861    2.9199   29.3167 C   0  0  0  0  0  0  0  0  0  0  0  0
  -11.8737    2.9562   29.0926 C   0  0  0  0  0  0  0  0  0  0  0  0
  6  7  1  0
  1  2  2  0
  2  3  1  0
  3  6  2  0
  6  5  1  0
  5  4  2  0
  4  1  1  0
  7  8  2  0
  8  9  1  0
  9 10  2  0
 10 11  1  0
 11 12  2  0
 12  7  1  0
M  END
$$$$
