No_9237-complexes_sdf/6BKW-FPZ/2024-09-17-14-21-01/
     RDKit          3D

 34 38  0  0  0  0  0  0  0  0999 V2000
   -7.9040    3.9820   27.1177 C   0  0  0  0  0  0  0  0  0  0  0  0
   -9.0711    4.3164   27.0630 C   0  0  0  0  0  0  0  0  0  0  0  0
   -9.5182    5.5541   27.5777 C   0  0  0  0  0  0  0  0  0  0  0  0
   -6.9424    4.7983   27.8424 C   0  0  0  0  0  0  0  0  0  0  0  0
   -7.3526    5.9739   28.3909 C   0  0  0  0  0  0  0  0  0  0  0  0
   -8.6479    6.3742   28.2169 C   0  0  0  0  0  0  0  0  0  0  0  0
  -10.0621    3.4422   26.3345 C   0  0  0  0  0  0  0  0  0  0  0  0
   -9.6335    2.6185   25.4370 C   0  0  0  0  0  0  0  0  0  0  0  0
  -10.4644    2.0049   24.4699 C   0  0  0  0  0  0  0  0  0  0  0  0
  -11.8019    2.3414   24.4925 C   0  0  0  0  0  0  0  0  0  0  0  0
  -12.2598    3.2960   25.3832 C   0  0  0  0  0  0  0  0  0  0  0  0
  -11.3961    3.9667   26.2508 C   0  0  0  0  0  0  0  0  0  0  0  0
   -9.9694    0.9645   23.5517 C   0  0  0  0  0  0  0  0  0  0  0  0
   -8.9780    0.1811   23.8124 C   0  0  0  0  0  0  0  0  0  0  0  0
   -8.3849    0.2132   25.1404 C   0  0  0  0  0  0  0  0  0  0  0  0
   -8.5808    1.5173   25.8807 C   0  0  0  0  0  0  0  0  0  0  0  0
  -12.6101    1.6699   23.6786 C   0  0  0  0  0  0  0  0  0  0  0  0
  -12.7449    2.1094   22.3216 C   0  0  0  0  0  0  0  0  0  0  0  0
  -13.4297    0.6138   24.0768 C   0  0  2  0  0  0  0  0  0  0  0  0
  -13.4813    0.2103   25.3008 N   0  0  0  0  0  0  0  0  0  0  0  0
  -13.8419    0.7813   26.2797 C   0  0  0  0  0  0  0  0  0  0  0  0
  -13.6838    0.1356   27.6533 C   0  0  0  0  0  0  0  0  0  0  0  0
  -13.7861   -0.2624   23.2139 F   0  0  0  0  0  0  0  0  0  0  0  0
  -12.8592   -0.3617   28.0054 C   0  0  0  0  0  0  0  0  0  0  0  0
  -11.8194   -0.9061   27.0415 C   0  0  2  0  0  0  0  0  0  0  0  0
  -12.2052   -0.6580   25.6602 C   0  0  0  0  0  0  0  0  0  0  0  0
  -10.7652   -1.8134   27.3569 C   0  0  0  0  0  0  0  0  0  0  0  0
   -9.8791   -2.0439   26.6180 C   0  0  0  0  0  0  0  0  0  0  0  0
   -8.7232   -2.8960   27.0070 C   0  0  0  0  0  0  0  0  0  0  0  0
   -7.6582   -3.2253   26.2234 C   0  0  0  0  0  0  0  0  0  0  0  0
   -6.4178   -3.3647   26.8118 C   0  0  0  0  0  0  0  0  0  0  0  0
   -6.2945   -3.5450   28.2187 C   0  0  0  0  0  0  0  0  0  0  0  0
   -7.3847   -3.2695   29.0182 C   0  0  0  0  0  0  0  0  0  0  0  0
   -8.5687   -2.8564   28.4202 C   0  0  0  0  0  0  0  0  0  0  0  0
  2  7  1  0
 10 17  1  0
 17 18  2  0
 17 19  1  0
 19 20  1  0
 20 21  1  0
 19 23  1  6
 22 24  1  0
 25 24  1  1
 20 26  1  0
 25 27  1  0
 27 28  2  3
 28 29  1  0
 21 22  1  0
 25 26  1  0
  1  2  2  0
  2  3  1  0
  3  6  2  0
  6  5  1  0
  5  4  2  0
  4  1  1  0
 29 30  2  0
 30 31  1  0
 31 32  2  0
 32 33  1  0
 33 34  2  0
 34 29  1  0
  9 13  2  0
 13 14  1  0
 14 15  2  0
 15 16  1  0
 16  8  2  0
  7  8  1  0
  8  9  1  0
  9 10  1  0
 10 11  2  0
 11 12  1  0
 12  7  2  0
M  END
$$$$
