No_9169-complexes_sdf/6BKW-FPZ/2024-09-17-14-21-01/
     RDKit          3D

 27 30  0  0  0  0  0  0  0  0999 V2000
   -7.2496    3.8871   27.4508 C   0  0  0  0  0  0  0  0  0  0  0  0
   -7.9379    4.9063   27.8518 C   0  0  0  0  0  0  0  0  0  0  0  0
   -7.5112    6.1898   27.6280 C   0  0  0  0  0  0  0  0  0  0  0  0
   -9.3085    4.6933   28.2930 C   0  0  0  0  0  0  0  0  0  0  0  0
   -7.7804    2.5137   27.6844 C   0  0  0  0  0  0  0  0  0  0  0  0
   -7.0500    1.4112   27.1569 C   0  0  2  0  0  0  0  0  0  0  0  0
   -7.2198    0.1763   27.6297 C   0  0  0  0  0  0  0  0  0  0  0  0
   -6.1691   -0.5748   28.1017 C   0  0  0  0  0  0  0  0  0  0  0  0
   -4.8315   -0.0999   27.9269 C   0  0  0  0  0  0  0  0  0  0  0  0
   -3.7964   -0.9347   28.0230 C   0  0  0  0  0  0  0  0  0  0  0  0
   -9.8924    3.4544   28.4202 C   0  0  0  0  0  0  0  0  0  0  0  0
   -9.1022    2.3950   28.0359 C   0  0  0  0  0  0  0  0  0  0  0  0
   -2.5059   -0.3485   27.7148 C   0  0  0  0  0  0  0  0  0  0  0  0
   -2.4557    1.0168   27.3273 C   0  0  0  0  0  0  0  0  0  0  0  0
   -3.5514    1.7415   27.1406 C   0  0  0  0  0  0  0  0  0  0  0  0
   -4.7746    1.2338   27.4663 C   0  0  0  0  0  0  0  0  0  0  0  0
   -5.6020    1.8464   27.3198 O   0  0  0  0  0  0  0  0  0  0  0  0
   -7.1599    1.3346   25.7911 F   0  0  0  0  0  0  0  0  0  0  0  0
  -11.2816    3.2876   28.8734 C   0  0  0  0  0  0  0  0  0  0  0  0
  -12.3148    3.1081   27.9078 C   0  0  0  0  0  0  0  0  0  0  0  0
  -12.2300    3.2044   26.6772 C   0  0  0  0  0  0  0  0  0  0  0  0
  -13.2471    3.2157   25.7895 C   0  0  0  0  0  0  0  0  0  0  0  0
  -13.6832    2.9380   28.4360 C   0  0  0  0  0  0  0  0  0  0  0  0
  -14.7899    2.9549   27.5988 C   0  0  0  0  0  0  0  0  0  0  0  0
  -14.5377    3.1054   26.2424 C   0  0  0  0  0  0  0  0  0  0  0  0
   -7.4094    6.9726   28.5869 F   0  0  0  0  0  0  0  0  0  0  0  0
   -8.4457    6.8029   26.7588 F   0  0  0  0  0  0  0  0  0  0  0  0
  2  3  1  0
  5  6  1  0
  6  7  1  0
  7  8  2  0
  8  9  1  0
  6 17  1  0
 16 17  1  0
  6 18  1  6
 11 19  1  0
 19 20  1  0
  3 26  1  0
  3 27  1  0
  9 10  2  0
 10 13  1  0
 13 14  2  0
 14 15  1  0
 15 16  2  0
 16  9  1  0
  1  2  2  0
  2  4  1  0
  4 11  2  0
 11 12  1  0
 12  5  2  0
  5  1  1  0
 20 21  2  0
 21 22  1  0
 22 25  2  0
 25 24  1  0
 24 23  2  0
 23 20  1  0
M  END
$$$$
