No_9186-complexes_sdf/6BKW-FPZ/2024-09-17-14-21-01/
     RDKit          3D

 14 15  0  0  0  0  0  0  0  0999 V2000
   -7.2496    3.8871   27.4508 C   0  0  0  0  0  0  0  0  0  0  0  0
   -7.6161    2.7143   27.1523 C   0  0  0  0  0  0  0  0  0  0  0  0
   -7.1618    1.8631   27.5232 C   0  0  0  0  0  0  0  0  0  0  0  0
   -8.0384    5.0866   27.3232 C   0  0  0  0  0  0  0  0  0  0  0  0
   -9.1224    5.1097   26.4856 C   0  0  0  0  0  0  0  0  0  0  0  0
   -8.8783    2.5973   26.4116 C   0  0  0  0  0  0  0  0  0  0  0  0
   -9.5900    3.8077   26.0949 C   0  0  0  0  0  0  0  0  0  0  0  0
   -7.4142    0.3944   27.3402 C   0  0  0  0  0  0  0  0  0  0  0  0
   -8.6537    0.2865   26.5753 C   0  0  0  0  0  0  0  0  0  0  0  0
   -9.4005    1.3941   26.0941 C   0  0  0  0  0  0  0  0  0  0  0  0
   -7.4789    6.4272   27.7753 C   0  0  0  0  0  0  0  0  0  0  0  0
   -6.7095   -0.7107   27.8473 C   0  0  0  0  0  0  0  0  0  0  0  0
   -7.2685   -1.8165   28.2736 C   0  0  0  0  0  0  0  0  0  0  0  0
   -6.5552   -2.8508   28.9151 C   0  0  0  0  0  0  0  0  0  0  0  0
  4 11  1  0
  8 12  1  0
 12 13  2  3
 13 14  1  0
  2  3  1  0
  3  8  2  0
  8  9  1  0
  9 10  2  0
 10  6  1  0
  1  2  2  0
  2  6  1  0
  6  7  2  0
  7  5  1  0
  5  4  2  0
  4  1  1  0
M  END
$$$$
