No_9017-complexes_sdf/6BKW-FPZ/2024-09-17-14-21-01/
     RDKit          3D

 14 14  0  0  0  0  0  0  0  0999 V2000
   -7.9040    3.9820   27.1177 C   0  0  0  0  0  0  0  0  0  0  0  0
   -8.2057    2.8231   26.8733 C   0  0  0  0  0  0  0  0  0  0  0  0
   -8.7695    5.0740   26.7916 C   0  0  0  0  0  0  0  0  0  0  0  0
   -9.9618    4.7598   26.1630 C   0  0  0  0  0  0  0  0  0  0  0  0
   -9.4200    2.4524   26.2850 C   0  0  0  0  0  0  0  0  0  0  0  0
  -10.2590    3.4815   25.9250 C   0  0  0  0  0  0  0  0  0  0  0  0
   -8.6241    6.4203   27.0623 N   0  0  0  0  0  0  0  0  0  0  0  0
   -8.0371    7.3310   26.2478 C   0  0  0  0  0  0  0  0  0  0  0  0
   -7.2619    1.6762   27.2905 C   0  0  0  0  0  0  0  0  0  0  0  0
   -7.7029    0.6107   27.5274 F   0  0  0  0  0  0  0  0  0  0  0  0
   -6.2269    1.5678   26.3942 F   0  0  0  0  0  0  0  0  0  0  0  0
   -6.4929    2.1394   28.4016 F   0  0  0  0  0  0  0  0  0  0  0  0
   -7.6950    8.5096   27.2493 C   0  0  0  0  0  0  0  0  0  0  0  0
   -8.4503    7.6477   25.2282 C   0  0  0  0  0  0  0  0  0  0  0  0
  3  7  1  0
  7  8  1  0
  2  9  1  0
  9 10  1  0
  9 11  1  0
  9 12  1  0
  8 13  1  0
  8 14  1  0
  1  2  2  0
  2  5  1  0
  5  6  2  0
  6  4  1  0
  4  3  2  0
  3  1  1  0
M  END
$$$$
