No_9312-complexes_sdf/6BKW-FPZ/2024-09-17-14-21-01/
     RDKit          3D

 40 45  0  0  0  0  0  0  0  0999 V2000
   -7.7129    4.2099   27.0854 C   0  0  0  0  0  0  0  0  0  0  0  0
   -8.9133    4.4736   27.0998 C   0  0  0  0  0  0  0  0  0  0  0  0
   -9.4643    5.5426   27.7628 C   0  0  0  0  0  0  0  0  0  0  0  0
   -7.2009    2.9448   26.6134 C   0  0  0  0  0  0  0  0  0  0  0  0
   -8.1365    1.9533   26.2981 C   0  0  0  0  0  0  0  0  0  0  0  0
   -9.4514    2.2934   26.2667 C   0  0  0  0  0  0  0  0  0  0  0  0
   -9.8600    3.4834   26.7068 C   0  0  0  0  0  0  0  0  0  0  0  0
   -7.6599    0.7928   25.9255 F   0  0  0  0  0  0  0  0  0  0  0  0
  -10.3631    1.2336   25.7773 C   0  0  0  0  0  0  0  0  0  0  0  0
  -10.5634    1.0711   24.5293 C   0  0  0  0  0  0  0  0  0  0  0  0
  -11.4496    0.0892   23.9753 C   0  0  0  0  0  0  0  0  0  0  0  0
  -12.1234   -0.6793   24.9254 C   0  0  0  0  0  0  0  0  0  0  0  0
  -11.8908   -0.5062   26.2774 C   0  0  0  0  0  0  0  0  0  0  0  0
  -11.0064    0.4844   26.8011 C   0  0  0  0  0  0  0  0  0  0  0  0
   -6.5289    5.2717   27.8913 Cl  0  0  0  0  0  0  0  0  0  0  0  0
  -13.0591   -1.6847   24.4563 C   0  0  0  0  0  0  0  0  0  0  0  0
  -13.6770   -2.4111   25.1988 N   0  0  0  0  0  0  0  0  0  0  0  0
  -13.2723   -1.7837   23.1835 O   0  0  0  0  0  0  0  0  0  0  0  0
  -14.4359   -3.2626   25.1350 C   0  0  0  0  0  0  0  0  0  0  0  0
  -15.0683   -3.8771   26.0617 C   0  0  2  0  0  0  0  0  0  0  0  0
  -14.7506   -3.5272   27.4296 C   0  0  0  0  0  0  0  0  0  0  0  0
  -13.8389   -2.5368   27.6585 C   0  0  0  0  0  0  0  0  0  0  0  0
  -13.2971   -1.9279   26.6748 C   0  0  1  0  0  0  0  0  0  0  0  0
  -12.3840   -0.9948   26.9921 C   0  0  0  0  0  0  0  0  0  0  0  0
  -16.0403   -4.9658   25.8720 C   0  0  0  0  0  0  0  0  0  0  0  0
  -16.4747   -5.2607   24.7919 C   0  0  0  0  0  0  0  0  0  0  0  0
  -17.1108   -5.8828   24.2691 C   0  0  0  0  0  0  0  0  0  0  0  0
  -17.8759   -6.8004   25.1307 C   0  0  0  0  0  0  0  0  0  0  0  0
  -17.5775   -6.6740   26.4669 C   0  0  0  0  0  0  0  0  0  0  0  0
  -16.6655   -5.7215   26.9313 C   0  0  0  0  0  0  0  0  0  0  0  0
  -18.8335   -7.7912   24.6595 C   0  0  0  0  0  0  0  0  0  0  0  0
  -19.2075   -7.9419   23.5613 C   0  0  0  0  0  0  0  0  0  0  0  0
  -20.1178   -8.9881   23.1123 C   0  0  0  0  0  0  0  0  0  0  0  0
  -20.5884   -9.8187   24.1422 C   0  0  0  0  0  0  0  0  0  0  0  0
  -20.1749   -9.6495   25.4159 C   0  0  0  0  0  0  0  0  0  0  0  0
  -19.2716   -8.6583   25.8117 C   0  0  0  0  0  0  0  0  0  0  0  0
  -21.5250  -10.8654   23.7510 C   0  0  0  0  0  0  0  0  0  0  0  0
  -22.0228  -11.1623   22.7017 Br  0  0  0  0  0  0  0  0  0  0  0  0
  -21.8280  -11.6617   25.0850 C   0  0  0  0  0  0  0  0  0  0  0  0
  -22.4511  -12.5075   25.1614 C   0  0  0  0  0  0  0  0  0  0  0  0
  5  8  1  0
  6  9  1  0
  1 15  1  0
 12 16  1  0
 16 17  1  0
 16 18  2  0
 17 19  1  0
 20 21  1  0
 17 23  1  0
 23 22  1  1
 13 24  1  0
 23 24  1  0
 20 25  1  1
 28 31  1  0
 34 37  1  0
 37 38  1  0
 37 39  1  0
 39 40  2  0
  3  2  1  0
 19 20  1  0
 21 22  1  0
 25 26  2  0
 26 27  1  0
 27 28  2  0
 28 29  1  0
 29 30  2  0
 30 25  1  0
 31 32  2  0
 32 33  1  0
 33 34  2  0
 34 35  1  0
 35 36  2  0
 36 31  1  0
  1  2  2  0
  2  7  1  0
  7  6  2  0
  6  5  1  0
  5  4  2  0
  4  1  1  0
  9 10  2  0
 10 11  1  0
 11 12  2  0
 12 13  1  0
 13 14  2  0
 14  9  1  0
M  END
$$$$
