No_902-complexes_sdf/6BKW-FPZ/2024-09-17-14-21-01/
     RDKit          3D

 30 32  0  0  0  0  0  0  0  0999 V2000
   -7.9040    3.9820   27.1177 C   0  0  0  0  0  0  0  0  0  0  0  0
   -9.0711    4.3164   27.0630 C   0  0  0  0  0  0  0  0  0  0  0  0
  -10.0395    3.8218   27.1938 C   0  0  0  0  0  0  0  0  0  0  0  0
   -7.6424    2.5858   27.3610 C   0  0  0  0  0  0  0  0  0  0  0  0
   -8.7646    1.7754   27.4263 C   0  0  0  0  0  0  0  0  0  0  0  0
   -9.9966    2.3406   27.3957 C   0  0  0  0  0  0  0  0  0  0  0  0
  -11.2016    1.4680   27.6051 C   0  0  0  0  0  0  0  0  0  0  0  0
  -10.9539    0.2135   27.7368 C   0  0  0  0  0  0  0  0  0  0  0  0
  -12.0190   -0.5933   28.2473 C   0  0  0  0  0  0  0  0  0  0  0  0
  -12.4356    2.0493   27.8563 C   0  0  0  0  0  0  0  0  0  0  0  0
  -13.4953    1.2546   28.2978 C   0  0  0  0  0  0  0  0  0  0  0  0
  -13.2552   -0.0726   28.4499 C   0  0  0  0  0  0  0  0  0  0  0  0
   -6.2580    2.0257   27.3746 C   0  0  0  0  0  0  0  0  0  0  0  0
   -5.8445    1.2199   28.2689 C   0  0  0  0  0  0  0  0  0  0  0  0
   -4.8856    0.2991   27.9047 C   0  0  0  0  0  0  0  0  0  0  0  0
   -4.9610   -0.8314   28.0289 C   0  0  0  0  0  0  0  0  0  0  0  0
   -3.9973   -1.6869   27.6997 C   0  0  0  0  0  0  0  0  0  0  0  0
   -2.7270   -1.1874   27.1742 C   0  0  0  0  0  0  0  0  0  0  0  0
   -2.5972    0.2020   27.0973 C   0  0  0  0  0  0  0  0  0  0  0  0
   -3.6517    1.0109   27.4738 C   0  0  0  0  0  0  0  0  0  0  0  0
   -9.1559    5.9980   26.8583 C   0  0  0  0  0  0  0  0  0  0  0  0
   -8.0442    6.3346   27.2407 F   0  0  0  0  0  0  0  0  0  0  0  0
   -9.2004    6.2508   25.5218 F   0  0  0  0  0  0  0  0  0  0  0  0
  -10.1276    6.5316   27.5049 F   0  0  0  0  0  0  0  0  0  0  0  0
   -6.1838   -1.5382   28.5923 C   0  0  0  0  0  0  0  0  0  0  0  0
   -6.2583   -2.0387   29.8621 C   0  0  0  0  0  0  0  0  0  0  0  0
   -7.4504   -2.6330   30.3474 C   0  0  0  0  0  0  0  0  0  0  0  0
   -7.6133   -3.0386   31.6958 C   0  0  0  0  0  0  0  0  0  0  0  0
   -6.4850   -2.7565   32.5652 C   0  0  0  0  0  0  0  0  0  0  0  0
   -5.3225   -2.1736   32.1226 C   0  0  0  0  0  0  0  0  0  0  0  0
  6  7  1  0
  4 13  1  0
 13 14  1  0
 14 15  1  0
  2 21  1  0
 21 22  1  0
 21 23  1  0
 21 24  1  0
 16 25  1  0
 25 26  2  3
 26 27  1  0
 27 28  2  3
 28 29  1  0
 29 30  2  0
 15 16  2  0
 16 17  1  0
 17 18  2  0
 18 19  1  0
 19 20  2  0
 20 15  1  0
  1  2  2  0
  2  3  1  0
  3  6  2  0
  6  5  1  0
  5  4  2  0
  4  1  1  0
  7  8  2  0
  8  9  1  0
  9 12  2  0
 12 11  1  0
 11 10  2  0
 10  7  1  0
M  END
$$$$
