No_9389-complexes_sdf/6BKW-FPZ/2024-09-17-14-21-01/
     RDKit          3D

 16 18  0  0  0  0  0  0  0  0999 V2000
   -7.7129    4.2099   27.0854 C   0  0  0  0  0  0  0  0  0  0  0  0
   -7.7814    5.1722   27.8972 C   0  0  0  0  0  0  0  0  0  0  0  0
   -8.8998    3.8713   26.3707 C   0  0  0  0  0  0  0  0  0  0  0  0
   -9.9938    4.6774   26.5446 C   0  0  0  0  0  0  0  0  0  0  0  0
   -8.7789    6.1536   27.9256 C   0  0  0  0  0  0  0  0  0  0  0  0
   -9.9428    5.8398   27.2296 C   0  0  0  0  0  0  0  0  0  0  0  0
   -8.9208    2.6404   25.5721 C   0  0  0  0  0  0  0  0  0  0  0  0
   -8.3122    1.5527   26.0757 N   0  0  0  0  0  0  0  0  0  0  0  0
   -8.1785    0.4130   25.3859 C   0  0  0  0  0  0  0  0  0  0  0  0
   -7.2383   -0.5195   25.8520 C   0  0  0  0  0  0  0  0  0  0  0  0
   -6.4881   -0.2584   27.0416 C   0  0  0  0  0  0  0  0  0  0  0  0
   -6.6185    1.0124   27.6792 C   0  0  0  0  0  0  0  0  0  0  0  0
   -7.4357    1.9269   27.1645 C   0  0  1  0  0  0  0  0  0  0  0  0
   -7.3042    3.1560   27.6002 N   0  0  0  0  0  0  0  0  0  0  0  0
   -9.7267    2.5594   24.6263 O   0  0  0  0  0  0  0  0  0  0  0  0
   -6.6582    5.6155   28.5973 O   0  0  0  0  0  0  0  0  0  0  0  0
  3  7  1  0
  7  8  1  0
  8  9  1  0
 10 11  1  0
  8 13  1  0
 13 12  1  6
  1 14  1  0
 13 14  1  0
  7 15  2  0
  2 16  1  0
  9 10  1  0
 11 12  1  0
  1  2  2  0
  2  5  1  0
  5  6  2  0
  6  4  1  0
  4  3  2  0
  3  1  1  0
M  END
$$$$
