No_9633-complexes_sdf/6BKW-FPZ/2024-09-17-14-21-01/
     RDKit          3D

 28 30  0  0  0  0  0  0  0  0999 V2000
   -7.9040    3.9820   27.1177 C   0  0  0  0  0  0  0  0  0  0  0  0
   -9.0711    4.3164   27.0630 C   0  0  0  0  0  0  0  0  0  0  0  0
  -10.0395    3.8218   27.1938 C   0  0  0  0  0  0  0  0  0  0  0  0
   -7.6424    2.5858   27.3610 C   0  0  0  0  0  0  0  0  0  0  0  0
   -6.3587    2.0254   27.5043 C   0  0  0  0  0  0  0  0  0  0  0  0
  -11.4508    4.2867   27.1401 C   0  0  0  0  0  0  0  0  0  0  0  0
   -5.2849    2.8190   27.9173 C   0  0  0  0  0  0  0  0  0  0  0  0
   -8.7973    1.8057   27.4858 C   0  0  0  0  0  0  0  0  0  0  0  0
  -10.0397    2.3955   27.4729 C   0  0  0  0  0  0  0  0  0  0  0  0
   -6.1997    0.5807   27.5437 C   0  0  0  0  0  0  0  0  0  0  0  0
   -4.9288    0.0592   27.7583 C   0  0  0  0  0  0  0  0  0  0  0  0
   -3.8472    0.8313   28.1012 C   0  0  0  0  0  0  0  0  0  0  0  0
   -4.0468    2.2330   28.1873 C   0  0  0  0  0  0  0  0  0  0  0  0
  -12.1985    4.7541   28.1045 C   0  0  0  0  0  0  0  0  0  0  0  0
  -13.3462    4.1334   28.3018 C   0  0  0  0  0  0  0  0  0  0  0  0
  -14.0913    3.5798   27.2610 C   0  0  0  0  0  0  0  0  0  0  0  0
  -12.1628    4.2035   25.8564 C   0  0  0  0  0  0  0  0  0  0  0  0
  -11.4693    4.0843   24.6729 C   0  0  0  0  0  0  0  0  0  0  0  0
  -13.5429    3.9658   25.8862 C   0  0  0  0  0  0  0  0  0  0  0  0
  -12.0314    4.1232   23.4278 C   0  0  0  0  0  0  0  0  0  0  0  0
  -11.2395    4.0931   22.3046 C   0  0  0  0  0  0  0  0  0  0  0  0
  -11.7339    4.1219   21.0665 C   0  0  0  0  0  0  0  0  0  0  0  0
   -9.0810    5.9944   26.7632 C   0  0  0  0  0  0  0  0  0  0  0  0
  -12.1963    3.1110   20.6498 C   0  0  0  0  0  0  0  0  0  0  0  0
  -12.5898    2.9990   19.2943 C   0  0  0  0  0  0  0  0  0  0  0  0
  -13.2531    1.9152   18.7169 C   0  0  0  0  0  0  0  0  0  0  0  0
  -13.3927    0.8325   19.5583 C   0  0  0  0  0  0  0  0  0  0  0  0
  -13.0141    0.7979   20.8086 C   0  0  0  0  0  0  0  0  0  0  0  0
  4  5  1  0
  3  6  1  0
 17 18  1  0
 18 20  2  3
 20 21  1  0
 21 22  1  0
  2 23  1  0
 22 24  2  3
 24 25  1  0
 25 26  2  3
 26 27  1  0
 27 28  2  0
  5  7  2  0
  7 13  1  0
 13 12  2  0
 12 11  1  0
 11 10  2  0
 10  5  1  0
  6 14  2  0
 14 15  1  0
 15 16  2  0
 16 19  1  0
 19 17  2  0
 17  6  1  0
  1  2  2  0
  2  3  1  0
  3  9  2  0
  9  8  1  0
  8  4  2  0
  4  1  1  0
M  END
$$$$
