No_978-complexes_sdf/6BKW-FPZ/2024-09-17-14-21-01/
     RDKit          3D

 27 29  0  0  0  0  0  0  0  0999 V2000
   -7.9040    3.9820   27.1177 C   0  0  0  0  0  0  0  0  0  0  0  0
   -9.0711    4.3164   27.0630 C   0  0  0  0  0  0  0  0  0  0  0  0
   -9.5182    5.5541   27.5777 C   0  0  0  0  0  0  0  0  0  0  0  0
   -6.9424    4.7983   27.8424 C   0  0  0  0  0  0  0  0  0  0  0  0
   -7.3526    5.9739   28.3909 C   0  0  0  0  0  0  0  0  0  0  0  0
   -8.6479    6.3742   28.2169 C   0  0  0  0  0  0  0  0  0  0  0  0
  -10.0621    3.4422   26.3345 C   0  0  0  0  0  0  0  0  0  0  0  0
   -9.6335    2.6185   25.4370 C   0  0  0  0  0  0  0  0  0  0  0  0
  -10.2933    1.9173   24.6163 C   0  0  0  0  0  0  0  0  0  0  0  0
  -11.6984    2.1399   24.5091 C   0  0  0  0  0  0  0  0  0  0  0  0
  -12.2140    3.1068   25.3838 C   0  0  0  0  0  0  0  0  0  0  0  0
  -11.4270    3.8596   26.2418 C   0  0  0  0  0  0  0  0  0  0  0  0
   -9.7471    0.8626   23.6839 C   0  0  0  0  0  0  0  0  0  0  0  0
   -8.8548   -0.0586   24.1388 C   0  0  0  0  0  0  0  0  0  0  0  0
   -8.5996   -0.1698   25.4246 C   0  0  0  0  0  0  0  0  0  0  0  0
   -7.8938   -0.9329   26.0140 C   0  0  0  0  0  0  0  0  0  0  0  0
   -6.6420   -1.1495   25.9690 C   0  0  0  0  0  0  0  0  0  0  0  0
   -6.2284   -0.8281   24.5317 C   0  0  0  0  0  0  0  0  0  0  0  0
   -7.5883   -0.2860   23.3741 C   0  0  0  0  0  0  0  0  0  0  0  0
  -10.1242    0.7957   22.3051 C   0  0  2  0  0  0  0  0  0  0  0  0
   -9.9176    2.0209   21.6148 C   0  0  0  0  0  0  0  0  0  0  0  0
  -11.4271    0.3222   22.0545 C   0  0  0  0  0  0  0  0  0  0  0  0
  -11.8911    0.4146   20.8384 C   0  0  0  0  0  0  0  0  0  0  0  0
  -13.1100   -0.2219   20.4735 C   0  0  0  0  0  0  0  0  0  0  0  0
  -13.5166   -0.1588   19.1473 C   0  0  0  0  0  0  0  0  0  0  0  0
  -12.8763    0.2521   18.3266 C   0  0  0  0  0  0  0  0  0  0  0  0
  -11.5912    0.9134   18.4609 C   0  0  0  0  0  0  0  0  0  0  0  0
  2  7  1  0
  9 13  1  0
 13 14  1  0
 13 20  1  0
 20 21  1  1
 20 22  1  0
 22 23  2  3
 23 24  1  0
 24 25  1  0
 25 26  2  3
 26 27  1  0
 14 15  2  0
 15 16  1  0
 16 17  2  0
 17 18  1  0
 18 19  2  0
 19 14  1  0
  1  2  2  0
  2  3  1  0
  3  6  2  0
  6  5  1  0
  5  4  2  0
  4  1  1  0
  7  8  2  0
  8  9  1  0
  9 10  2  0
 10 11  1  0
 11 12  2  0
 12  7  1  0
M  END
$$$$
