No_9829-complexes_sdf/6BKW-FPZ/2024-09-17-14-21-01/
     RDKit          3D

 32 37  0  0  0  0  0  0  0  0999 V2000
   -7.9040    3.9820   27.1177 C   0  0  0  0  0  0  0  0  0  0  0  0
   -9.0711    4.3164   27.0630 C   0  0  0  0  0  0  0  0  0  0  0  0
   -9.8698    3.9665   25.9495 C   0  0  0  0  0  0  0  0  0  0  0  0
   -7.0332    4.5030   28.2025 C   0  0  0  0  0  0  0  0  0  0  0  0
  -10.9909    4.7237   25.5958 C   0  0  0  0  0  0  0  0  0  0  0  0
   -7.4989    5.5573   28.9524 C   0  0  0  0  0  0  0  0  0  0  0  0
  -11.7350    4.2316   24.5284 C   0  0  0  0  0  0  0  0  0  0  0  0
  -11.2838    3.2467   23.6902 C   0  0  0  0  0  0  0  0  0  0  0  0
  -10.1288    2.5811   23.9927 C   0  0  0  0  0  0  0  0  0  0  0  0
   -9.3812    2.9944   25.1034 C   0  0  0  0  0  0  0  0  0  0  0  0
   -9.4806    5.4316   27.8950 C   0  0  0  0  0  0  0  0  0  0  0  0
   -8.6967    5.9823   28.8000 N   0  0  0  0  0  0  0  0  0  0  0  0
  -12.0370    2.8202   22.4803 C   0  0  0  0  0  0  0  0  0  0  0  0
  -11.4968    2.8740   21.4088 C   0  0  0  0  0  0  0  0  0  0  0  0
  -11.9672    2.5209   20.1421 C   0  0  0  0  0  0  0  0  0  0  0  0
  -13.4058    2.5821   22.5572 C   0  0  0  0  0  0  0  0  0  0  0  0
  -14.0966    2.5771   23.7663 C   0  0  0  0  0  0  0  0  0  0  0  0
  -13.5807    2.2872   24.8634 C   0  0  0  0  0  0  0  0  0  0  0  0
  -14.4614    2.1981   26.0871 C   0  0  0  0  0  0  0  0  0  0  0  0
  -13.9303    1.8373   27.3726 C   0  0  0  0  0  0  0  0  0  0  0  0
  -12.5134    1.5873   27.4912 C   0  0  0  0  0  0  0  0  0  0  0  0
  -11.7093    1.6373   26.3454 C   0  0  0  0  0  0  0  0  0  0  0  0
  -12.2338    2.0120   25.1889 C   0  0  0  0  0  0  0  0  0  0  0  0
  -11.8603    0.7233   24.4337 C   0  0  0  0  0  0  0  0  0  0  0  0
  -12.8975   -0.2883   24.3878 C   0  0  0  0  0  0  0  0  0  0  0  0
  -14.0789    2.3732   21.3871 C   0  0  0  0  0  0  0  0  0  0  0  0
  -13.3651    2.3778   20.1824 C   0  0  0  0  0  0  0  0  0  0  0  0
  -12.5209   -1.4917   23.6943 C   0  0  0  0  0  0  0  0  0  0  0  0
  -11.4040   -1.5136   22.9235 C   0  0  0  0  0  0  0  0  0  0  0  0
  -10.4636   -0.4943   22.8935 C   0  0  0  0  0  0  0  0  0  0  0  0
  -10.7386    0.6084   23.6636 C   0  0  0  0  0  0  0  0  0  0  0  0
   -9.7160    1.6297   23.3399 O   0  0  0  0  0  0  0  0  0  0  0  0
  8 13  1  0
 16 17  1  0
 23 24  1  0
  9 32  1  0
 31 32  1  0
 17 18  1  0
  3  2  1  0
 18 19  2  0
 19 20  1  0
 20 21  2  0
 21 22  1  0
 22 23  2  0
 23 18  1  0
 24 25  2  0
 25 28  1  0
 28 29  2  0
 29 30  1  0
 30 31  2  0
 31 24  1  0
 13 14  2  0
 14 15  1  0
 15 27  2  0
 27 26  1  0
 26 16  2  0
 16 13  1  0
  1  2  2  0
  2 11  1  0
 11 12  2  0
 12  6  1  0
  6  4  2  0
  4  1  1  0
  3  5  2  0
  5  7  1  0
  7  8  2  0
  8  9  1  0
  9 10  2  0
 10  3  1  0
M  END
$$$$
