No_9306-complexes_sdf/6BKW-FPZ/2024-09-17-14-21-01/
     RDKit          3D

 20 21  0  0  0  0  0  0  0  0999 V2000
   -7.7129    4.2099   27.0854 C   0  0  0  0  0  0  0  0  0  0  0  0
   -7.7814    5.1722   27.8972 C   0  0  0  0  0  0  0  0  0  0  0  0
   -8.8776    3.8408   26.3416 C   0  0  0  0  0  0  0  0  0  0  0  0
   -9.9844    4.6492   26.4743 C   0  0  0  0  0  0  0  0  0  0  0  0
   -8.8033    6.1375   27.8728 C   0  0  0  0  0  0  0  0  0  0  0  0
   -9.9554    5.8280   27.1737 C   0  0  0  0  0  0  0  0  0  0  0  0
   -8.6804    2.5787   25.5887 C   0  0  0  0  0  0  0  0  0  0  0  0
   -8.3238    1.5093   26.3050 N   0  0  0  0  0  0  0  0  0  0  0  0
   -7.7750    1.4959   27.3276 C   0  0  0  0  0  0  0  0  0  0  0  0
   -8.6881    0.2523   25.5989 C   0  0  0  0  0  0  0  0  0  0  0  0
   -9.6673   -0.0808   25.2067 C   0  0  1  0  0  0  0  0  0  0  0  0
  -10.7895    0.2452   25.5371 C   0  0  0  0  0  0  0  0  0  0  0  0
  -11.1663    0.0966   26.8064 C   0  0  0  0  0  0  0  0  0  0  0  0
  -12.4953    0.5198   27.3977 C   0  0  0  0  0  0  0  0  0  0  0  0
  -13.3229    1.1059   26.5119 C   0  0  0  0  0  0  0  0  0  0  0  0
  -13.0300    1.2504   25.2008 C   0  0  0  0  0  0  0  0  0  0  0  0
  -11.8512    0.9273   24.7154 C   0  0  0  0  0  0  0  0  0  0  0  0
   -9.5623   -0.7499   23.8449 C   0  0  0  0  0  0  0  0  0  0  0  0
   -7.4551   -0.3866   25.5915 O   0  0  0  0  0  0  0  0  0  0  0  0
   -9.8581   -2.0530   23.7193 C   0  0  0  0  0  0  0  0  0  0  0  0
  3  7  1  0
  7  8  1  0
  8  9  1  0
  8 10  1  0
 10 11  1  0
 11 12  1  0
 11 18  1  6
 10 19  2  0
 18 20  1  0
 12 13  2  0
 13 14  1  0
 14 15  2  0
 15 16  1  0
 16 17  2  0
 17 12  1  0
  1  2  2  0
  2  5  1  0
  5  6  2  0
  6  4  1  0
  4  3  2  0
  3  1  1  0
M  END
$$$$
