No_9957-complexes_sdf/6BKW-FPZ/2024-09-17-14-21-01/
     RDKit          3D

 23 25  0  0  0  0  0  0  0  0999 V2000
   -7.7129    4.2099   27.0854 C   0  0  0  0  0  0  0  0  0  0  0  0
   -8.2112    3.0637   26.9225 C   0  0  0  0  0  0  0  0  0  0  0  0
   -8.5108    5.3904   26.9436 C   0  0  0  0  0  0  0  0  0  0  0  0
   -7.9752    6.6981   27.2112 C   0  0  0  0  0  0  0  0  0  0  0  0
   -9.5213    2.8208   26.4688 C   0  0  0  0  0  0  0  0  0  0  0  0
  -10.2979    3.9327   26.2378 C   0  0  0  0  0  0  0  0  0  0  0  0
   -9.7894    5.2123   26.4395 C   0  0  0  0  0  0  0  0  0  0  0  0
   -7.2007    2.0413   27.2410 N   0  0  0  0  0  0  0  0  0  0  0  0
   -7.4222    0.6988   27.0631 C   0  0  0  0  0  0  0  0  0  0  0  0
   -6.3481   -0.1263   27.5156 C   0  0  0  0  0  0  0  0  0  0  0  0
   -5.3083    0.6828   28.0484 C   0  0  2  0  0  0  0  0  0  0  0  0
   -4.1093   -0.0448   28.6103 C   0  0  0  0  0  0  0  0  0  0  0  0
   -3.2482    0.8090   29.3757 C   0  0  0  0  0  0  0  0  0  0  0  0
   -5.9218    2.1504   27.8736 C   0  0  0  0  0  0  0  0  0  0  0  0
   -3.8462   -1.2572   28.2425 C   0  0  0  0  0  0  0  0  0  0  0  0
   -2.6473   -1.8703   28.7299 C   0  0  0  0  0  0  0  0  0  0  0  0
   -2.1489    0.1026   30.0018 C   0  0  0  0  0  0  0  0  0  0  0  0
   -1.8549   -1.2038   29.6486 C   0  0  0  0  0  0  0  0  0  0  0  0
   -6.9107    6.7998   27.8334 O   0  0  0  0  0  0  0  0  0  0  0  0
   -8.4760    7.8311   26.6293 N   0  0  0  0  0  0  0  0  0  0  0  0
  -11.6134    3.7382   25.6668 C   0  0  0  0  0  0  0  0  0  0  0  0
  -12.6908    3.4306   26.4978 C   0  0  0  0  0  0  0  0  0  0  0  0
  -13.9718    3.3019   25.9828 C   0  0  0  0  0  0  0  0  0  0  0  0
  3  4  1  0
  2  8  1  0
  8  9  1  0
  9 10  2  0
 10 11  1  0
 11 12  1  1
  8 14  1  0
 11 14  1  0
  4 19  2  0
  4 20  1  0
  6 21  1  0
 21 22  2  3
 22 23  1  0
  1  2  2  0
  2  5  1  0
  5  6  2  0
  6  7  1  0
  7  3  2  0
  3  1  1  0
 12 13  2  0
 13 17  1  0
 17 18  2  0
 18 16  1  0
 16 15  2  0
 15 12  1  0
M  END
$$$$
