No_9659-complexes_sdf/6BKW-FPZ/2024-09-17-14-21-01/
     RDKit          3D

 13 14  0  0  0  0  0  0  0  0999 V2000
   -7.9040    3.9820   27.1177 C   0  0  0  0  0  0  0  0  0  0  0  0
   -8.2057    2.8231   26.8733 C   0  0  0  0  0  0  0  0  0  0  0  0
   -9.3234    2.2125   27.0599 C   0  0  0  0  0  0  0  0  0  0  0  0
   -9.0146    4.9428   27.2420 C   0  0  0  0  0  0  0  0  0  0  0  0
  -10.2851    4.4096   27.2820 C   0  0  0  0  0  0  0  0  0  0  0  0
  -10.4907    3.0453   27.2378 C   0  0  0  0  0  0  0  0  0  0  0  0
   -8.7905    6.2267   27.3916 F   0  0  0  0  0  0  0  0  0  0  0  0
   -9.5532    0.7363   26.8909 C   0  0  0  0  0  0  0  0  0  0  0  0
   -8.5265   -0.0081   27.1146 C   0  0  0  0  0  0  0  0  0  0  0  0
   -8.6569   -1.4206   27.1133 C   0  0  0  0  0  0  0  0  0  0  0  0
   -9.9420   -1.9432   26.9276 C   0  0  0  0  0  0  0  0  0  0  0  0
  -10.7272   -0.0177   26.8714 C   0  0  0  0  0  0  0  0  0  0  0  0
  -10.9547   -1.2315   26.9112 C   0  0  0  0  0  0  0  0  0  0  0  0
  4  7  1  0
  3  8  1  0
  1  2  2  0
  2  3  1  0
  3  6  2  0
  6  5  1  0
  5  4  2  0
  4  1  1  0
  8  9  2  0
  9 10  1  0
 10 11  2  0
 11 13  1  0
 13 12  2  0
 12  8  1  0
M  END
$$$$
