No_9454-complexes_sdf/6BKW-FPZ/2024-09-17-14-21-01/
     RDKit          3D

 32 36  0  0  0  0  0  0  0  0999 V2000
   -7.7129    4.2099   27.0854 C   0  0  0  0  0  0  0  0  0  0  0  0
   -8.2112    3.0637   26.9225 C   0  0  0  0  0  0  0  0  0  0  0  0
   -8.5108    5.3904   26.9436 C   0  0  0  0  0  0  0  0  0  0  0  0
   -9.7256    5.1955   26.3518 C   0  0  0  0  0  0  0  0  0  0  0  0
   -9.4995    2.8258   26.4878 C   0  0  0  0  0  0  0  0  0  0  0  0
  -10.2542    3.9691   26.2055 C   0  0  0  0  0  0  0  0  0  0  0  0
   -7.7461    6.6275   27.1846 C   0  0  0  0  0  0  0  0  0  0  0  0
   -7.2329    1.6095   27.3271 Cl  0  0  0  0  0  0  0  0  0  0  0  0
   -8.4234    7.8216   26.9210 N   0  0  0  0  0  0  0  0  0  0  0  0
   -6.9610    6.7114   28.1856 O   0  0  0  0  0  0  0  0  0  0  0  0
  -11.4695    3.8027   25.6850 F   0  0  0  0  0  0  0  0  0  0  0  0
  -10.0216    1.5674   26.2768 N   0  0  0  0  0  0  0  0  0  0  0  0
   -9.6311    0.7903   25.2786 C   0  0  0  0  0  0  0  0  0  0  0  0
   -9.9092   -0.4881   25.3123 C   0  0  0  0  0  0  0  0  0  0  0  0
  -10.8724    1.0469   27.2276 C   0  0  0  0  0  0  0  0  0  0  0  0
  -11.2045   -0.2746   27.3397 C   0  0  0  0  0  0  0  0  0  0  0  0
  -10.7342   -1.0558   26.2746 C   0  0  0  0  0  0  0  0  0  0  0  0
  -11.1670   -2.4660   26.2155 C   0  0  0  0  0  0  0  0  0  0  0  0
  -11.0744   -3.0811   25.3386 C   0  0  0  0  0  0  0  0  0  0  0  0
  -11.4820   -4.4667   25.2662 C   0  0  0  0  0  0  0  0  0  0  0  0
  -12.0992   -4.9860   26.4071 C   0  0  0  0  0  0  0  0  0  0  0  0
  -12.2444   -4.2248   27.4958 C   0  0  0  0  0  0  0  0  0  0  0  0
  -11.7976   -2.8996   27.5320 C   0  0  0  0  0  0  0  0  0  0  0  0
  -12.8850   -4.7686   28.7387 C   0  0  0  0  0  0  0  0  0  0  0  0
  -12.2448   -5.1265   29.6227 O   0  0  0  0  0  0  0  0  0  0  0  0
  -14.1398   -4.3667   28.8593 O   0  0  0  0  0  0  0  0  0  0  0  0
   -8.7686    1.3345   24.2279 C   0  0  0  0  0  0  0  0  0  0  0  0
   -8.4298    0.4486   23.1697 C   0  0  0  0  0  0  0  0  0  0  0  0
   -8.5844   -0.8687   23.3506 C   0  0  0  0  0  0  0  0  0  0  0  0
   -9.3834   -1.3622   24.3136 C   0  0  0  0  0  0  0  0  0  0  0  0
   -9.8513   -2.7846   24.2541 C   0  0  0  0  0  0  0  0  0  0  0  0
   -9.5666   -3.5451   23.3703 O   0  0  0  0  0  0  0  0  0  0  0  0
  3  7  1  0
  2  8  1  0
  7  9  1  0
  7 10  2  0
  6 11  1  0
  5 12  1  0
 12 13  1  0
 12 15  1  0
 14 17  1  0
 16 17  1  0
 17 18  1  0
 22 24  1  0
 24 25  2  0
 24 26  1  0
 19 31  1  0
 30 31  1  0
 31 32  2  0
 16 15  1  0
 13 27  2  0
 27 28  1  0
 28 29  2  0
 29 30  1  0
 30 14  2  0
 14 13  1  0
 18 23  2  0
 23 22  1  0
 22 21  2  0
 21 20  1  0
 20 19  2  0
 19 18  1  0
  1  2  2  0
  2  5  1  0
  5  6  2  0
  6  4  1  0
  4  3  2  0
  3  1  1  0
M  END
$$$$
