No_9190-complexes_sdf/6BKW-FPZ/2024-09-17-14-21-01/
     RDKit          3D

 22 23  0  0  0  0  0  0  0  0999 V2000
   -7.7129    4.2099   27.0854 C   0  0  0  0  0  0  0  0  0  0  0  0
   -8.9133    4.4736   27.0998 C   0  0  0  0  0  0  0  0  0  0  0  0
   -9.7135    3.9633   26.0300 C   0  0  0  0  0  0  0  0  0  0  0  0
   -7.1708    2.9509   26.6517 C   0  0  0  0  0  0  0  0  0  0  0  0
   -8.1338    2.1226   26.0347 C   0  0  0  0  0  0  0  0  0  0  0  0
   -9.3389    2.6863   25.6841 C   0  0  0  0  0  0  0  0  0  0  0  0
   -9.2650    5.9655   27.3972 C   0  0  0  0  0  0  0  0  0  0  0  0
   -7.5623    0.8243   25.6918 C   0  0  0  0  0  0  0  0  0  0  0  0
   -8.1355   -0.2196   26.4822 C   0  0  0  0  0  0  0  0  0  0  0  0
   -7.3747   -1.2240   26.6996 C   0  0  0  0  0  0  0  0  0  0  0  0
   -7.8115   -2.2321   27.6805 C   0  0  0  0  0  0  0  0  0  0  0  0
   -9.1108   -2.1371   28.2308 C   0  0  0  0  0  0  0  0  0  0  0  0
   -9.8798   -1.0072   27.9780 C   0  0  0  0  0  0  0  0  0  0  0  0
   -9.3797   -0.0198   27.1713 C   0  0  0  0  0  0  0  0  0  0  0  0
  -11.1822   -0.8409   28.7233 C   0  0  0  0  0  0  0  0  0  0  0  0
  -11.7584    0.3224   28.5691 N   0  0  0  0  0  0  0  0  0  0  0  0
  -12.9599    0.6874   29.1234 C   0  0  0  0  0  0  0  0  0  0  0  0
  -13.2405    2.0980   29.1788 C   0  0  0  0  0  0  0  0  0  0  0  0
  -12.2916    2.9632   28.5816 C   0  0  0  0  0  0  0  0  0  0  0  0
  -12.5885    4.3752   28.6496 C   0  0  0  0  0  0  0  0  0  0  0  0
  -11.6139   -1.7406   29.3831 O   0  0  0  0  0  0  0  0  0  0  0  0
  -13.7969    4.8358   29.0843 C   0  0  0  0  0  0  0  0  0  0  0  0
  2  7  1  0
  5  8  1  0
  8  9  1  0
 13 15  1  0
 15 16  1  0
 16 17  1  0
 17 18  2  3
 18 19  1  0
 19 20  2  3
 15 21  2  0
 20 22  1  0
  1  2  2  0
  2  3  1  0
  3  6  2  0
  6  5  1  0
  5  4  2  0
  4  1  1  0
  9 10  2  0
 10 11  1  0
 11 12  2  0
 12 13  1  0
 13 14  2  0
 14  9  1  0
M  END
$$$$
