No_9608-complexes_sdf/6BKW-FPZ/2024-09-17-14-21-01/
     RDKit          3D

 12 12  0  0  0  0  0  0  0  0999 V2000
   -7.9040    3.9820   27.1177 C   0  0  0  0  0  0  0  0  0  0  0  0
   -9.0711    4.3164   27.0630 C   0  0  0  0  0  0  0  0  0  0  0  0
   -9.9692    3.7224   26.1073 C   0  0  0  0  0  0  0  0  0  0  0  0
   -7.4776    2.6994   26.6283 C   0  0  0  0  0  0  0  0  0  0  0  0
   -8.4406    1.9440   25.9776 C   0  0  0  0  0  0  0  0  0  0  0  0
   -9.6379    2.5001   25.6881 C   0  0  0  0  0  0  0  0  0  0  0  0
   -6.9189    4.6807   28.0359 C   0  0  0  0  0  0  0  0  0  0  0  0
   -5.8538    4.2259   28.2946 F   0  0  0  0  0  0  0  0  0  0  0  0
   -7.5140    5.1949   28.9654 F   0  0  0  0  0  0  0  0  0  0  0  0
  -10.5809    1.7543   24.7887 C   0  0  0  0  0  0  0  0  0  0  0  0
  -11.6520    1.5473   24.8162 C   0  0  0  0  0  0  0  0  0  0  0  0
  -12.4824    0.8540   23.8378 C   0  0  0  0  0  0  0  0  0  0  0  0
  1  7  1  0
  7  8  1  0
  7  9  1  0
  6 10  1  0
 10 11  2  3
 11 12  1  0
  1  2  2  0
  2  3  1  0
  3  6  2  0
  6  5  1  0
  5  4  2  0
  4  1  1  0
M  END
$$$$
