No_9434-complexes_sdf/6BKW-FPZ/2024-09-17-14-21-01/
     RDKit          3D

 32 34  0  0  0  0  0  0  0  0999 V2000
   -7.2496    3.8871   27.4508 C   0  0  0  0  0  0  0  0  0  0  0  0
   -7.9379    4.9063   27.8518 C   0  0  0  0  0  0  0  0  0  0  0  0
   -7.5112    6.1898   27.6280 C   0  0  0  0  0  0  0  0  0  0  0  0
   -9.3085    4.6933   28.2930 C   0  0  0  0  0  0  0  0  0  0  0  0
   -7.7804    2.5137   27.6845 C   0  0  0  0  0  0  0  0  0  0  0  0
   -7.0499    1.4112   27.1570 C   0  0  0  0  0  0  0  0  0  0  0  0
   -5.9498    1.0980   27.9608 C   0  0  0  0  0  0  0  0  0  0  0  0
   -5.1887   -0.1155   27.7083 C   0  0  0  0  0  0  0  0  0  0  0  0
   -5.6321   -0.8770   26.6728 C   0  0  0  0  0  0  0  0  0  0  0  0
   -7.5089    0.4579   26.3253 C   0  0  0  0  0  0  0  0  0  0  0  0
   -6.8210   -0.6514   25.9898 C   0  0  0  0  0  0  0  0  0  0  0  0
   -9.9109    3.4586   28.3986 C   0  0  0  0  0  0  0  0  0  0  0  0
   -9.1346    2.3968   28.0044 C   0  0  0  0  0  0  0  0  0  0  0  0
   -3.9351   -0.3446   28.4266 C   0  0  0  0  0  0  0  0  0  0  0  0
   -2.9572   -0.0061   28.0137 O   0  0  0  0  0  0  0  0  0  0  0  0
   -4.1105   -1.2024   29.5151 O   0  0  0  0  0  0  0  0  0  0  0  0
  -11.2977    3.2962   28.8275 C   0  0  0  0  0  0  0  0  0  0  0  0
  -12.2325    4.3231   28.8800 C   0  0  0  0  0  0  0  0  0  0  0  0
  -13.5851    4.1598   29.1895 C   0  0  0  0  0  0  0  0  0  0  0  0
  -13.9051    2.9388   29.8299 C   0  0  0  0  0  0  0  0  0  0  0  0
  -13.0352    1.8642   29.7659 C   0  0  0  0  0  0  0  0  0  0  0  0
  -11.7617    2.0250   29.3081 C   0  0  0  0  0  0  0  0  0  0  0  0
   -8.4150    7.3200   27.6899 C   0  0  0  0  0  0  0  0  0  0  0  0
   -8.7542    0.8075   25.5087 C   0  0  0  0  0  0  0  0  0  0  0  0
   -8.7506    0.7424   24.2279 C   0  0  0  0  0  0  0  0  0  0  0  0
   -9.8548    1.1070   23.4439 C   0  0  0  0  0  0  0  0  0  0  0  0
   -9.7584    0.9241   22.0472 C   0  0  0  0  0  0  0  0  0  0  0  0
  -10.1525    0.1220   21.5127 C   0  0  0  0  0  0  0  0  0  0  0  0
  -10.5786   -1.0153   22.1417 C   0  0  0  0  0  0  0  0  0  0  0  0
  -10.7355   -2.1596   21.3532 C   0  0  0  0  0  0  0  0  0  0  0  0
  -10.6443   -2.0911   19.9392 C   0  0  0  0  0  0  0  0  0  0  0  0
  -10.2471   -0.9854   19.2926 C   0  0  0  0  0  0  0  0  0  0  0  0
  2  3  1  0
  5  6  1  0
  8 14  1  0
 14 15  2  0
 14 16  1  0
 12 17  1  0
  3 23  1  0
 10 24  1  0
 24 25  2  3
 25 26  1  0
 26 27  1  0
 27 28  2  3
 28 29  1  0
 29 30  2  3
 30 31  1  0
 31 32  2  0
 17 18  2  0
 18 19  1  0
 19 20  2  0
 20 21  1  0
 21 22  2  0
 22 17  1  0
  6  7  2  0
  7  8  1  0
  8  9  2  0
  9 11  1  0
 11 10  2  0
 10  6  1  0
  1  2  2  0
  2  4  1  0
  4 12  2  0
 12 13  1  0
 13  5  2  0
  5  1  1  0
M  END
$$$$
