No_9222-complexes_sdf/6BKW-FPZ/2024-09-17-14-21-01/
     RDKit          3D

 40 45  0  0  0  0  0  0  0  0999 V2000
   -7.9040    3.9820   27.1177 C   0  0  0  0  0  0  0  0  0  0  0  0
   -8.2057    2.8231   26.8733 C   0  0  0  0  0  0  0  0  0  0  0  0
   -8.7695    5.0740   26.7916 C   0  0  0  0  0  0  0  0  0  0  0  0
   -8.4337    6.4678   27.0913 C   0  0  0  0  0  0  0  0  0  0  0  0
   -9.3742    2.4311   26.2346 C   0  0  0  0  0  0  0  0  0  0  0  0
  -10.2395    3.4267   25.8887 C   0  0  0  0  0  0  0  0  0  0  0  0
   -9.9717    4.8453   26.1441 C   0  0  0  0  0  0  0  0  0  0  0  0
   -7.9682    7.5451   27.0000 N   0  0  0  0  0  0  0  0  0  0  0  0
   -7.2442    1.6825   27.2919 C   0  0  0  0  0  0  0  0  0  0  0  0
   -6.0010    2.0185   27.8662 C   0  0  0  0  0  0  0  0  0  0  0  0
   -5.1233    0.9362   28.2196 C   0  0  0  0  0  0  0  0  0  0  0  0
   -5.5080   -0.3434   28.0970 C   0  0  0  0  0  0  0  0  0  0  0  0
   -7.5374    0.3264   27.2341 C   0  0  0  0  0  0  0  0  0  0  0  0
   -6.7901   -0.6355   27.6872 C   0  0  0  0  0  0  0  0  0  0  0  0
   -4.6092   -1.3883   28.6521 C   0  0  0  0  0  0  0  0  0  0  0  0
   -4.3161   -2.2395   28.1436 C   0  0  0  0  0  0  0  0  0  0  0  0
   -4.7210   -2.4258   26.6933 C   0  0  0  0  0  0  0  0  0  0  0  0
   -4.5900   -1.4329   25.8585 C   0  0  0  0  0  0  0  0  0  0  0  0
   -4.9618   -1.5829   24.4097 C   0  0  0  0  0  0  0  0  0  0  0  0
   -5.5703   -2.7191   24.1033 C   0  0  0  0  0  0  0  0  0  0  0  0
   -5.6720   -3.8067   24.9203 C   0  0  0  0  0  0  0  0  0  0  0  0
   -5.2242   -3.6515   26.1639 C   0  0  0  0  0  0  0  0  0  0  0  0
  -11.4562    3.1275   25.1133 C   0  0  2  0  0  0  0  0  0  0  0  0
  -12.5704    2.6679   25.7680 C   0  0  0  0  0  0  0  0  0  0  0  0
  -12.5929    2.2473   26.8731 C   0  0  0  0  0  0  0  0  0  0  0  0
  -13.7719    1.8490   27.6485 C   0  0  0  0  0  0  0  0  0  0  0  0
  -14.9530    2.0460   27.0454 C   0  0  0  0  0  0  0  0  0  0  0  0
  -13.9009    2.9958   25.1165 C   0  0  0  0  0  0  0  0  0  0  0  0
  -15.0415    2.6334   25.7901 C   0  0  0  0  0  0  0  0  0  0  0  0
  -11.3346    3.0736   23.6919 C   0  0  0  0  0  0  0  0  0  0  0  0
  -10.9293    2.0465   23.0150 C   0  0  0  0  0  0  0  0  0  0  0  0
  -10.5764    0.7647   23.7020 C   0  0  0  0  0  0  0  0  0  0  0  0
  -10.1368   -0.3048   22.9719 C   0  0  0  0  0  0  0  0  0  0  0  0
   -9.6036   -1.3906   23.5764 C   0  0  0  0  0  0  0  0  0  0  0  0
   -9.9385   -1.5998   24.9303 C   0  0  0  0  0  0  0  0  0  0  0  0
  -10.5461   -0.5814   25.6759 C   0  0  0  0  0  0  0  0  0  0  0  0
  -10.8552    0.6005   25.0747 C   0  0  0  0  0  0  0  0  0  0  0  0
   -9.9545    1.4905   25.9202 O   0  0  0  0  0  0  0  0  0  0  0  0
   -9.8077    2.3636   22.0433 C   0  0  0  0  0  0  0  0  0  0  0  0
  -11.1584   -1.0272   26.9238 C   0  0  0  0  0  0  0  0  0  0  0  0
  3  4  1  0
  4  8  3  0
  2  9  1  0
 12 15  1  0
 15 16  2  3
 16 17  1  0
  6 23  1  0
 23 24  1  1
 23 30  1  0
 30 31  2  3
 31 32  1  0
  5 38  1  0
 37 38  1  0
 31 39  1  0
 36 40  1  0
 32 33  2  0
 33 34  1  0
 34 35  2  0
 35 36  1  0
 36 37  2  0
 37 32  1  0
 24 25  2  0
 25 26  1  0
 26 27  2  0
 27 29  1  0
 29 28  2  0
 28 24  1  0
  1  2  2  0
  2  5  1  0
  5  6  2  0
  6  7  1  0
  7  3  2  0
  3  1  1  0
  9 10  2  0
 10 11  1  0
 11 12  2  0
 12 14  1  0
 14 13  2  0
 13  9  1  0
 17 18  2  0
 18 19  1  0
 19 20  2  0
 20 21  1  0
 21 22  2  0
 22 17  1  0
M  END
$$$$
