No_9178-complexes_sdf/6BKW-FPZ/2024-09-17-14-21-01/
     RDKit          3D

 15 16  0  0  0  0  0  0  0  0999 V2000
   -7.2496    3.8871   27.4508 C   0  0  0  0  0  0  0  0  0  0  0  0
   -7.6161    2.7143   27.1523 C   0  0  0  0  0  0  0  0  0  0  0  0
   -7.1619    1.8631   27.5232 C   0  0  0  0  0  0  0  0  0  0  0  0
   -6.0841    4.1113   28.0941 C   0  0  0  0  0  0  0  0  0  0  0  0
   -5.8039    1.7595   28.0571 C   0  0  0  0  0  0  0  0  0  0  0  0
   -5.2906    3.0279   28.3422 C   0  0  0  0  0  0  0  0  0  0  0  0
   -9.0367    2.3963   26.5849 C   0  0  0  0  0  0  0  0  0  0  0  0
   -9.9289    3.4755   26.4414 C   0  0  0  0  0  0  0  0  0  0  0  0
   -9.5570    1.1661   26.3795 C   0  0  0  0  0  0  0  0  0  0  0  0
   -9.6775    4.7845   26.7811 C   0  0  0  0  0  0  0  0  0  0  0  0
   -8.2262    5.0770   27.2513 C   0  0  0  0  0  0  0  0  0  0  0  0
   -7.7972    6.4346   27.5466 C   0  0  0  0  0  0  0  0  0  0  0  0
   -9.4858    0.5704   25.4172 C   0  0  0  0  0  0  0  0  0  0  0  0
   -9.1945    1.3131   24.1123 C   0  0  0  0  0  0  0  0  0  0  0  0
   -9.7085    2.4534   23.9134 C   0  0  0  0  0  0  0  0  0  0  0  0
  7  9  1  0
 11 12  1  0
  9 13  2  3
 13 14  1  0
 14 15  1  0
  2  3  2  0
  3  5  1  0
  5  6  2  0
  6  4  1  0
  4  1  2  0
  1  2  1  0
  2  7  1  0
  7  8  2  0
  8 10  1  0
 10 11  2  0
 11  1  1  0
M  END
$$$$
