No_9300-complexes_sdf/6BKW-FPZ/2024-09-17-14-21-01/
     RDKit          3D

 20 21  0  0  0  0  0  0  0  0999 V2000
   -7.9040    3.9820   27.1177 C   0  0  0  0  0  0  0  0  0  0  0  0
   -8.2057    2.8231   26.8733 C   0  0  0  0  0  0  0  0  0  0  0  0
   -9.2962    2.4021   26.1155 C   0  0  0  0  0  0  0  0  0  0  0  0
   -6.8682    4.5169   28.0704 C   0  0  0  0  0  0  0  0  0  0  0  0
  -10.0578    3.3688   25.5520 C   0  0  0  0  0  0  0  0  0  0  0  0
   -9.6997    4.7480   25.6981 C   0  0  0  0  0  0  0  0  0  0  0  0
   -8.6783    5.1111   26.5262 C   0  0  0  0  0  0  0  0  0  0  0  0
  -11.1704    3.0677   24.6150 C   0  0  2  0  0  0  0  0  0  0  0  0
  -12.3590    2.8658   25.1091 C   0  0  0  0  0  0  0  0  0  0  0  0
  -12.6536    2.5971   26.2590 C   0  0  0  0  0  0  0  0  0  0  0  0
  -14.0771    2.4422   26.7672 C   0  0  0  0  0  0  0  0  0  0  0  0
  -15.0459    2.5562   25.8499 C   0  0  0  0  0  0  0  0  0  0  0  0
  -14.7849    2.8570   24.5630 C   0  0  0  0  0  0  0  0  0  0  0  0
  -13.5023    3.0939   24.1164 C   0  0  0  0  0  0  0  0  0  0  0  0
  -10.7771    2.9400   23.2123 C   0  0  0  0  0  0  0  0  0  0  0  0
   -7.1582    5.5444   28.7713 F   0  0  0  0  0  0  0  0  0  0  0  0
   -5.7668    3.9744   28.0286 F   0  0  0  0  0  0  0  0  0  0  0  0
  -10.3757    1.7617   22.7005 C   0  0  0  0  0  0  0  0  0  0  0  0
   -9.9870    1.7044   21.3316 C   0  0  0  0  0  0  0  0  0  0  0  0
  -10.0880    2.8699   20.5270 C   0  0  0  0  0  0  0  0  0  0  0  0
  1  4  1  0
  8  5  1  1
  8  9  1  0
  8 15  1  0
  4 16  1  0
  4 17  1  0
 15 18  2  3
 18 19  1  0
 19 20  2  0
  9 10  2  0
 10 11  1  0
 11 12  2  0
 12 13  1  0
 13 14  2  0
 14  9  1  0
  1  2  2  0
  2  3  1  0
  3  5  2  0
  5  6  1  0
  6  7  2  0
  7  1  1  0
M  END
$$$$
