No_9678-complexes_sdf/6BKW-FPZ/2024-09-17-14-21-01/
     RDKit          3D

 27 29  0  0  0  0  0  0  0  0999 V2000
   -7.9040    3.9820   27.1177 C   0  0  0  0  0  0  0  0  0  0  0  0
   -8.2057    2.8231   26.8733 C   0  0  0  0  0  0  0  0  0  0  0  0
   -9.2962    2.4021   26.1155 C   0  0  0  0  0  0  0  0  0  0  0  0
   -8.7358    5.0662   26.5917 C   0  0  0  0  0  0  0  0  0  0  0  0
   -9.7618    4.7023   25.7546 C   0  0  0  0  0  0  0  0  0  0  0  0
  -10.0066    3.4105   25.4922 C   0  0  0  0  0  0  0  0  0  0  0  0
   -8.3936    6.4769   26.8843 C   0  0  0  0  0  0  0  0  0  0  0  0
   -8.6493    6.7879   28.0308 F   0  0  0  0  0  0  0  0  0  0  0  0
   -7.0512    6.6926   26.7340 F   0  0  0  0  0  0  0  0  0  0  0  0
   -8.9422    7.2996   25.9424 F   0  0  0  0  0  0  0  0  0  0  0  0
   -7.5310    1.5420   27.4406 C   0  0  0  0  0  0  0  0  0  0  0  0
   -6.1066    1.6287   27.7067 C   0  0  0  0  0  0  0  0  0  0  0  0
   -5.4247    0.5346   28.2303 C   0  0  0  0  0  0  0  0  0  0  0  0
   -6.0583   -0.6884   28.3072 C   0  0  0  0  0  0  0  0  0  0  0  0
   -8.0228    0.2961   27.5072 C   0  0  0  0  0  0  0  0  0  0  0  0
   -7.3753   -0.7649   28.0255 C   0  0  0  0  0  0  0  0  0  0  0  0
   -3.9698    0.7060   28.5684 C   0  0  0  0  0  0  0  0  0  0  0  0
   -3.1951   -0.2163   28.1938 N   0  0  0  0  0  0  0  0  0  0  0  0
   -2.3259   -0.2513   27.5714 C   0  0  0  0  0  0  0  0  0  0  0  0
   -2.0063    0.8545   26.7310 C   0  0  0  0  0  0  0  0  0  0  0  0
   -1.1963   -0.9118   27.8181 O   0  0  0  0  0  0  0  0  0  0  0  0
  -11.1231    3.1484   24.5727 C   0  0  0  0  0  0  0  0  0  0  0  0
  -11.2639    3.8291   23.3906 C   0  0  0  0  0  0  0  0  0  0  0  0
  -12.1942    3.6894   22.4634 C   0  0  0  0  0  0  0  0  0  0  0  0
  -13.0836    2.6324   22.6903 C   0  0  0  0  0  0  0  0  0  0  0  0
  -12.0133    2.0819   24.7474 C   0  0  0  0  0  0  0  0  0  0  0  0
  -13.0063    1.8854   23.8003 C   0  0  0  0  0  0  0  0  0  0  0  0
  4  7  1  0
  7  8  1  0
  7  9  1  0
  7 10  1  0
  2 11  1  0
 13 17  1  0
 17 18  1  0
 18 19  1  0
 19 20  1  0
 19 21  2  0
  6 22  1  0
  1  2  2  0
  2  3  1  0
  3  6  2  0
  6  5  1  0
  5  4  2  0
  4  1  1  0
 22 23  2  0
 23 24  1  0
 24 25  2  0
 25 27  1  0
 27 26  2  0
 26 22  1  0
 11 12  2  0
 12 13  1  0
 13 14  2  0
 14 16  1  0
 16 15  2  0
 15 11  1  0
M  END
$$$$
