No_9738-complexes_sdf/6BKW-FPZ/2024-09-17-14-21-01/
     RDKit          3D

 14 15  0  0  0  0  0  0  0  0999 V2000
   -7.9040    3.9820   27.1177 C   0  0  0  0  0  0  0  0  0  0  0  0
   -7.8663    4.8694   27.9238 C   0  0  0  0  0  0  0  0  0  0  0  0
   -9.0501    3.8017   26.2617 C   0  0  0  0  0  0  0  0  0  0  0  0
  -10.0189    4.7608   26.3707 C   0  0  0  0  0  0  0  0  0  0  0  0
   -8.6770    5.9780   27.9222 C   0  0  0  0  0  0  0  0  0  0  0  0
   -9.8040    5.8752   27.0958 C   0  0  0  0  0  0  0  0  0  0  0  0
   -9.1317    2.6414   25.4147 C   0  0  0  0  0  0  0  0  0  0  0  0
  -10.0093    2.7245   24.3328 C   0  0  0  0  0  0  0  0  0  0  0  0
  -10.7008    3.9135   24.1684 C   0  0  0  0  0  0  0  0  0  0  0  0
  -10.8763    4.8524   25.2080 C   0  0  0  0  0  0  0  0  0  0  0  0
   -6.9866    2.8803   27.2425 N   0  0  0  0  0  0  0  0  0  0  0  0
   -5.8315    3.0438   27.9136 C   0  0  0  0  0  0  0  0  0  0  0  0
   -4.8651    2.4893   28.1085 N   0  0  0  0  0  0  0  0  0  0  0  0
   -5.6859    4.3332   28.3301 O   0  0  0  0  0  0  0  0  0  0  0  0
  1 11  1  0
 11 12  1  0
 12 13  1  0
 12 14  2  0
  4 10  2  0
 10  9  1  0
  9  8  2  0
  8  7  1  0
  7  3  2  0
  1  2  2  0
  2  5  1  0
  5  6  2  0
  6  4  1  0
  4  3  1  0
  3  1  1  0
M  END
$$$$
