No_9509-complexes_sdf/6BKW-FPZ/2024-09-17-14-21-01/
     RDKit          3D

 13 13  0  0  0  0  0  0  0  0999 V2000
   -7.7129    4.2099   27.0854 C   0  0  0  0  0  0  0  0  0  0  0  0
   -8.9133    4.4736   27.0998 C   0  0  0  0  0  0  0  0  0  0  0  0
   -9.8363    3.8127   27.2418 C   0  0  0  0  0  0  0  0  0  0  0  0
   -7.2995    2.8520   27.3808 C   0  0  0  0  0  0  0  0  0  0  0  0
   -8.3226    1.9328   27.4680 C   0  0  0  0  0  0  0  0  0  0  0  0
   -9.5955    2.3639   27.4416 C   0  0  0  0  0  0  0  0  0  0  0  0
   -8.9337    6.0704   26.8439 C   0  0  0  0  0  0  0  0  0  0  0  0
   -9.4657    6.3913   25.7305 F   0  0  0  0  0  0  0  0  0  0  0  0
   -9.7722    6.6963   27.7463 F   0  0  0  0  0  0  0  0  0  0  0  0
   -7.8620    6.8339   27.1343 F   0  0  0  0  0  0  0  0  0  0  0  0
   -8.0014    0.5181   27.6534 C   0  0  0  0  0  0  0  0  0  0  0  0
   -9.0239   -0.4571   27.6714 C   0  0  0  0  0  0  0  0  0  0  0  0
   -8.7028   -1.7982   27.9256 C   0  0  0  0  0  0  0  0  0  0  0  0
  2  7  1  0
  7  8  1  0
  7  9  1  0
  7 10  1  0
  5 11  1  0
 11 12  2  3
 12 13  1  0
  1  2  2  0
  2  3  1  0
  3  6  2  0
  6  5  1  0
  5  4  2  0
  4  1  1  0
M  END
$$$$
