No_9796-complexes_sdf/6BKW-FPZ/2024-09-17-14-21-01/
     RDKit          3D

 13 14  0  0  0  0  0  0  0  0999 V2000
   -7.7129    4.2099   27.0854 C   0  0  0  0  0  0  0  0  0  0  0  0
   -8.2112    3.0637   26.9225 C   0  0  0  0  0  0  0  0  0  0  0  0
   -7.5138    1.9223   27.4249 C   0  0  0  0  0  0  0  0  0  0  0  0
   -6.5434    4.4363   27.9024 C   0  0  0  0  0  0  0  0  0  0  0  0
   -6.2005    2.1121   27.9323 C   0  0  0  0  0  0  0  0  0  0  0  0
   -5.7560    3.3924   28.1795 C   0  0  0  0  0  0  0  0  0  0  0  0
   -8.5371    5.4268   26.8066 C   0  0  0  0  0  0  0  0  0  0  0  0
   -8.4422    6.6262   27.5846 C   0  0  0  0  0  0  0  0  0  0  0  0
   -9.3833    5.3297   25.6600 C   0  0  0  0  0  0  0  0  0  0  0  0
   -5.3960    0.9246   28.3093 C   0  0  0  0  0  0  0  0  0  0  0  0
   -5.8556   -0.3951   28.1795 C   0  0  0  0  0  0  0  0  0  0  0  0
   -6.9435   -0.5423   27.3932 C   0  0  0  0  0  0  0  0  0  0  0  0
   -7.8734    0.5571   27.0729 C   0  0  0  0  0  0  0  0  0  0  0  0
  1  7  1  0
  7  8  1  0
  7  9  1  0
  5 10  2  0
 10 11  1  0
 11 12  2  0
 12 13  1  0
 13  3  2  0
  1  2  2  0
  2  3  1  0
  3  5  1  0
  5  6  1  0
  6  4  2  0
  4  1  1  0
M  END
$$$$
