No_9180-complexes_sdf/6BKW-FPZ/2024-09-17-14-21-01/
     RDKit          3D

 11 11  0  0  0  0  0  0  0  0999 V2000
   -7.9040    3.9820   27.1177 C   0  0  0  0  0  0  0  0  0  0  0  0
   -9.0711    4.3164   27.0630 C   0  0  0  0  0  0  0  0  0  0  0  0
   -9.5294    5.4517   27.7215 C   0  0  0  0  0  0  0  0  0  0  0  0
   -6.9328    4.7309   27.8881 C   0  0  0  0  0  0  0  0  0  0  0  0
   -7.3377    5.8421   28.5537 C   0  0  0  0  0  0  0  0  0  0  0  0
   -8.6411    6.2609   28.3972 C   0  0  0  0  0  0  0  0  0  0  0  0
  -10.0467    3.4917   26.2630 C   0  0  1  0  0  0  0  0  0  0  0  0
  -10.5801    3.6924   25.3619 N   0  0  0  0  0  0  0  0  0  0  0  0
  -11.3163    2.9501   24.5252 C   0  0  0  0  0  0  0  0  0  0  0  0
  -10.1631    2.1125   26.7151 C   0  0  0  0  0  0  0  0  0  0  0  0
   -9.4934    1.6640   27.8905 C   0  0  0  0  0  0  0  0  0  0  0  0
  2  7  1  0
  7  8  1  6
  8  9  1  0
  7 10  1  0
 10 11  2  0
  1  2  2  0
  2  3  1  0
  3  6  2  0
  6  5  1  0
  5  4  2  0
  4  1  1  0
M  END
$$$$
