No_9253-complexes_sdf/6BKW-FPZ/2024-09-17-14-21-01/
     RDKit          3D

 29 31  0  0  0  0  0  0  0  0999 V2000
   -7.7129    4.2099   27.0854 C   0  0  0  0  0  0  0  0  0  0  0  0
   -8.2112    3.0637   26.9225 C   0  0  0  0  0  0  0  0  0  0  0  0
   -9.4446    2.8304   26.1868 C   0  0  0  0  0  0  0  0  0  0  0  0
   -8.4697    5.3956   26.7238 C   0  0  0  0  0  0  0  0  0  0  0  0
   -9.6172    5.2111   25.9513 C   0  0  0  0  0  0  0  0  0  0  0  0
  -10.0424    3.9782   25.6873 C   0  0  0  0  0  0  0  0  0  0  0  0
   -7.3251    1.9116   27.4398 C   0  0  0  0  0  0  0  0  0  0  0  0
   -7.8790    0.6486   27.4368 C   0  0  0  0  0  0  0  0  0  0  0  0
   -7.0447   -0.3821   27.8213 C   0  0  0  0  0  0  0  0  0  0  0  0
   -5.7080   -0.1498   28.1700 C   0  0  0  0  0  0  0  0  0  0  0  0
   -5.1942    1.1644   28.0797 C   0  0  0  0  0  0  0  0  0  0  0  0
   -5.9610    2.1567   27.6712 C   0  0  0  0  0  0  0  0  0  0  0  0
   -8.2106    6.7807   27.0473 C   0  0  0  0  0  0  0  0  0  0  0  0
   -7.9601    7.8615   26.9314 N   0  0  0  0  0  0  0  0  0  0  0  0
   -5.0212   -1.3622   28.6684 C   0  0  0  0  0  0  0  0  0  0  0  0
   -5.0672   -2.7216   28.6858 Cl  0  0  0  0  0  0  0  0  0  0  0  0
   -3.7350   -0.7769   29.5262 C   0  0  0  0  0  0  0  0  0  0  0  0
   -3.6100   -0.9339   30.7677 C   0  0  0  0  0  0  0  0  0  0  0  0
   -3.0593   -1.6716   31.1952 C   0  0  0  0  0  0  0  0  0  0  0  0
   -4.3453    0.1554   31.5892 C   0  0  0  0  0  0  0  0  0  0  0  0
   -2.8595   -1.8742   32.7176 C   0  0  0  0  0  0  0  0  0  0  0  0
   -4.2983   -0.0253   33.0098 C   0  0  0  0  0  0  0  0  0  0  0  0
   -3.5212   -0.9925   33.5786 C   0  0  0  0  0  0  0  0  0  0  0  0
   -3.3721   -1.1006   35.0462 C   0  0  0  0  0  0  0  0  0  0  0  0
   -2.5345   -0.4968   35.5896 O   0  0  0  0  0  0  0  0  0  0  0  0
   -4.4753   -1.5345   35.6991 O   0  0  0  0  0  0  0  0  0  0  0  0
  -11.1472    3.8031   24.9331 F   0  0  0  0  0  0  0  0  0  0  0  0
   -4.6854   -1.2091   36.9900 C   0  0  0  0  0  0  0  0  0  0  0  0
   -4.3059   -0.1296   37.4714 C   0  0  0  0  0  0  0  0  0  0  0  0
  2  7  1  0
  4 13  1  0
 13 14  3  0
 10 15  1  0
 15 16  1  0
 15 17  1  0
 17 18  1  0
 23 24  1  0
 24 25  2  0
 24 26  1  0
  6 27  1  0
 26 28  1  0
 28 29  2  0
  1  2  2  0
  2  3  1  0
  3  6  2  0
  6  5  1  0
  5  4  2  0
  4  1  1  0
 18 19  2  0
 19 21  1  0
 21 23  2  0
 23 22  1  0
 22 20  2  0
 20 18  1  0
  7  8  2  0
  8  9  1  0
  9 10  2  0
 10 11  1  0
 11 12  2  0
 12  7  1  0
M  END
$$$$
