No_9456-complexes_sdf/6BKW-FPZ/2024-09-17-14-21-01/
     RDKit          3D

 32 35  0  0  0  0  0  0  0  0999 V2000
   -7.9040    3.9820   27.1177 C   0  0  0  0  0  0  0  0  0  0  0  0
   -7.8663    4.8694   27.9238 C   0  0  0  0  0  0  0  0  0  0  0  0
   -9.0491    3.8523   26.2542 C   0  0  0  0  0  0  0  0  0  0  0  0
   -8.7661    5.9491   27.9690 C   0  0  0  0  0  0  0  0  0  0  0  0
   -9.9295    4.8502   26.2323 C   0  0  0  0  0  0  0  0  0  0  0  0
   -9.8077    5.9288   27.0933 C   0  0  0  0  0  0  0  0  0  0  0  0
   -6.9183    2.9825   27.3734 N   0  0  0  0  0  0  0  0  0  0  0  0
   -7.1286    1.6306   27.3040 C   0  0  0  0  0  0  0  0  0  0  0  0
   -5.9758    0.8278   27.6236 C   0  0  0  0  0  0  0  0  0  0  0  0
   -5.9972   -0.5322   27.6489 C   0  0  0  0  0  0  0  0  0  0  0  0
   -8.2095    0.9863   26.8758 C   0  0  0  0  0  0  0  0  0  0  0  0
   -8.2774   -0.3943   26.8794 C   0  0  0  0  0  0  0  0  0  0  0  0
   -7.1858   -1.1258   27.2627 C   0  0  0  0  0  0  0  0  0  0  0  0
   -4.8038    1.5268   28.0690 N   0  0  0  0  0  0  0  0  0  0  0  0
  -10.9844    4.7548   25.2221 C   0  0  0  0  0  0  0  0  0  0  0  0
  -11.2787    3.4253   24.9845 C   0  0  2  0  0  0  0  0  0  0  0  0
  -10.8763    2.8507   23.7179 C   0  0  0  0  0  0  0  0  0  0  0  0
  -10.9428    1.4699   23.5825 C   0  0  0  0  0  0  0  0  0  0  0  0
  -10.2647    0.8311   22.5009 C   0  0  0  0  0  0  0  0  0  0  0  0
   -9.6987    1.6723   21.4759 C   0  0  0  0  0  0  0  0  0  0  0  0
   -9.6788    3.0446   21.6395 C   0  0  0  0  0  0  0  0  0  0  0  0
  -10.2195    3.6449   22.7503 C   0  0  0  0  0  0  0  0  0  0  0  0
  -12.2484    2.7679   25.6910 C   0  0  1  0  0  0  0  0  0  0  0  0
  -11.9643    2.5937   27.0078 C   0  0  0  0  0  0  0  0  0  0  0  0
  -12.7204    1.6980   27.8652 C   0  0  0  0  0  0  0  0  0  0  0  0
  -12.3487    1.5347   29.2427 C   0  0  0  0  0  0  0  0  0  0  0  0
  -13.1165    0.6799   29.9355 C   0  0  0  0  0  0  0  0  0  0  0  0
  -14.1046   -0.0859   29.3552 C   0  0  0  0  0  0  0  0  0  0  0  0
  -14.3784    0.0316   28.0341 C   0  0  0  0  0  0  0  0  0  0  0  0
  -13.6914    0.9067   27.2686 C   0  0  0  0  0  0  0  0  0  0  0  0
  -13.4646    2.4301   25.1229 C   0  0  0  0  0  0  0  0  0  0  0  0
  -14.0410    2.8134   23.9892 C   0  0  0  0  0  0  0  0  0  0  0  0
  1  7  1  0
  7  8  1  0
  9 14  1  0
  5 15  1  0
 16 15  1  6
 16 17  1  0
 16 23  1  0
 23 24  1  1
 23 31  1  0
 31 32  2  0
 24 25  1  0
 17 18  2  0
 18 19  1  0
 19 20  2  0
 20 21  1  0
 21 22  2  0
 22 17  1  0
  8  9  2  0
  9 10  1  0
 10 13  2  0
 13 12  1  0
 12 11  2  0
 11  8  1  0
  1  2  2  0
  2  4  1  0
  4  6  2  0
  6  5  1  0
  5  3  2  0
  3  1  1  0
 25 26  2  0
 26 27  1  0
 27 28  2  0
 28 29  1  0
 29 30  2  0
 30 25  1  0
M  END
$$$$
