No_9171-complexes_sdf/6BKW-FPZ/2024-09-17-14-21-01/
     RDKit          3D

 29 32  0  0  0  0  0  0  0  0999 V2000
   -7.9040    3.9820   27.1177 C   0  0  0  0  0  0  0  0  0  0  0  0
   -8.2057    2.8231   26.8733 C   0  0  0  0  0  0  0  0  0  0  0  0
   -9.2962    2.4021   26.1155 C   0  0  0  0  0  0  0  0  0  0  0  0
   -8.7358    5.0662   26.5917 C   0  0  0  0  0  0  0  0  0  0  0  0
   -9.7618    4.7023   25.7546 C   0  0  0  0  0  0  0  0  0  0  0  0
  -10.0066    3.4105   25.4922 C   0  0  0  0  0  0  0  0  0  0  0  0
   -8.6255    6.4891   26.8817 C   0  0  0  0  0  0  0  0  0  0  0  0
   -8.4257    6.9343   28.1014 N   0  0  0  0  0  0  0  0  0  0  0  0
   -8.6230    7.2740   25.9039 F   0  0  0  0  0  0  0  0  0  0  0  0
   -7.4068    1.7686   27.4582 N   0  0  0  0  0  0  0  0  0  0  0  0
   -7.6627    0.4409   27.3877 C   0  0  0  0  0  0  0  0  0  0  0  0
   -8.8274    0.0186   27.2490 C   0  0  0  0  0  0  0  0  0  0  0  0
   -9.7358    0.9919   26.3421 C   0  0  0  0  0  0  0  0  0  0  0  0
   -6.7880   -0.3126   28.1668 N   0  0  0  0  0  0  0  0  0  0  0  0
   -5.8396   -0.9907   27.7101 C   0  0  0  0  0  0  0  0  0  0  0  0
   -5.4398   -1.2436   26.7953 C   0  0  0  0  0  0  0  0  0  0  0  0
   -4.2192   -1.9568   26.3161 C   0  0  0  0  0  0  0  0  0  0  0  0
   -3.3757   -2.3534   27.3162 C   0  0  0  0  0  0  0  0  0  0  0  0
   -4.8843   -1.3793   28.9670 C   0  0  0  0  0  0  0  0  0  0  0  0
   -5.2135   -0.9647   30.3530 C   0  0  2  0  0  0  0  0  0  0  0  0
   -3.6217   -2.0304   28.6623 C   0  0  0  0  0  0  0  0  0  0  0  0
   -4.3356   -0.0274   31.0014 C   0  0  0  0  0  0  0  0  0  0  0  0
   -5.4721   -2.1662   31.2232 C   0  0  0  0  0  0  0  0  0  0  0  0
   -6.1983   -2.9811   31.0291 C   0  0  0  0  0  0  0  0  0  0  0  0
   -7.1440   -2.9592   29.8743 C   0  0  0  0  0  0  0  0  0  0  0  0
   -8.0801   -4.0352   29.6238 C   0  0  0  0  0  0  0  0  0  0  0  0
   -7.9781   -5.0306   30.4148 C   0  0  0  0  0  0  0  0  0  0  0  0
   -7.1632   -5.1944   31.5062 C   0  0  0  0  0  0  0  0  0  0  0  0
   -6.2673   -4.1959   31.8285 C   0  0  0  0  0  0  0  0  0  0  0  0
  4  7  1  0
  7  8  2  0
  7  9  1  0
 11 14  1  0
 14 15  1  0
 19 20  1  0
 20 22  1  1
 20 23  1  0
 23 24  1  0
 15 16  2  0
 16 17  1  0
 17 18  2  0
 18 21  1  0
 21 19  2  0
 19 15  1  0
  1  2  2  0
  3  6  2  0
  6  5  1  0
  5  4  2  0
  4  1  1  0
  2  3  1  0
  3 13  1  0
 13 12  2  0
 12 11  1  0
 11 10  2  0
 10  2  1  0
 24 25  2  0
 25 26  1  0
 26 27  2  0
 27 28  1  0
 28 29  2  0
 29 24  1  0
M  END
$$$$
