No_9642-complexes_sdf/6BKW-FPZ/2024-09-17-14-21-01/
     RDKit          3D

 13 14  0  0  0  0  0  0  0  0999 V2000
   -7.7129    4.2099   27.0854 C   0  0  0  0  0  0  0  0  0  0  0  0
   -8.2112    3.0637   26.9225 C   0  0  0  0  0  0  0  0  0  0  0  0
   -8.5108    5.3904   26.9436 C   0  0  0  0  0  0  0  0  0  0  0  0
   -9.7256    5.1955   26.3518 C   0  0  0  0  0  0  0  0  0  0  0  0
   -7.4704    1.8386   27.3272 C   0  0  0  0  0  0  0  0  0  0  0  0
   -9.4956    2.7608   26.4620 C   0  0  0  0  0  0  0  0  0  0  0  0
  -10.2454    3.9392   26.1664 C   0  0  0  0  0  0  0  0  0  0  0  0
   -6.9369    1.0376   26.5914 C   0  0  0  0  0  0  0  0  0  0  0  0
   -6.1756   -0.0844   27.0978 C   0  0  0  0  0  0  0  0  0  0  0  0
   -6.1439   -1.2827   26.5776 C   0  0  0  0  0  0  0  0  0  0  0  0
   -6.7302   -1.3588   25.2405 C   0  0  0  0  0  0  0  0  0  0  0  0
   -7.4773   -0.3797   24.7157 C   0  0  0  0  0  0  0  0  0  0  0  0
   -7.6070    0.8265   25.4203 C   0  0  0  0  0  0  0  0  0  0  0  0
  2  5  1  0
  5  8  1  0
  1  2  2  0
  2  6  1  0
  6  7  2  0
  7  4  1  0
  4  3  2  0
  3  1  1  0
  8  9  2  0
  9 10  1  0
 10 11  2  0
 11 12  1  0
 12 13  2  0
 13  8  1  0
M  END
$$$$
