No_9273-complexes_sdf/6BKW-FPZ/2024-09-17-14-21-01/
     RDKit          3D

 16 17  0  0  0  0  0  0  0  0999 V2000
   -7.7129    4.2099   27.0854 C   0  0  0  0  0  0  0  0  0  0  0  0
   -8.9133    4.4736   27.0998 C   0  0  0  0  0  0  0  0  0  0  0  0
   -9.8363    3.8127   27.2418 C   0  0  0  0  0  0  0  0  0  0  0  0
   -7.2995    2.8520   27.3808 C   0  0  0  0  0  0  0  0  0  0  0  0
   -8.3404    1.9507   27.4989 C   0  0  0  0  0  0  0  0  0  0  0  0
   -9.6166    2.3791   27.4719 C   0  0  0  0  0  0  0  0  0  0  0  0
   -9.1653    6.0330   26.9186 C   0  0  0  0  0  0  0  0  0  0  0  0
   -8.7395    6.7870   26.0011 N   0  0  0  0  0  0  0  0  0  0  0  0
   -8.0433    0.6107   27.7211 N   0  0  0  0  0  0  0  0  0  0  0  0
   -6.7997    0.1086   27.7347 C   0  0  0  0  0  0  0  0  0  0  0  0
   -6.4139   -0.8504   27.5927 C   0  0  0  0  0  0  0  0  0  0  0  0
   -9.0411   -0.2886   27.7545 C   0  0  0  0  0  0  0  0  0  0  0  0
   -8.7223   -1.6723   27.8291 C   0  0  0  0  0  0  0  0  0  0  0  0
   -7.3858   -1.9914   27.8074 C   0  0  0  0  0  0  0  0  0  0  0  0
   -9.8854    6.6179   27.8856 O   0  0  0  0  0  0  0  0  0  0  0  0
  -10.2787    0.0476   27.8560 O   0  0  0  0  0  0  0  0  0  0  0  0
  2  7  1  0
  7  8  1  0
  5  9  1  0
  9 10  1  0
  9 12  1  0
 12 13  1  0
 11 14  1  0
  7 15  2  0
 12 16  2  0
 10 11  1  0
 14 13  1  0
  1  2  2  0
  2  3  1  0
  3  6  2  0
  6  5  1  0
  5  4  2  0
  4  1  1  0
M  END
$$$$
