No_9142-complexes_sdf/6BKW-FPZ/2024-09-17-14-21-01/
     RDKit          3D

 24 26  0  0  0  0  0  0  0  0999 V2000
   -7.2496    3.8871   27.4508 C   0  0  0  0  0  0  0  0  0  0  0  0
   -7.9379    4.9063   27.8518 C   0  0  0  0  0  0  0  0  0  0  0  0
   -7.5112    6.1898   27.6280 C   0  0  0  0  0  0  0  0  0  0  0  0
   -7.8078    2.6331   27.2522 C   0  0  0  0  0  0  0  0  0  0  0  0
   -9.1846    2.4724   27.5426 C   0  0  0  0  0  0  0  0  0  0  0  0
   -9.9168    3.5155   28.0405 C   0  0  0  0  0  0  0  0  0  0  0  0
   -9.3366    4.7963   28.1727 C   0  0  0  0  0  0  0  0  0  0  0  0
  -11.2720    3.0626   28.3580 C   0  0  0  0  0  0  0  0  0  0  0  0
  -12.1648    4.0799   28.7895 C   0  0  0  0  0  0  0  0  0  0  0  0
  -11.6632    1.7533   28.5558 C   0  0  0  0  0  0  0  0  0  0  0  0
  -13.4726    3.7981   29.2427 C   0  0  0  0  0  0  0  0  0  0  0  0
  -12.9547    1.4226   28.9736 C   0  0  0  0  0  0  0  0  0  0  0  0
  -13.8229    2.4634   29.3264 C   0  0  0  0  0  0  0  0  0  0  0  0
   -7.0310    1.4482   26.8526 C   0  0  0  0  0  0  0  0  0  0  0  0
   -7.5572    0.5487   26.0515 N   0  0  0  0  0  0  0  0  0  0  0  0
   -6.9766   -0.5848   25.7594 C   0  0  0  0  0  0  0  0  0  0  0  0
   -5.9173    1.2709   27.4577 O   0  0  0  0  0  0  0  0  0  0  0  0
   -7.0858   -0.9532   24.4440 C   0  0  0  0  0  0  0  0  0  0  0  0
   -7.6317   -0.0287   23.6123 C   0  0  0  0  0  0  0  0  0  0  0  0
   -8.7396    0.7356   24.0500 C   0  0  1  0  0  0  0  0  0  0  0  0
   -8.6377    0.9989   25.2608 C   0  0  0  0  0  0  0  0  0  0  0  0
   -9.6790    1.2851   23.1117 C   0  0  0  0  0  0  0  0  0  0  0  0
  -10.4462    2.3882   23.4224 C   0  0  0  0  0  0  0  0  0  0  0  0
  -11.3161    2.9854   22.5312 C   0  0  0  0  0  0  0  0  0  0  0  0
  6  8  1  0
  4 14  1  0
 14 15  1  0
 15 16  1  0
 14 17  2  0
 16 18  1  0
 18 19  1  0
 20 19  1  6
 15 21  1  0
 20 21  1  0
 20 22  1  0
 22 23  2  3
 23 24  1  0
  3  2  1  0
  8  9  2  0
  9 11  1  0
 11 13  2  0
 13 12  1  0
 12 10  2  0
 10  8  1  0
  1  2  2  0
  2  7  1  0
  7  6  2  0
  6  5  1  0
  5  4  2  0
  4  1  1  0
M  END
$$$$
