No_9512-complexes_sdf/6BKW-FPZ/2024-09-17-14-21-01/
     RDKit          3D

 30 34  0  0  0  0  0  0  0  0999 V2000
   -7.7129    4.2099   27.0854 C   0  0  0  0  0  0  0  0  0  0  0  0
   -8.2112    3.0637   26.9225 C   0  0  0  0  0  0  0  0  0  0  0  0
   -8.5108    5.3904   26.9436 C   0  0  0  0  0  0  0  0  0  0  0  0
   -7.9752    6.6981   27.2112 C   0  0  0  0  0  0  0  0  0  0  0  0
   -9.5213    2.8209   26.4688 C   0  0  0  0  0  0  0  0  0  0  0  0
  -10.2979    3.9327   26.2378 C   0  0  0  0  0  0  0  0  0  0  0  0
   -9.7894    5.2123   26.4395 C   0  0  0  0  0  0  0  0  0  0  0  0
   -7.2968    1.4042   27.2422 Br  0  0  0  0  0  0  0  0  0  0  0  0
   -8.6274    7.8001   26.8086 N   0  0  0  0  0  0  0  0  0  0  0  0
   -6.8527    6.7715   27.8082 O   0  0  0  0  0  0  0  0  0  0  0  0
  -11.6321    3.7826   25.6705 C   0  0  0  0  0  0  0  0  0  0  0  0
  -11.7360    3.4820   24.5165 F   0  0  0  0  0  0  0  0  0  0  0  0
  -12.1451    4.5517   26.2710 F   0  0  0  0  0  0  0  0  0  0  0  0
  -10.0610    1.5322   26.1359 C   0  0  0  0  0  0  0  0  0  0  0  0
  -10.5072    0.7632   27.1584 C   0  0  0  0  0  0  0  0  0  0  0  0
  -11.4961    0.3545   27.3066 C   0  0  0  0  0  0  0  0  0  0  0  0
  -12.1077   -0.0422   28.1281 C   0  0  0  0  0  0  0  0  0  0  0  0
  -13.5198   -0.3688   28.1743 C   0  0  0  0  0  0  0  0  0  0  0  0
  -14.1447   -0.2393   26.9949 C   0  0  0  0  0  0  0  0  0  0  0  0
  -13.5463    0.2030   25.9145 C   0  0  0  0  0  0  0  0  0  0  0  0
  -12.2739    0.5938   26.0284 C   0  0  0  0  0  0  0  0  0  0  0  0
  -10.3327    1.0487   24.9594 C   0  0  0  0  0  0  0  0  0  0  0  0
  -11.5225    0.9001   24.8835 C   0  0  0  0  0  0  0  0  0  0  0  0
  -14.3232    0.3438   24.6920 C   0  0  0  0  0  0  0  0  0  0  0  0
  -15.3724   -0.3940   24.4052 C   0  0  0  0  0  0  0  0  0  0  0  0
  -15.9687   -0.2178   23.2054 C   0  0  0  0  0  0  0  0  0  0  0  0
  -15.5330    0.7345   22.3075 C   0  0  0  0  0  0  0  0  0  0  0  0
  -14.4543    1.5192   22.5776 C   0  0  0  0  0  0  0  0  0  0  0  0
  -13.8363    1.3717   23.7543 C   0  0  0  0  0  0  0  0  0  0  0  0
  -12.3595    1.1115   23.6665 C   0  0  0  0  0  0  0  0  0  0  0  0
  3  4  1  0
  2  8  1  0
  4  9  1  0
  4 10  2  0
  6 11  1  0
 11 12  1  0
 11 13  1  0
  5 14  1  0
 20 24  1  0
 23 30  1  0
 29 30  1  0
 24 25  2  0
 25 26  1  0
 26 27  2  0
 27 28  1  0
 28 29  2  0
 29 24  1  0
  1  2  2  0
  2  5  1  0
  5  6  2  0
  6  7  1  0
  7  3  2  0
  3  1  1  0
 14 15  2  0
 15 16  1  0
 21 23  1  0
 23 22  2  0
 22 14  1  0
 16 17  2  0
 17 18  1  0
 18 19  2  0
 19 20  1  0
 20 21  2  0
 21 16  1  0
M  END
$$$$
