No_9305-complexes_sdf/6BKW-FPZ/2024-09-17-14-21-01/
     RDKit          3D

 26 28  0  0  0  0  0  0  0  0999 V2000
   -7.7129    4.2099   27.0854 C   0  0  0  0  0  0  0  0  0  0  0  0
   -8.9133    4.4736   27.0998 C   0  0  0  0  0  0  0  0  0  0  0  0
   -9.4643    5.5426   27.7628 C   0  0  0  0  0  0  0  0  0  0  0  0
   -7.2009    2.9448   26.6134 C   0  0  0  0  0  0  0  0  0  0  0  0
   -8.1365    1.9533   26.2981 C   0  0  0  0  0  0  0  0  0  0  0  0
   -9.4501    2.2651   26.2497 C   0  0  0  0  0  0  0  0  0  0  0  0
   -9.8615    3.4703   26.6763 C   0  0  0  0  0  0  0  0  0  0  0  0
   -7.5839    0.6450   25.9087 C   0  0  0  0  0  0  0  0  0  0  0  0
   -7.7259    0.2664   24.7999 O   0  0  0  0  0  0  0  0  0  0  0  0
   -6.9902   -0.0633   26.8497 O   0  0  0  0  0  0  0  0  0  0  0  0
   -6.7423    0.1035   27.9165 C   0  0  0  0  0  0  0  0  0  0  0  0
   -5.4476   -0.4743   28.5056 C   0  0  0  0  0  0  0  0  0  0  0  0
   -4.8611    0.1815   29.5547 C   0  0  0  0  0  0  0  0  0  0  0  0
   -4.9878   -1.6153   27.9716 C   0  0  0  0  0  0  0  0  0  0  0  0
   -4.0023   -0.0327   30.1150 C   0  0  0  0  0  0  0  0  0  0  0  0
   -3.2314   -1.3070   29.7177 C   0  0  0  0  0  0  0  0  0  0  0  0
   -3.7741   -2.0225   28.6765 C   0  0  0  0  0  0  0  0  0  0  0  0
   -1.9951   -1.7033   30.4259 C   0  0  1  0  0  0  0  0  0  0  0  0
   -2.1314   -1.8226   31.8665 C   0  0  0  0  0  0  0  0  0  0  0  0
   -0.8215   -1.9985   29.7583 C   0  0  0  0  0  0  0  0  0  0  0  0
   -1.0441   -2.2921   32.5708 C   0  0  0  0  0  0  0  0  0  0  0  0
   -1.0684   -2.1618   34.0013 C   0  0  0  0  0  0  0  0  0  0  0  0
   -2.2526   -1.6570   34.6176 C   0  0  0  0  0  0  0  0  0  0  0  0
   -3.2859   -1.1495   33.8655 C   0  0  0  0  0  0  0  0  0  0  0  0
   -3.1848   -1.1265   32.5106 C   0  0  0  0  0  0  0  0  0  0  0  0
   -0.3253   -3.0893   29.8324 O   0  0  0  0  0  0  0  0  0  0  0  0
  1  2  1  0
  2  3  2  0
  1  4  1  0
  4  5  1  0
  5  6  1  0
  2  7  1  0
  6  7  1  0
  5  8  1  0
  8  9  2  0
  8 10  1  0
 10 11  1  0
 16 18  1  0
 18 19  1  0
 18 20  1  6
 20 26  2  0
 11 12  1  0
 12 13  2  0
 13 15  1  0
 15 16  2  0
 16 17  1  0
 17 14  2  0
 14 12  1  0
 19 21  2  0
 21 22  1  0
 22 23  2  0
 23 24  1  0
 24 25  2  0
 25 19  1  0
M  END
$$$$
