No_9404-complexes_sdf/6BKW-FPZ/2024-09-17-14-21-01/
     RDKit          3D

 40 44  0  0  0  0  0  0  0  0999 V2000
   -7.9040    3.9820   27.1177 C   0  0  0  0  0  0  0  0  0  0  0  0
   -7.8663    4.8694   27.9238 C   0  0  0  0  0  0  0  0  0  0  0  0
   -9.0501    3.8017   26.2617 C   0  0  0  0  0  0  0  0  0  0  0  0
   -9.1826    2.7026   25.3575 C   0  0  0  0  0  0  0  0  0  0  0  0
   -8.6940    6.0131   27.8614 C   0  0  0  0  0  0  0  0  0  0  0  0
   -9.9755    4.8547   26.2361 C   0  0  0  0  0  0  0  0  0  0  0  0
   -9.7463    5.9398   27.0364 C   0  0  0  0  0  0  0  0  0  0  0  0
  -10.0838    2.7760   24.3160 C   0  0  0  0  0  0  0  0  0  0  0  0
  -10.2843    1.6590   23.4970 C   0  0  0  0  0  0  0  0  0  0  0  0
   -9.3974    0.5260   23.6644 C   0  0  0  0  0  0  0  0  0  0  0  0
   -8.4186    1.4919   25.4757 C   0  0  0  0  0  0  0  0  0  0  0  0
   -8.5121    0.4868   24.6643 C   0  0  0  0  0  0  0  0  0  0  0  0
   -7.6733   -0.7009   24.8239 C   0  0  0  0  0  0  0  0  0  0  0  0
   -6.7967   -0.7852   25.5785 O   0  0  0  0  0  0  0  0  0  0  0  0
   -8.0643   -1.7748   24.2506 O   0  0  0  0  0  0  0  0  0  0  0  0
  -11.1749    1.7726   22.3715 C   0  0  0  0  0  0  0  0  0  0  0  0
  -12.1069    1.2649   22.1339 N   0  0  0  0  0  0  0  0  0  0  0  0
  -12.9188    1.3249   21.0915 C   0  0  0  0  0  0  0  0  0  0  0  0
  -10.6913    2.5976   21.4196 O   0  0  0  0  0  0  0  0  0  0  0  0
  -12.7362    0.3088   23.2125 C   0  0  0  0  0  0  0  0  0  0  0  0
  -13.1670   -0.8306   22.7847 C   0  0  0  0  0  0  0  0  0  0  0  0
  -13.5991   -1.6810   23.7552 C   0  0  0  0  0  0  0  0  0  0  0  0
  -13.5674   -1.3593   25.1323 C   0  0  0  0  0  0  0  0  0  0  0  0
  -13.0623   -0.1392   25.5044 C   0  0  0  0  0  0  0  0  0  0  0  0
  -12.5972    0.6881   24.5788 C   0  0  0  0  0  0  0  0  0  0  0  0
  -13.6411    2.4427   20.9228 C   0  0  0  0  0  0  0  0  0  0  0  0
  -12.8376    0.3874   20.0403 C   0  0  0  0  0  0  0  0  0  0  0  0
  -13.5362    0.4804   18.8948 C   0  0  0  0  0  0  0  0  0  0  0  0
  -14.4218    2.6435   19.7419 C   0  0  0  0  0  0  0  0  0  0  0  0
  -14.2958    1.6869   18.7149 C   0  0  0  0  0  0  0  0  0  0  0  0
  -12.9807    0.1821   26.9765 C   0  0  0  0  0  0  0  0  0  0  0  0
  -12.2882   -0.3780   27.7438 C   0  0  0  0  0  0  0  0  0  0  0  0
  -11.2481   -1.3098   27.5460 C   0  0  0  0  0  0  0  0  0  0  0  0
  -10.3925   -1.7788   28.5850 C   0  0  0  0  0  0  0  0  0  0  0  0
   -9.2522   -2.5254   28.2922 C   0  0  0  0  0  0  0  0  0  0  0  0
   -9.0857   -2.9705   27.0019 C   0  0  0  0  0  0  0  0  0  0  0  0
  -10.0504   -2.7230   26.0335 C   0  0  0  0  0  0  0  0  0  0  0  0
  -11.0392   -1.8323   26.2859 C   0  0  0  0  0  0  0  0  0  0  0  0
  -14.0470    1.0933   27.3808 C   0  0  0  0  0  0  0  0  0  0  0  0
  -14.8694    2.0042   26.5070 Cl  0  0  0  0  0  0  0  0  0  0  0  0
  3  4  1  0
 12 13  1  0
 13 14  1  0
 13 15  2  0
  9 16  1  0
 16 17  1  0
 17 18  1  0
 16 19  2  0
 17 20  1  0
 24 31  1  0
 31 32  2  3
 32 33  1  0
 31 39  1  0
 39 40  1  0
 18 26  2  0
 26 29  1  0
 29 30  2  0
 30 28  1  0
 28 27  2  0
 27 18  1  0
 33 34  2  0
 34 35  1  0
 35 36  2  0
 36 37  1  0
 37 38  2  0
 38 33  1  0
  4  8  2  0
  8  9  1  0
  9 10  2  0
 10 12  1  0
 12 11  2  0
 11  4  1  0
 20 21  2  0
 21 22  1  0
 22 23  2  0
 23 24  1  0
 24 25  2  0
 25 20  1  0
  1  2  2  0
  2  5  1  0
  5  7  2  0
  7  6  1  0
  6  3  2  0
  3  1  1  0
M  END
$$$$
