No_9876-complexes_sdf/6BKW-FPZ/2024-09-17-14-21-01/
     RDKit          3D

 31 35  0  0  0  0  0  0  0  0999 V2000
   -7.9040    3.9820   27.1177 C   0  0  0  0  0  0  0  0  0  0  0  0
   -7.8663    4.8694   27.9238 C   0  0  0  0  0  0  0  0  0  0  0  0
   -7.4547    2.7080   27.4594 C   0  0  0  0  0  0  0  0  0  0  0  0
   -7.9337    1.5946   26.8372 C   0  0  0  0  0  0  0  0  0  0  0  0
   -8.9032    1.7881   25.8510 C   0  0  0  0  0  0  0  0  0  0  0  0
   -9.3787    2.9871   25.5530 C   0  0  0  0  0  0  0  0  0  0  0  0
   -8.9781    4.0300   26.2200 C   0  0  0  0  0  0  0  0  0  0  0  0
   -8.2132    6.2312   27.6173 N   0  0  0  0  0  0  0  0  0  0  0  0
   -9.1014    6.5119   26.6241 C   0  0  0  0  0  0  0  0  0  0  0  0
   -9.5143    5.3947   25.8857 C   0  0  0  0  0  0  0  0  0  0  0  0
   -7.3356    0.2566   27.1267 C   0  0  0  0  0  0  0  0  0  0  0  0
   -8.0642   -0.8626   27.1429 C   0  0  0  0  0  0  0  0  0  0  0  0
   -9.5020   -0.7375   26.9980 C   0  0  0  0  0  0  0  0  0  0  0  0
   -9.9937    0.3218   26.1764 C   0  0  0  0  0  0  0  0  0  0  0  0
  -10.4439    2.9823   24.4922 C   0  0  0  0  0  0  0  0  0  0  0  0
  -11.6754    3.1607   24.7777 C   0  0  0  0  0  0  0  0  0  0  0  0
  -12.6033    3.5370   23.8675 C   0  0  0  0  0  0  0  0  0  0  0  0
  -10.0077    2.8366   23.2064 C   0  0  0  0  0  0  0  0  0  0  0  0
  -10.8354    3.1001   22.1693 C   0  0  0  0  0  0  0  0  0  0  0  0
  -12.1857    3.4678   22.4832 C   0  0  0  0  0  0  0  0  0  0  0  0
  -11.4703    0.4754   25.4946 Cl  0  0  0  0  0  0  0  0  0  0  0  0
   -5.9774    0.2777   27.7247 C   0  0  0  0  0  0  0  0  0  0  0  0
   -4.9765   -0.1572   27.1753 C   0  0  0  0  0  0  0  0  0  0  0  0
   -3.8296   -0.2304   27.5778 C   0  0  0  0  0  0  0  0  0  0  0  0
   -3.4617    0.3256   28.9316 C   0  0  0  0  0  0  0  0  0  0  0  0
   -4.6099    0.7795   29.6752 C   0  0  0  0  0  0  0  0  0  0  0  0
   -5.7636    0.7781   29.0720 C   0  0  0  0  0  0  0  0  0  0  0  0
   -7.6176   -2.1380   27.6245 C   0  0  0  0  0  0  0  0  0  0  0  0
   -7.0717   -2.9218   26.7836 N   0  0  0  0  0  0  0  0  0  0  0  0
   -7.5090   -4.0670   26.4593 C   0  0  0  0  0  0  0  0  0  0  0  0
   -6.9099   -4.7990   25.4253 C   0  0  0  0  0  0  0  0  0  0  0  0
  6 15  1  0
 14 21  1  0
 11 22  1  0
 12 28  1  0
 28 29  1  0
 29 30  1  0
 30 31  2  0
  1  2  2  0
  2  8  1  0
  8  9  2  0
  9 10  1  0
 10  7  2  0
  1  3  1  0
  3  4  2  0
  5  6  2  0
  6  7  1  0
  7  1  1  0
 22 23  2  0
 23 24  1  0
 24 25  2  0
 25 26  1  0
 26 27  2  0
 27 22  1  0
 15 16  2  0
 16 17  1  0
 17 20  2  0
 20 19  1  0
 19 18  2  0
 18 15  1  0
  4  5  1  0
  5 14  1  0
 14 13  2  0
 13 12  1  0
 12 11  2  0
 11  4  1  0
M  END
$$$$
