No_9929-complexes_sdf/6BKW-FPZ/2024-09-17-14-21-01/
     RDKit          3D

 23 24  0  0  0  0  0  0  0  0999 V2000
   -7.7129    4.2099   27.0854 C   0  0  0  0  0  0  0  0  0  0  0  0
   -8.9133    4.4736   27.0998 C   0  0  2  0  0  0  0  0  0  0  0  0
   -9.7135    3.9633   26.0300 C   0  0  0  0  0  0  0  0  0  0  0  0
   -6.8655    4.8824   28.1822 C   0  0  0  0  0  0  0  0  0  0  0  0
  -10.8856    4.5824   25.6430 C   0  0  0  0  0  0  0  0  0  0  0  0
   -7.6664    5.7849   28.7962 N   0  0  0  0  0  0  0  0  0  0  0  0
   -8.8934    5.5511   27.9459 C   0  0  0  0  0  0  0  0  0  0  0  0
  -11.7566    4.0566   24.6254 C   0  0  0  0  0  0  0  0  0  0  0  0
  -11.3129    2.8894   23.9740 C   0  0  0  0  0  0  0  0  0  0  0  0
  -10.1595    2.2702   24.3585 C   0  0  0  0  0  0  0  0  0  0  0  0
   -9.3211    2.7782   25.3932 C   0  0  0  0  0  0  0  0  0  0  0  0
  -12.1753    2.3386   22.9344 C   0  0  0  0  0  0  0  0  0  0  0  0
  -13.1331    1.7469   22.9353 O   0  0  0  0  0  0  0  0  0  0  0  0
  -11.4007    2.2785   21.5972 N   0  0  0  0  0  0  0  0  0  0  0  0
  -10.1151    2.8208   21.3752 C   0  0  0  0  0  0  0  0  0  0  0  0
  -12.0992    1.7778   20.4319 C   0  0  0  0  0  0  0  0  0  0  0  0
   -5.6885    4.6007   28.4716 F   0  0  0  0  0  0  0  0  0  0  0  0
  -11.5692    0.5814   20.0607 C   0  0  0  0  0  0  0  0  0  0  0  0
  -10.6629   -0.0904   20.7742 C   0  0  0  0  0  0  0  0  0  0  0  0
  -10.4823   -1.2828   20.9911 C   0  0  0  0  0  0  0  0  0  0  0  0
   -9.7436   -1.8939   21.5591 C   0  0  0  0  0  0  0  0  0  0  0  0
   -8.5697   -1.2220   22.2141 C   0  0  0  0  0  0  0  0  0  0  0  0
   -8.4972    0.1359   21.9876 C   0  0  0  0  0  0  0  0  0  0  0  0
  1  2  1  0
  1  4  1  0
  4  6  2  0
  2  7  1  0
  6  7  1  0
  9 12  1  0
 12 13  2  0
 12 14  1  0
 14 15  1  0
 14 16  1  0
  4 17  1  0
 16 18  1  0
 18 19  2  3
 19 20  1  0
 20 21  2  3
 21 22  1  0
 22 23  2  0
  2  3  1  6
  3  5  2  0
  5  8  1  0
  8  9  2  0
  9 10  1  0
 10 11  2  0
 11  3  1  0
M  END
$$$$
