No_9122-complexes_sdf/6BKW-FPZ/2024-09-17-14-21-01/
     RDKit          3D

 23 25  0  0  0  0  0  0  0  0999 V2000
   -7.9040    3.9820   27.1177 C   0  0  0  0  0  0  0  0  0  0  0  0
   -7.8663    4.8694   27.9238 C   0  0  0  0  0  0  0  0  0  0  0  0
   -9.0501    3.8017   26.2617 C   0  0  0  0  0  0  0  0  0  0  0  0
  -10.0189    4.7608   26.3707 C   0  0  0  0  0  0  0  0  0  0  0  0
   -8.6770    5.9780   27.9222 C   0  0  0  0  0  0  0  0  0  0  0  0
   -9.8040    5.8752   27.0958 C   0  0  0  0  0  0  0  0  0  0  0  0
   -9.1766    2.4345   25.2700 Cl  0  0  0  0  0  0  0  0  0  0  0  0
   -6.9925    2.8956   27.1243 O   0  0  0  0  0  0  0  0  0  0  0  0
   -6.1124    2.8613   28.0916 C   0  0  0  0  0  0  0  0  0  0  0  0
   -4.9436    3.3791   27.7221 C   0  0  0  0  0  0  0  0  0  0  0  0
   -5.9927    1.5002   28.5453 C   0  0  0  0  0  0  0  0  0  0  0  0
   -5.1580    0.5810   27.7423 C   0  0  1  0  0  0  0  0  0  0  0  0
   -3.7871    1.1186   27.6627 C   0  0  1  0  0  0  0  0  0  0  0  0
   -3.0366    0.2389   27.0059 F   0  0  0  0  0  0  0  0  0  0  0  0
   -3.8794    2.4573   27.0937 O   0  0  0  0  0  0  0  0  0  0  0  0
   -5.0263   -0.7075   28.3164 O   0  0  0  0  0  0  0  0  0  0  0  0
   -6.1274   -1.4910   28.4596 C   0  0  0  0  0  0  0  0  0  0  0  0
   -6.2862   -2.0536   29.6587 C   0  0  0  0  0  0  0  0  0  0  0  0
   -7.4738   -2.8195   29.9489 C   0  0  0  0  0  0  0  0  0  0  0  0
   -7.7340   -3.3565   31.2064 C   0  0  0  0  0  0  0  0  0  0  0  0
   -6.7886   -3.0811   32.2816 C   0  0  0  0  0  0  0  0  0  0  0  0
   -5.6583   -2.3203   32.0284 C   0  0  0  0  0  0  0  0  0  0  0  0
   -5.4599   -1.7996   30.8267 C   0  0  0  0  0  0  0  0  0  0  0  0
  3  7  1  0
  1  8  1  0
  8  9  1  0
  9 10  2  0
  9 11  1  0
 11 12  1  0
 12 13  1  0
 13 14  1  6
 10 15  1  0
 13 15  1  0
 12 16  1  1
 16 17  1  0
 17 18  1  0
 18 19  2  0
 19 20  1  0
 20 21  2  0
 21 22  1  0
 22 23  2  0
 23 18  1  0
  1  2  2  0
  2  5  1  0
  5  6  2  0
  6  4  1  0
  4  3  2  0
  3  1  1  0
M  END
$$$$
