No_9638-complexes_sdf/6BKW-FPZ/2024-09-17-14-21-01/
     RDKit          3D

 40 44  0  0  0  0  0  0  0  0999 V2000
   -7.9040    3.9820   27.1177 C   0  0  0  0  0  0  0  0  0  0  0  0
   -7.8663    4.8694   27.9238 C   0  0  0  0  0  0  0  0  0  0  0  0
   -7.4698    2.6989   27.4277 C   0  0  0  0  0  0  0  0  0  0  0  0
   -7.9683    1.5964   26.8266 C   0  0  0  0  0  0  0  0  0  0  0  0
   -8.9447    1.7923   25.8533 C   0  0  0  0  0  0  0  0  0  0  0  0
   -9.4405    2.9988   25.5757 C   0  0  0  0  0  0  0  0  0  0  0  0
   -8.9424    4.1117   26.2388 C   0  0  0  0  0  0  0  0  0  0  0  0
   -8.3103    6.1970   27.6444 N   0  0  0  0  0  0  0  0  0  0  0  0
   -9.1782    6.4963   26.6776 C   0  0  0  0  0  0  0  0  0  0  0  0
   -9.5449    5.3904   25.9238 C   0  0  0  0  0  0  0  0  0  0  0  0
   -7.3881    0.2591   27.0923 C   0  0  0  0  0  0  0  0  0  0  0  0
   -6.0878    0.1334   27.5415 C   0  0  0  0  0  0  0  0  0  0  0  0
   -5.5468   -1.0676   27.8728 C   0  0  0  0  0  0  0  0  0  0  0  0
   -6.3687   -2.1654   27.7651 C   0  0  0  0  0  0  0  0  0  0  0  0
   -8.0102   -0.9778   27.0994 C   0  0  0  0  0  0  0  0  0  0  0  0
   -7.6023   -2.1053   27.4158 C   0  0  0  0  0  0  0  0  0  0  0  0
   -4.1095   -1.0915   28.3569 C   0  0  0  0  0  0  0  0  0  0  0  0
   -3.3624   -1.4873   27.6710 N   0  0  0  0  0  0  0  0  0  0  0  0
   -2.7997   -0.9065   26.7135 C   0  0  0  0  0  0  0  0  0  0  0  0
   -2.8273    0.4782   26.6853 C   0  0  0  0  0  0  0  0  0  0  0  0
   -2.9268   -2.8917   27.9303 C   0  0  0  0  0  0  0  0  0  0  0  0
   -2.3319   -1.4371   25.6281 O   0  0  0  0  0  0  0  0  0  0  0  0
   -2.6689    1.3412   25.7859 N   0  0  0  0  0  0  0  0  0  0  0  0
   -2.2676    1.1732   28.2157 Cl  0  0  0  0  0  0  0  0  0  0  0  0
  -10.3910    3.1016   24.4638 C   0  0  0  0  0  0  0  0  0  0  0  0
  -11.5193    3.7462   24.6374 C   0  0  0  0  0  0  0  0  0  0  0  0
  -10.0711    2.4759   23.2695 C   0  0  0  0  0  0  0  0  0  0  0  0
  -12.4896    3.7777   23.6261 C   0  0  0  0  0  0  0  0  0  0  0  0
  -10.9632    2.5037   22.2209 C   0  0  0  0  0  0  0  0  0  0  0  0
  -12.1638    3.1735   22.3711 C   0  0  0  0  0  0  0  0  0  0  0  0
   -8.4299   -3.3013   27.3576 C   0  0  1  0  0  0  0  0  0  0  0  0
  -10.0547   -3.5353   26.8414 Br  0  0  0  0  0  0  0  0  0  0  0  0
   -7.7336   -4.6008   27.7592 C   0  0  0  0  0  0  0  0  0  0  0  0
   -6.9955   -5.1800   26.8618 C   0  0  0  0  0  0  0  0  0  0  0  0
   -6.0792   -5.8820   27.2654 N   0  0  0  0  0  0  0  0  0  0  0  0
   -5.0609   -6.1469   27.6431 C   0  0  0  0  0  0  0  0  0  0  0  0
   -4.4012   -7.0954   26.8355 C   0  0  0  0  0  0  0  0  0  0  0  0
   -6.5376   -7.3467   27.0812 C   0  0  0  0  0  0  0  0  0  0  0  0
   -5.4258   -8.0380   26.7975 C   0  0  0  0  0  0  0  0  0  0  0  0
   -6.8798   -4.7559   25.6627 O   0  0  0  0  0  0  0  0  0  0  0  0
  4 11  1  0
 13 17  1  0
 17 18  1  0
 18 19  1  0
 19 20  1  0
 18 21  1  0
 19 22  2  0
 20 23  2  0
 20 24  1  0
  6 25  1  0
 16 31  1  0
 31 32  1  6
 31 33  1  0
 33 34  1  0
 34 35  1  0
 35 36  1  0
 36 37  2  0
 35 38  1  0
 37 39  1  0
 38 39  2  0
 34 40  2  0
  1  2  2  0
  2  8  1  0
  8  9  2  0
  9 10  1  0
 10  7  2  0
 25 26  2  0
 26 28  1  0
 28 30  2  0
 30 29  1  0
 29 27  2  0
 27 25  1  0
 11 12  2  0
 12 13  1  0
 13 14  2  0
 14 16  1  0
 16 15  2  0
 15 11  1  0
  1  3  1  0
  3  4  2  0
  4  5  1  0
  5  6  2  0
  6  7  1  0
  7  1  1  0
M  END
$$$$
