No_9444-complexes_sdf/6BKW-FPZ/2024-09-17-14-21-01/
     RDKit          3D

 16 19  0  0  0  0  0  0  0  0999 V2000
   -7.2496    3.8871   27.4508 C   0  0  0  0  0  0  0  0  0  0  0  0
   -7.9379    4.9063   27.8518 C   0  0  0  0  0  0  0  0  0  0  0  0
   -8.7729    5.5444   27.0168 C   0  0  0  0  0  0  0  0  0  0  0  0
   -7.7891    2.8508   26.9558 C   0  0  0  0  0  0  0  0  0  0  0  0
   -9.5135    4.5970   26.1494 C   0  0  0  0  0  0  0  0  0  0  0  0
   -7.3862    1.5115   26.8376 C   0  0  0  0  0  0  0  0  0  0  0  0
   -8.9914    3.2107   26.0844 C   0  0  0  0  0  0  0  0  0  0  0  0
   -8.0079    0.5245   26.0978 C   0  0  0  0  0  0  0  0  0  0  0  0
   -9.1224    0.9949   25.3399 C   0  0  0  0  0  0  0  0  0  0  0  0
   -9.6231    2.3463   25.2717 C   0  0  0  0  0  0  0  0  0  0  0  0
  -10.6027    2.7165   24.3546 C   0  0  0  0  0  0  0  0  0  0  0  0
  -10.7355    2.1827   23.2518 C   0  0  0  0  0  0  0  0  0  0  0  0
   -9.5744    0.1188   24.3211 C   0  0  0  0  0  0  0  0  0  0  0  0
  -10.4811    0.6696   23.2657 C   0  0  0  0  0  0  0  0  0  0  0  0
  -10.4482    4.9713   25.3621 N   0  0  0  0  0  0  0  0  0  0  0  0
  -10.9464    4.1673   24.3899 C   0  0  0  0  0  0  0  0  0  0  0  0
 11 16  1  0
 16 15  2  0
 15  5  1  0
  4  6  2  0
  6  8  1  0
  8  9  2  0
 10  7  2  0
  9 10  1  0
 10 11  1  0
 11 12  2  0
 12 14  1  0
 14 13  2  0
 13  9  1  0
  1  2  2  0
  2  3  1  0
  3  5  2  0
  5  7  1  0
  7  4  1  0
  4  1  1  0
M  END
$$$$
