No_9668-complexes_sdf/6BKW-FPZ/2024-09-17-14-21-01/
     RDKit          3D

 35 38  0  0  0  0  0  0  0  0999 V2000
   -7.9040    3.9820   27.1177 C   0  0  0  0  0  0  0  0  0  0  0  0
   -7.8663    4.8694   27.9238 C   0  0  0  0  0  0  0  0  0  0  0  0
   -9.0501    3.8017   26.2617 C   0  0  0  0  0  0  0  0  0  0  0  0
  -10.0189    4.7608   26.3707 C   0  0  0  0  0  0  0  0  0  0  0  0
   -8.6973    5.9722   27.8968 C   0  0  0  0  0  0  0  0  0  0  0  0
   -9.8216    5.8946   27.1241 C   0  0  0  0  0  0  0  0  0  0  0  0
   -9.1445    2.6271   25.4265 C   0  0  0  0  0  0  0  0  0  0  0  0
   -9.9972    2.7053   24.3067 C   0  0  0  0  0  0  0  0  0  0  0  0
  -10.1490    1.5913   23.5400 C   0  0  0  0  0  0  0  0  0  0  0  0
   -9.3267    0.4241   23.7814 C   0  0  0  0  0  0  0  0  0  0  0  0
   -8.5036    0.4076   24.8662 C   0  0  0  0  0  0  0  0  0  0  0  0
   -8.3753    1.5006   25.7023 C   0  0  0  0  0  0  0  0  0  0  0  0
  -11.0097    1.6070   22.3451 C   0  0  0  0  0  0  0  0  0  0  0  0
  -12.3195    1.6091   22.6598 C   0  0  0  0  0  0  0  0  0  0  0  0
  -13.2004    1.8123   21.6941 C   0  0  0  0  0  0  0  0  0  0  0  0
  -12.7657    1.8490   20.3226 C   0  0  0  0  0  0  0  0  0  0  0  0
  -11.4264    1.8151   19.9922 C   0  0  0  0  0  0  0  0  0  0  0  0
  -10.4550    1.7349   21.0494 C   0  0  0  0  0  0  0  0  0  0  0  0
   -7.6471   -0.7535   25.1562 C   0  0  0  0  0  0  0  0  0  0  0  0
   -7.5661   -1.3672   26.0697 O   0  0  0  0  0  0  0  0  0  0  0  0
   -6.6784   -0.8824   24.2102 O   0  0  0  0  0  0  0  0  0  0  0  0
   -6.6862    5.1171   28.6995 O   0  0  0  0  0  0  0  0  0  0  0  0
   -5.5939   -1.6016   24.4710 C   0  0  1  0  0  0  0  0  0  0  0  0
   -5.4238   -2.7565   23.7515 C   0  0  2  0  0  0  0  0  0  0  0  0
   -6.0650   -2.8516   22.5469 C   0  0  0  0  0  0  0  0  0  0  0  0
   -7.0339   -3.4535   22.6643 F   0  0  0  0  0  0  0  0  0  0  0  0
   -5.2496   -3.4632   21.5895 F   0  0  0  0  0  0  0  0  0  0  0  0
   -5.7829   -3.8430   24.5621 O   0  0  0  0  0  0  0  0  0  0  0  0
   -6.2529   -1.6752   21.8216 F   0  0  0  0  0  0  0  0  0  0  0  0
   -4.5830   -0.8933   25.2252 N   0  0  0  0  0  0  0  0  0  0  0  0
   -3.4922   -1.5074   25.7421 C   0  0  0  0  0  0  0  0  0  0  0  0
   -2.6686   -0.6499   26.4723 C   0  0  0  0  0  0  0  0  0  0  0  0
   -3.0613    0.7122   26.7542 C   0  0  0  0  0  0  0  0  0  0  0  0
   -4.3716    1.0843   26.6638 C   0  0  0  0  0  0  0  0  0  0  0  0
   -5.0588    0.3067   25.7638 C   0  0  0  0  0  0  0  0  0  0  0  0
  3  7  1  0
  9 13  1  0
 11 19  1  0
 19 20  2  0
 19 21  1  0
  2 22  1  0
 23 21  1  6
 23 24  1  0
 24 25  1  0
 25 26  1  0
 25 27  1  0
 24 28  1  1
 25 29  1  0
 23 30  1  0
 30 31  1  0
 32 33  1  0
 30 35  1  0
 34 35  1  0
 31 32  1  0
 33 34  1  0
 13 14  2  0
 14 15  1  0
 15 16  2  0
 16 17  1  0
 17 18  2  0
 18 13  1  0
  1  2  2  0
  2  5  1  0
  5  6  2  0
  6  4  1  0
  4  3  2  0
  3  1  1  0
  7  8  2  0
  8  9  1  0
  9 10  2  0
 10 11  1  0
 11 12  2  0
 12  7  1  0
M  END
$$$$
