No_9370-complexes_sdf/6BKW-FPZ/2024-09-17-14-21-01/
     RDKit          3D

 13 13  0  0  0  0  0  0  0  0999 V2000
   -7.9040    3.9820   27.1177 C   0  0  0  0  0  0  0  0  0  0  0  0
   -9.0711    4.3164   27.0630 C   0  0  0  0  0  0  0  0  0  0  0  0
   -9.9692    3.7224   26.1073 C   0  0  0  0  0  0  0  0  0  0  0  0
   -6.9787    4.6761   28.1003 C   0  0  0  0  0  0  0  0  0  0  0  0
   -9.4538    2.6801   25.3673 C   0  0  0  0  0  0  0  0  0  0  0  0
   -8.1927    2.1957   25.6621 C   0  0  0  0  0  0  0  0  0  0  0  0
   -7.7902    0.9823   25.1918 C   0  0  0  0  0  0  0  0  0  0  0  0
   -7.4433    2.8912   26.6312 C   0  0  0  0  0  0  0  0  0  0  0  0
   -7.0868    0.1759   25.8883 O   0  0  0  0  0  0  0  0  0  0  0  0
   -8.0668    0.5991   23.9988 O   0  0  0  0  0  0  0  0  0  0  0  0
   -7.4913    5.7934   28.7096 N   0  0  0  0  0  0  0  0  0  0  0  0
   -5.8202    4.3186   28.2819 O   0  0  0  0  0  0  0  0  0  0  0  0
  -11.4190    4.5215   25.7888 Cl  0  0  0  0  0  0  0  0  0  0  0  0
  1  4  1  0
  6  7  1  0
  7  9  2  0
  7 10  1  0
  4 11  1  0
  4 12  2  0
  3 13  1  0
  1  2  2  0
  2  3  1  0
  3  5  2  0
  5  6  1  0
  6  8  2  0
  8  1  1  0
M  END
$$$$
