No_9036-complexes_sdf/6BKW-FPZ/2024-09-17-14-21-01/
     RDKit          3D

 10 10  0  0  0  0  0  0  0  0999 V2000
   -7.7129    4.2099   27.0854 C   0  0  0  0  0  0  0  0  0  0  0  0
   -8.9133    4.4736   27.0998 C   0  0  0  0  0  0  0  0  0  0  0  0
   -9.8363    3.8127   27.2418 C   0  0  0  0  0  0  0  0  0  0  0  0
   -7.2995    2.8520   27.3808 C   0  0  0  0  0  0  0  0  0  0  0  0
   -8.3226    1.9328   27.4680 C   0  0  0  0  0  0  0  0  0  0  0  0
   -9.5955    2.3639   27.4416 C   0  0  0  0  0  0  0  0  0  0  0  0
   -9.2071    6.2720   26.9208 Cl  0  0  0  0  0  0  0  0  0  0  0  0
   -7.8049    0.5148   27.6023 C   0  0  0  0  0  0  0  0  0  0  0  0
   -8.7285   -0.4564   27.7767 C   0  0  0  0  0  0  0  0  0  0  0  0
   -8.3204   -1.7840   27.9936 C   0  0  0  0  0  0  0  0  0  0  0  0
  2  7  1  0
  5  8  1  0
  8  9  2  3
  9 10  1  0
  1  2  2  0
  2  3  1  0
  3  6  2  0
  6  5  1  0
  5  4  2  0
  4  1  1  0
M  END
$$$$
