No_9800-complexes_sdf/6BKW-FPZ/2024-09-17-14-21-01/
     RDKit          3D

 20 22  0  0  0  0  0  0  0  0999 V2000
   -7.7129    4.2099   27.0854 C   0  0  0  0  0  0  0  0  0  0  0  0
   -7.7814    5.1722   27.8972 C   0  0  0  0  0  0  0  0  0  0  0  0
   -7.2983    2.9533   27.5684 C   0  0  0  0  0  0  0  0  0  0  0  0
   -7.6908    1.8111   26.9553 C   0  0  1  0  0  0  0  0  0  0  0  0
   -8.6533    1.9165   25.9430 C   0  0  0  0  0  0  0  0  0  0  0  0
   -9.2376    3.0581   25.6387 C   0  0  0  0  0  0  0  0  0  0  0  0
   -8.8901    4.1760   26.2867 C   0  0  0  0  0  0  0  0  0  0  0  0
   -8.3432    6.4292   27.5920 N   0  0  0  0  0  0  0  0  0  0  0  0
   -9.3918    5.4172   25.9934 N   0  0  0  0  0  0  0  0  0  0  0  0
   -9.1128    6.5415   26.6567 C   0  0  0  0  0  0  0  0  0  0  0  0
   -7.0402    0.5413   27.2298 C   0  0  0  0  0  0  0  0  0  0  0  0
   -7.7179   -0.6442   27.2933 C   0  0  0  0  0  0  0  0  0  0  0  0
   -7.1416   -1.7407   27.7748 C   0  0  0  0  0  0  0  0  0  0  0  0
   -5.6948    0.5183   27.5950 C   0  0  0  0  0  0  0  0  0  0  0  0
   -5.0565   -0.5700   28.1002 C   0  0  0  0  0  0  0  0  0  0  0  0
   -3.6764   -0.5089   28.5754 C   0  0  1  0  0  0  0  0  0  0  0  0
   -5.8114   -1.7372   28.2431 C   0  0  0  0  0  0  0  0  0  0  0  0
   -2.8372    0.1371   27.7279 C   0  0  0  0  0  0  0  0  0  0  0  0
   -3.2333   -1.0030   29.8107 C   0  0  0  0  0  0  0  0  0  0  0  0
   -3.5571   -0.3002   30.9868 C   0  0  0  0  0  0  0  0  0  0  0  0
  1  3  1  0
  3  4  1  0
  4  5  1  0
  5  6  1  0
  6  7  1  0
  4 11  1  6
 15 16  1  0
 16 18  1  1
 16 19  1  0
 19 20  1  0
  1  2  2  0
  2  8  1  0
  8 10  2  0
 10  9  1  0
  9  7  2  0
  7  1  1  0
 11 12  2  0
 12 13  1  0
 13 17  2  0
 17 15  1  0
 15 14  2  0
 14 11  1  0
M  END
$$$$
