No_9976-complexes_sdf/6BKW-FPZ/2024-09-17-14-21-01/
     RDKit          3D

 24 27  0  0  0  0  0  0  0  0999 V2000
   -7.7129    4.2099   27.0854 C   0  0  0  0  0  0  0  0  0  0  0  0
   -7.7814    5.1722   27.8972 C   0  0  0  0  0  0  0  0  0  0  0  0
   -7.3155    2.9700   27.6145 C   0  0  0  0  0  0  0  0  0  0  0  0
   -7.9010    1.7962   27.2023 C   0  0  0  0  0  0  0  0  0  0  0  0
   -8.9847    1.8780   26.3510 C   0  0  0  0  0  0  0  0  0  0  0  0
   -9.4574    3.0802   25.8765 C   0  0  0  0  0  0  0  0  0  0  0  0
   -8.9236    4.1514   26.3660 C   0  0  0  0  0  0  0  0  0  0  0  0
   -8.2704    6.4509   27.5424 N   0  0  0  0  0  0  0  0  0  0  0  0
   -9.1232    6.5627   26.5151 C   0  0  0  0  0  0  0  0  0  0  0  0
   -9.4822    5.4583   25.8824 C   0  0  0  0  0  0  0  0  0  0  0  0
   -7.2752    0.5097   27.5788 C   0  0  0  0  0  0  0  0  0  0  0  0
   -5.9168    0.4056   27.9467 C   0  0  0  0  0  0  0  0  0  0  0  0
   -5.3689   -0.7938   28.3735 C   0  0  0  0  0  0  0  0  0  0  0  0
   -6.1883   -1.8839   28.4925 C   0  0  0  0  0  0  0  0  0  0  0  0
   -8.0122   -0.7289   27.5680 C   0  0  0  0  0  0  0  0  0  0  0  0
   -7.5134   -1.8303   28.1345 C   0  0  0  0  0  0  0  0  0  0  0  0
   -3.9414   -0.7808   28.8376 C   0  0  1  0  0  0  0  0  0  0  0  0
   -3.6634   -0.3958   30.0891 C   0  0  2  0  0  0  0  0  0  0  0  0
   -3.2934   -2.0475   28.4236 C   0  0  0  0  0  0  0  0  0  0  0  0
   -4.0530    0.8570   30.6079 C   0  0  0  0  0  0  0  0  0  0  0  0
   -2.8002   -1.2729   30.8984 C   0  0  0  0  0  0  0  0  0  0  0  0
   -1.9697   -2.1481   30.4535 C   0  0  0  0  0  0  0  0  0  0  0  0
   -2.1715   -2.5508   29.1270 C   0  0  0  0  0  0  0  0  0  0  0  0
   -3.2268    0.4226   27.9094 C   0  0  0  0  0  0  0  0  0  0  0  0
  4 11  1  0
 13 17  1  0
 17 18  1  0
 17 19  1  0
 18 20  1  6
 18 21  1  0
 19 23  1  0
 22 23  1  0
 17 24  1  6
 21 22  1  0
  1  2  2  0
  2  8  1  0
  8  9  2  0
  9 10  1  0
 10  7  2  0
 11 12  2  0
 12 13  1  0
 13 14  2  0
 14 16  1  0
 16 15  2  0
 15 11  1  0
  1  3  1  0
  3  4  2  0
  4  5  1  0
  5  6  2  0
  6  7  1  0
  7  1  1  0
M  END
$$$$
