No_9698-complexes_sdf/6BKW-FPZ/2024-09-17-14-21-01/
     RDKit          3D

 17 18  0  0  0  0  0  0  0  0999 V2000
   -7.9040    3.9820   27.1177 C   0  0  0  0  0  0  0  0  0  0  0  0
   -9.0711    4.3164   27.0630 C   0  0  0  0  0  0  0  0  0  0  0  0
   -9.9692    3.7224   26.1073 C   0  0  0  0  0  0  0  0  0  0  0  0
   -6.9787    4.6761   28.1003 C   0  0  0  0  0  0  0  0  0  0  0  0
   -9.4538    2.6801   25.3673 C   0  0  0  0  0  0  0  0  0  0  0  0
   -8.1927    2.1957   25.6621 C   0  0  0  0  0  0  0  0  0  0  0  0
   -7.4333    2.8255   26.6299 C   0  0  0  0  0  0  0  0  0  0  0  0
  -10.3181    2.0008   24.3846 C   0  0  0  0  0  0  0  0  0  0  0  0
  -10.7358    2.6411   23.3159 C   0  0  0  0  0  0  0  0  0  0  0  0
  -10.9225    3.9476   23.2665 C   0  0  0  0  0  0  0  0  0  0  0  0
  -11.3373    4.7037   22.0880 C   0  0  0  0  0  0  0  0  0  0  0  0
  -11.4502    3.9957   20.9338 C   0  0  0  0  0  0  0  0  0  0  0  0
  -11.0410    1.9304   22.0962 C   0  0  0  0  0  0  0  0  0  0  0  0
  -11.3631    2.6204   20.9102 C   0  0  0  0  0  0  0  0  0  0  0  0
  -10.4453    0.7157   24.5426 O   0  0  0  0  0  0  0  0  0  0  0  0
   -5.8680    4.3462   28.2121 N   0  0  0  0  0  0  0  0  0  0  0  0
   -7.5112    5.7262   28.6782 F   0  0  0  0  0  0  0  0  0  0  0  0
  1  4  1  0
  5  8  1  0
  8  9  1  0
  8 15  2  0
  4 16  2  0
  4 17  1  0
  9 10  2  0
 10 11  1  0
 11 12  2  0
 12 14  1  0
 14 13  2  0
 13  9  1  0
  1  2  2  0
  2  3  1  0
  3  5  2  0
  5  6  1  0
  6  7  2  0
  7  1  1  0
M  END
$$$$
