No_9663-complexes_sdf/6BKW-FPZ/2024-09-17-14-21-01/
     RDKit          3D

 40 44  0  0  0  0  0  0  0  0999 V2000
   -7.9040    3.9820   27.1177 C   0  0  0  0  0  0  0  0  0  0  0  0
   -8.2057    2.8231   26.8733 C   0  0  0  0  0  0  0  0  0  0  0  0
   -8.7695    5.0740   26.7916 C   0  0  0  0  0  0  0  0  0  0  0  0
   -9.9618    4.7598   26.1630 C   0  0  0  0  0  0  0  0  0  0  0  0
   -9.4200    2.4524   26.2849 C   0  0  0  0  0  0  0  0  0  0  0  0
  -10.2590    3.4815   25.9250 C   0  0  0  0  0  0  0  0  0  0  0  0
   -8.3840    6.4693   27.0829 C   0  0  0  0  0  0  0  0  0  0  0  0
   -7.7453    6.8270   28.1334 N   0  0  0  0  0  0  0  0  0  0  0  0
   -8.7748    7.4415   26.2636 N   0  0  0  0  0  0  0  0  0  0  0  0
   -7.2763    1.6719   27.2843 C   0  0  0  0  0  0  0  0  0  0  0  0
   -7.6177    0.3893   27.1805 N   0  0  0  0  0  0  0  0  0  0  0  0
   -6.0268    1.9189   27.7257 N   0  0  0  0  0  0  0  0  0  0  0  0
   -6.8895   -0.5854   27.4954 C   0  0  0  0  0  0  0  0  0  0  0  0
   -5.1753    0.9789   28.1296 C   0  0  0  0  0  0  0  0  0  0  0  0
   -5.5901   -0.3207   28.0569 C   0  0  0  0  0  0  0  0  0  0  0  0
   -3.9516    1.3346   28.5843 N   0  0  0  0  0  0  0  0  0  0  0  0
   -7.2012   -1.8935   27.4826 N   0  0  0  0  0  0  0  0  0  0  0  0
   -8.3670   -2.2185   27.0648 C   0  0  0  0  0  0  0  0  0  0  0  0
   -9.1126   -1.8853   26.4242 C   0  0  0  0  0  0  0  0  0  0  0  0
  -10.4707   -2.4063   26.0744 C   0  0  0  0  0  0  0  0  0  0  0  0
  -10.7369   -3.5729   26.7653 C   0  0  0  0  0  0  0  0  0  0  0  0
   -9.8977   -4.1406   27.6288 C   0  0  0  0  0  0  0  0  0  0  0  0
   -8.7097   -3.5481   27.9368 C   0  0  0  0  0  0  0  0  0  0  0  0
  -12.0952   -4.1831   26.4000 C   0  0  0  0  0  0  0  0  0  0  0  0
  -12.7259   -4.2019   25.5890 O   0  0  0  0  0  0  0  0  0  0  0  0
  -12.5756   -4.9402   27.5312 O   0  0  0  0  0  0  0  0  0  0  0  0
  -11.5100    3.1988   25.1706 C   0  0  0  0  0  0  0  0  0  0  0  0
  -11.6691    3.5672   23.9330 C   0  0  0  0  0  0  0  0  0  0  0  0
  -12.2540    3.4849   23.1098 C   0  0  0  0  0  0  0  0  0  0  0  0
  -13.4281    2.5717   23.2056 C   0  0  0  0  0  0  0  0  0  0  0  0
  -13.4855    2.0510   24.5331 C   0  0  0  0  0  0  0  0  0  0  0  0
  -12.5206    2.2593   25.5428 C   0  0  0  0  0  0  0  0  0  0  0  0
  -14.5414    1.1862   24.7833 O   0  0  0  0  0  0  0  0  0  0  0  0
  -14.6664    0.0475   24.3713 C   0  0  0  0  0  0  0  0  0  0  0  0
  -14.0429   -0.7086   23.7840 C   0  0  0  0  0  0  0  0  0  0  0  0
  -13.9836   -1.6457   23.2369 C   0  0  0  0  0  0  0  0  0  0  0  0
  -16.0398   -0.5133   24.6819 C   0  0  0  0  0  0  0  0  0  0  0  0
  -16.2724   -1.8015   24.1701 C   0  0  0  0  0  0  0  0  0  0  0  0
  -15.2763   -2.4436   23.4481 C   0  0  0  0  0  0  0  0  0  0  0  0
  -12.3046    4.1566   21.7075 C   0  0  0  0  0  0  0  0  0  0  0  0
  3  7  1  0
  7  8  1  0
  7  9  2  0
  2 10  1  0
 14 16  1  0
 13 17  1  0
 21 24  1  0
 24 25  2  0
 24 26  1  0
  6 27  1  0
 31 33  1  0
 33 34  1  0
 29 40  1  0
 17 18  1  0
 18 19  2  0
 19 20  1  0
 20 21  2  0
 21 22  1  0
 22 23  2  0
 23 18  1  0
 10 11  2  0
 11 13  1  0
 13 15  2  0
 15 14  1  0
 14 12  2  0
 12 10  1  0
 27 28  2  0
 28 29  1  0
 29 30  2  0
 30 31  1  0
 31 32  2  0
 32 27  1  0
 34 35  2  0
 35 36  1  0
 36 39  2  0
 39 38  1  0
 38 37  2  0
 37 34  1  0
  1  2  2  0
  2  5  1  0
  5  6  2  0
  6  4  1  0
  4  3  2  0
  3  1  1  0
M  END
$$$$
