No_9449-complexes_sdf/6BKW-FPZ/2024-09-17-14-21-01/
     RDKit          3D

 36 41  0  0  0  0  0  0  0  0999 V2000
   -7.7129    4.2099   27.0854 C   0  0  0  0  0  0  0  0  0  0  0  0
   -7.7814    5.1722   27.8972 C   0  0  0  0  0  0  0  0  0  0  0  0
   -7.3155    2.9699   27.6145 C   0  0  0  0  0  0  0  0  0  0  0  0
   -7.9010    1.7962   27.2023 C   0  0  0  0  0  0  0  0  0  0  0  0
   -8.9578    1.9047   26.2707 C   0  0  0  0  0  0  0  0  0  0  0  0
   -9.3989    3.1000   25.8096 C   0  0  0  0  0  0  0  0  0  0  0  0
   -8.8948    4.1615   26.3218 C   0  0  0  0  0  0  0  0  0  0  0  0
   -8.1888    6.3211   27.8690 N   0  0  0  0  0  0  0  0  0  0  0  0
   -9.1487    6.6343   26.8547 C   0  0  0  0  0  0  0  0  0  0  0  0
   -9.5571    5.4953   26.0827 C   0  0  0  0  0  0  0  0  0  0  0  0
   -7.2643    0.5004   27.5102 C   0  0  0  0  0  0  0  0  0  0  0  0
   -8.0488   -0.6699   27.5811 C   0  0  0  0  0  0  0  0  0  0  0  0
   -7.4849   -1.8263   27.7547 C   0  0  0  0  0  0  0  0  0  0  0  0
   -6.0546    0.3301   28.1286 C   0  0  0  0  0  0  0  0  0  0  0  0
   -5.4079   -0.7818   28.4477 C   0  0  0  0  0  0  0  0  0  0  0  0
   -6.2073   -1.9289   28.3216 C   0  0  0  0  0  0  0  0  0  0  0  0
   -4.0286   -0.8593   28.9830 C   0  0  1  0  0  0  0  0  0  0  0  0
   -3.1542   -0.0514   28.3953 C   0  0  0  0  0  0  0  0  0  0  0  0
   -3.9159   -0.5837   30.5051 C   0  0  0  0  0  0  0  0  0  0  0  0
   -3.7155   -1.6615   31.2739 C   0  0  2  0  0  0  0  0  0  0  0  0
   -3.7855   -1.4944   32.6488 C   0  0  0  0  0  0  0  0  0  0  0  0
   -4.1625   -1.5982   33.6042 C   0  0  0  0  0  0  0  0  0  0  0  0
   -5.4009   -2.2742   33.9203 C   0  0  0  0  0  0  0  0  0  0  0  0
   -6.2773   -2.2976   33.1112 C   0  0  0  0  0  0  0  0  0  0  0  0
   -7.6410   -2.8748   33.3742 C   0  0  0  0  0  0  0  0  0  0  0  0
   -7.8860   -3.3374   34.6121 C   0  0  0  0  0  0  0  0  0  0  0  0
   -6.9269   -3.2574   35.6174 C   0  0  0  0  0  0  0  0  0  0  0  0
   -5.7125   -2.6572   35.3429 C   0  0  0  0  0  0  0  0  0  0  0  0
   -3.2278   -2.8566   30.7298 C   0  0  0  0  0  0  0  0  0  0  0  0
   -3.5370   -2.3366   28.6843 C   0  0  2  0  0  0  0  0  0  0  0  0
   -3.2542   -3.2235   29.6233 C   0  0  0  0  0  0  0  0  0  0  0  0
   -2.9433    0.1619   27.0031 C   0  0  0  0  0  0  0  0  0  0  0  0
   -2.8777   -0.7658   26.2260 C   0  0  0  0  0  0  0  0  0  0  0  0
   -3.2696   -2.5998   27.3115 C   0  0  2  0  0  0  0  0  0  0  0  0
   -3.1722   -4.0204   27.1307 C   0  0  0  0  0  0  0  0  0  0  0  0
   -3.0119   -2.0516   26.3162 C   0  0  0  0  0  0  0  0  0  0  0  0
  4 11  1  0
 17 15  1  6
 17 18  1  0
 17 19  1  0
 19 20  1  0
 21 22  1  0
 22 23  1  0
 20 29  1  0
 17 30  1  0
 18 32  1  0
 32 33  2  0
 30 34  1  0
 34 35  1  1
 33 36  1  0
 34 36  1  0
 20 21  1  1
 29 31  1  0
 30 31  1  1
  1  2  2  0
  2  8  1  0
  8  9  2  0
  9 10  1  0
 10  7  2  0
 23 24  2  0
 24 25  1  0
 25 26  2  0
 26 27  1  0
 27 28  2  0
 28 23  1  0
  1  3  1  0
  3  4  2  0
  4  5  1  0
  5  6  2  0
  6  7  1  0
  7  1  1  0
 11 12  2  0
 12 13  1  0
 13 16  2  0
 16 15  1  0
 15 14  2  0
 14 11  1  0
M  END
$$$$
