No_9450-complexes_sdf/6BKW-FPZ/2024-09-17-14-21-01/
     RDKit          3D

 24 25  0  0  0  0  0  0  0  0999 V2000
   -7.9040    3.9820   27.1177 C   0  0  0  0  0  0  0  0  0  0  0  0
   -8.2057    2.8231   26.8733 C   0  0  0  0  0  0  0  0  0  0  0  0
   -7.4766    1.7477   27.4593 C   0  0  0  0  0  0  0  0  0  0  0  0
   -8.7468    5.1251   26.6967 C   0  0  0  0  0  0  0  0  0  0  0  0
   -9.7234    4.8589   25.8202 C   0  0  0  0  0  0  0  0  0  0  0  0
   -9.9711    3.5858   25.4266 C   0  0  0  0  0  0  0  0  0  0  0  0
   -9.2266    2.4957   25.9600 C   0  0  0  0  0  0  0  0  0  0  0  0
   -7.8826    0.4491   27.3570 N   0  0  0  0  0  0  0  0  0  0  0  0
   -7.1059   -0.6269   27.5804 C   0  0  0  0  0  0  0  0  0  0  0  0
   -5.8650   -0.3440   28.1168 C   0  0  0  0  0  0  0  0  0  0  0  0
   -5.3435    0.9595   28.2184 C   0  0  0  0  0  0  0  0  0  0  0  0
   -6.0747    1.9736   27.7907 C   0  0  0  0  0  0  0  0  0  0  0  0
   -8.4125    6.5169   27.1082 C   0  0  0  0  0  0  0  0  0  0  0  0
   -7.9637    6.7042   28.2231 O   0  0  0  0  0  0  0  0  0  0  0  0
   -8.7279    7.5039   26.3441 O   0  0  0  0  0  0  0  0  0  0  0  0
   -4.0463    1.1714   28.6817 N   0  0  0  0  0  0  0  0  0  0  0  0
  -11.0101    3.3132   24.4346 C   0  0  0  0  0  0  0  0  0  0  0  0
  -10.7786    2.5539   23.4407 C   0  0  0  0  0  0  0  0  0  0  0  0
  -11.5505    2.5090   22.3055 C   0  0  0  0  0  0  0  0  0  0  0  0
  -11.2458    1.6418   21.1585 C   0  0  0  0  0  0  0  0  0  0  0  0
  -11.9635    1.6376   20.0230 C   0  0  0  0  0  0  0  0  0  0  0  0
  -11.6798    0.7271   18.9759 C   0  0  0  0  0  0  0  0  0  0  0  0
  -10.7746   -0.3120   19.2008 C   0  0  0  0  0  0  0  0  0  0  0  0
  -10.0986   -0.4168   20.4106 C   0  0  0  0  0  0  0  0  0  0  0  0
  2  3  1  0
  4 13  1  0
 13 14  2  0
 13 15  1  0
 11 16  1  0
  6 17  1  0
 17 18  1  0
 18 19  2  3
 19 20  1  0
 20 21  2  3
 21 22  1  0
 22 23  2  3
 23 24  1  0
  3  8  2  0
  8  9  1  0
  9 10  2  0
 10 11  1  0
 11 12  2  0
 12  3  1  0
  1  2  2  0
  2  7  1  0
  7  6  2  0
  6  5  1  0
  5  4  2  0
  4  1  1  0
M  END
$$$$
