No_968-complexes_sdf/6BKW-FPZ/2024-09-17-14-21-01/
     RDKit          3D

 17 18  0  0  0  0  0  0  0  0999 V2000
   -7.9040    3.9820   27.1177 C   0  0  0  0  0  0  0  0  0  0  0  0
   -9.0711    4.3164   27.0630 C   0  0  0  0  0  0  0  0  0  0  0  0
   -9.9692    3.7224   26.1073 C   0  0  0  0  0  0  0  0  0  0  0  0
   -7.4776    2.6994   26.6283 C   0  0  0  0  0  0  0  0  0  0  0  0
   -8.4406    1.9440   25.9776 C   0  0  0  0  0  0  0  0  0  0  0  0
   -9.6379    2.5001   25.6881 C   0  0  0  0  0  0  0  0  0  0  0  0
   -7.0025    4.5948   27.9221 F   0  0  0  0  0  0  0  0  0  0  0  0
  -10.6113    1.7254   24.8406 C   0  0  1  0  0  0  0  0  0  0  0  0
  -10.7870    2.0238   23.6294 C   0  0  0  0  0  0  0  0  0  0  0  0
  -11.6844    1.3127   22.7310 C   0  0  0  0  0  0  0  0  0  0  0  0
  -11.8705    1.7190   21.3779 C   0  0  0  0  0  0  0  0  0  0  0  0
  -11.2035    2.8882   20.8914 C   0  0  0  0  0  0  0  0  0  0  0  0
  -10.3222    3.5609   21.6859 C   0  0  0  0  0  0  0  0  0  0  0  0
  -10.1153    3.2450   22.9788 C   0  0  0  0  0  0  0  0  0  0  0  0
  -11.2029    0.6039   25.4568 C   0  0  0  0  0  0  0  0  0  0  0  0
  -12.1751    0.3563   25.8718 C   0  0  0  0  0  0  0  0  0  0  0  0
  -12.6449   -0.8592   26.5115 C   0  0  0  0  0  0  0  0  0  0  0  0
  1  7  1  0
  8  6  1  6
  8 15  1  0
 15 16  2  3
 16 17  1  0
  8  9  1  0
  1  2  2  0
  2  3  1  0
  3  6  2  0
  6  5  1  0
  5  4  2  0
  4  1  1  0
  9 10  2  0
 10 11  1  0
 11 12  2  0
 12 13  1  0
 13 14  2  0
 14  9  1  0
M  END
$$$$
