No_9974-complexes_sdf/6BKW-FPZ/2024-09-17-14-21-01/
     RDKit          3D

 20 22  0  0  0  0  0  0  0  0999 V2000
   -7.9040    3.9820   27.1177 C   0  0  0  0  0  0  0  0  0  0  0  0
   -7.8663    4.8694   27.9238 C   0  0  0  0  0  0  0  0  0  0  0  0
   -9.0501    3.8017   26.2617 C   0  0  0  0  0  0  0  0  0  0  0  0
   -9.1826    2.7026   25.3575 C   0  0  0  0  0  0  0  0  0  0  0  0
   -8.6940    6.0131   27.8614 C   0  0  0  0  0  0  0  0  0  0  0  0
   -9.9755    4.8547   26.2361 C   0  0  0  0  0  0  0  0  0  0  0  0
   -9.7463    5.9398   27.0364 C   0  0  0  0  0  0  0  0  0  0  0  0
   -8.7094    1.4766   25.7702 C   0  0  0  0  0  0  0  0  0  0  0  0
   -9.8873    2.8128   24.1493 C   0  0  0  0  0  0  0  0  0  0  0  0
   -8.7616    0.3825   24.9403 C   0  0  0  0  0  0  0  0  0  0  0  0
   -9.9540    1.7289   23.3223 C   0  0  0  0  0  0  0  0  0  0  0  0
   -9.3986    0.5224   23.6907 C   0  0  0  0  0  0  0  0  0  0  0  0
  -10.5845    1.8708   21.9912 C   0  0  0  0  0  0  0  0  0  0  0  0
  -11.8974    2.0129   21.9662 C   0  0  0  0  0  0  0  0  0  0  0  0
  -12.6514    2.0465   22.7589 C   0  0  0  0  0  0  0  0  0  0  0  0
  -14.1450    2.2683   22.5634 C   0  0  0  0  0  0  0  0  0  0  0  0
  -14.5261    2.4115   21.2621 C   0  0  0  0  0  0  0  0  0  0  0  0
  -12.4564    2.2271   20.5169 C   0  0  0  0  0  0  0  0  0  0  0  0
  -13.7247    2.4074   20.2632 C   0  0  0  0  0  0  0  0  0  0  0  0
   -9.7006    1.8557   21.0379 O   0  0  0  0  0  0  0  0  0  0  0  0
  3  4  1  0
 11 13  1  0
 13 14  1  0
 13 20  2  0
 14 15  2  0
 15 16  1  0
 16 17  2  0
 17 19  1  0
 19 18  2  0
 18 14  1  0
  4  8  2  0
  8 10  1  0
 10 12  2  0
 12 11  1  0
 11  9  2  0
  9  4  1  0
  1  2  2  0
  2  5  1  0
  5  7  2  0
  7  6  1  0
  6  3  2  0
  3  1  1  0
M  END
$$$$
