No_9421-complexes_sdf/6BKW-FPZ/2024-09-17-14-21-01/
     RDKit          3D

 33 36  0  0  0  0  0  0  0  0999 V2000
   -7.2496    3.8871   27.4508 C   0  0  0  0  0  0  0  0  0  0  0  0
   -7.9379    4.9063   27.8518 C   0  0  0  0  0  0  0  0  0  0  0  0
   -7.5112    6.1898   27.6280 C   0  0  0  0  0  0  0  0  0  0  0  0
   -7.4783    2.5435   27.5904 C   0  0  1  0  0  0  0  0  0  0  0  0
   -8.8194    2.2030   27.8879 C   0  0  0  0  0  0  0  0  0  0  0  0
   -9.1638    0.8281   27.7445 C   0  0  0  0  0  0  0  0  0  0  0  0
  -10.5392    0.4753   27.8864 C   0  0  0  0  0  0  0  0  0  0  0  0
  -11.4606    1.5258   28.2324 C   0  0  0  0  0  0  0  0  0  0  0  0
  -11.0635    2.8562   28.3296 C   0  0  0  0  0  0  0  0  0  0  0  0
   -9.7759    3.2189   28.1392 C   0  0  0  0  0  0  0  0  0  0  0  0
   -9.3779    4.5967   28.1430 C   0  0  0  0  0  0  0  0  0  0  0  0
   -6.5163    1.5269   27.2192 C   0  0  2  0  0  0  0  0  0  0  0  0
   -6.8263    0.7290   26.3244 F   0  0  0  0  0  0  0  0  0  0  0  0
   -6.0820    0.8765   28.4212 O   0  0  0  0  0  0  0  0  0  0  0  0
   -4.7158    0.8062   28.4527 C   0  0  0  0  0  0  0  0  0  0  0  0
   -4.2400   -0.0045   29.6007 C   0  0  0  0  0  0  0  0  0  0  0  0
   -4.6416    0.1313   30.6022 O   0  0  0  0  0  0  0  0  0  0  0  0
   -3.3129   -0.9344   29.2871 N   0  0  0  0  0  0  0  0  0  0  0  0
   -2.6733   -1.7536   30.3051 C   0  0  0  0  0  0  0  0  0  0  0  0
  -11.9938    3.7300   28.7136 F   0  0  0  0  0  0  0  0  0  0  0  0
   -2.7054   -1.0341   27.9608 C   0  0  0  0  0  0  0  0  0  0  0  0
   -8.1660    7.3156   26.9105 C   0  0  0  0  0  0  0  0  0  0  0  0
   -9.3676    7.0942   26.3927 N   0  0  0  0  0  0  0  0  0  0  0  0
   -7.5939    8.3687   26.8771 O   0  0  0  0  0  0  0  0  0  0  0  0
   -2.4836   -1.3222   31.3686 C   0  0  0  0  0  0  0  0  0  0  0  0
   -1.8258   -2.0192   32.4801 C   0  0  0  0  0  0  0  0  0  0  0  0
   -1.1761   -3.0317   32.1683 C   0  0  0  0  0  0  0  0  0  0  0  0
   -1.2717   -3.5746   30.8595 C   0  0  0  0  0  0  0  0  0  0  0  0
   -1.9094   -2.8221   29.8715 C   0  0  0  0  0  0  0  0  0  0  0  0
   -1.9382   -0.1028   27.4671 C   0  0  0  0  0  0  0  0  0  0  0  0
   -1.6979   -0.0422   26.0307 C   0  0  0  0  0  0  0  0  0  0  0  0
   -2.2887   -1.1425   25.3072 C   0  0  0  0  0  0  0  0  0  0  0  0
   -3.1645   -1.8628   26.8952 C   0  0  0  0  0  0  0  0  0  0  0  0
  1  2  1  0
  2  3  2  3
  4  1  1  6
  4  5  1  0
  2 11  1  0
 10 11  1  0
  4 12  1  0
 12 13  1  6
 12 14  1  0
 14 15  1  0
 15 16  1  0
 16 17  2  0
 16 18  1  0
 18 19  1  0
  9 20  1  0
 18 21  1  0
  3 22  1  0
 22 23  1  0
 22 24  2  0
 21 30  2  0
 30 31  1  0
 31 32  2  0
 21 33  1  0
 32 33  1  0
  5  6  2  0
  6  7  1  0
  7  8  2  0
  8  9  1  0
  9 10  2  0
 10  5  1  0
 19 25  2  0
 25 26  1  0
 26 27  2  0
 27 28  1  0
 28 29  2  0
 29 19  1  0
M  END
$$$$
