No_9079-complexes_sdf/6BKW-FPZ/2024-09-17-14-21-01/
     RDKit          3D

 35 38  0  0  0  0  0  0  0  0999 V2000
   -7.7129    4.2099   27.0854 C   0  0  0  0  0  0  0  0  0  0  0  0
   -8.2112    3.0637   26.9225 C   0  0  0  0  0  0  0  0  0  0  0  0
   -8.5108    5.3904   26.9436 C   0  0  0  0  0  0  0  0  0  0  0  0
   -9.7256    5.1955   26.3518 C   0  0  0  0  0  0  0  0  0  0  0  0
   -9.4995    2.8258   26.4878 C   0  0  0  0  0  0  0  0  0  0  0  0
  -10.2542    3.9691   26.2055 C   0  0  0  0  0  0  0  0  0  0  0  0
   -7.7727    6.5274   27.1833 N   0  0  0  0  0  0  0  0  0  0  0  0
   -7.3803    1.8009   27.2373 C   0  0  1  0  0  0  0  0  0  0  0  0
   -7.8295    0.5890   27.0942 N   0  0  0  0  0  0  0  0  0  0  0  0
   -8.9456    0.2211   27.1710 C   0  0  0  0  0  0  0  0  0  0  0  0
   -9.8654    0.9358   27.2368 C   0  0  0  0  0  0  0  0  0  0  0  0
  -10.3637    1.8200   26.7211 C   0  0  0  0  0  0  0  0  0  0  0  0
   -6.0536    2.0970   27.3935 N   0  0  0  0  0  0  0  0  0  0  0  0
   -8.4389    7.7829   27.2849 C   0  0  0  0  0  0  0  0  0  0  0  0
   -5.2555    1.3358   28.3037 C   0  0  0  0  0  0  0  0  0  0  0  0
   -5.3077    0.2053   28.7394 C   0  0  0  0  0  0  0  0  0  0  0  0
   -4.4105   -0.3339   29.6954 C   0  0  0  0  0  0  0  0  0  0  0  0
   -3.2837    0.4241   29.9508 C   0  0  0  0  0  0  0  0  0  0  0  0
   -3.0469    1.5808   29.2572 C   0  0  0  0  0  0  0  0  0  0  0  0
   -3.9375    2.0759   28.4605 C   0  0  0  0  0  0  0  0  0  0  0  0
   -4.7798   -1.5855   30.4047 C   0  0  0  0  0  0  0  0  0  0  0  0
   -4.6811   -1.6253   31.6861 C   0  0  0  0  0  0  0  0  0  0  0  0
   -5.4785   -1.5606   32.5839 C   0  0  0  0  0  0  0  0  0  0  0  0
   -5.2856   -1.5781   34.0581 C   0  0  0  0  0  0  0  0  0  0  0  0
   -3.9786   -1.5733   34.5286 C   0  0  0  0  0  0  0  0  0  0  0  0
   -2.9688   -1.5952   33.5819 C   0  0  0  0  0  0  0  0  0  0  0  0
   -3.2213   -1.5574   32.1956 C   0  0  0  0  0  0  0  0  0  0  0  0
   -3.7373   -1.5721   35.9764 C   0  0  0  0  0  0  0  0  0  0  0  0
   -3.0968   -0.5511   36.4754 C   0  0  1  0  0  0  0  0  0  0  0  0
   -2.1698    0.0535   36.1711 N   0  0  0  0  0  0  0  0  0  0  0  0
   -3.8333    0.1400   37.7283 C   0  0  0  0  0  0  0  0  0  0  0  0
   -3.6815    1.4364   37.9872 C   0  0  0  0  0  0  0  0  0  0  0  0
   -3.4894    1.8573   39.0186 C   0  0  0  0  0  0  0  0  0  0  0  0
   -4.2427    1.3978   40.1756 C   0  0  0  0  0  0  0  0  0  0  0  0
   -4.6797    0.0287   39.9571 C   0  0  0  0  0  0  0  0  0  0  0  0
  3  7  1  0
  2  8  1  0
  8  9  1  0
  9 10  1  0
 10 11  2  0
  5 12  1  0
 11 12  1  0
  8 13  1  6
  7 14  1  0
 13 15  1  0
 17 21  1  0
 21 22  1  0
 25 28  1  0
 28 29  1  0
 29 30  1  6
 29 31  1  0
 31 32  2  3
 32 33  1  0
 33 34  2  3
 34 35  1  0
 15 16  2  0
 16 17  1  0
 17 18  2  0
 18 19  1  0
 19 20  2  0
 20 15  1  0
 22 23  2  0
 23 24  1  0
 24 25  2  0
 25 26  1  0
 26 27  2  0
 27 22  1  0
  1  2  2  0
  2  5  1  0
  5  6  2  0
  6  4  1  0
  4  3  2  0
  3  1  1  0
M  END
$$$$
