No_9746-complexes_sdf/6BKW-FPZ/2024-09-17-14-21-01/
     RDKit          3D

 13 14  0  0  0  0  0  0  0  0999 V2000
   -7.7129    4.2099   27.0854 C   0  0  0  0  0  0  0  0  0  0  0  0
   -7.7814    5.1722   27.8972 C   0  0  0  0  0  0  0  0  0  0  0  0
   -8.8998    3.8713   26.3707 C   0  0  0  0  0  0  0  0  0  0  0  0
   -9.9938    4.6774   26.5446 C   0  0  0  0  0  0  0  0  0  0  0  0
   -8.7789    6.1536   27.9256 C   0  0  0  0  0  0  0  0  0  0  0  0
   -9.9428    5.8398   27.2296 C   0  0  0  0  0  0  0  0  0  0  0  0
   -9.1379    2.6708   25.6021 C   0  0  0  0  0  0  0  0  0  0  0  0
   -8.5478    1.4835   26.0092 C   0  0  0  0  0  0  0  0  0  0  0  0
   -8.5373    0.3762   25.2141 C   0  0  0  0  0  0  0  0  0  0  0  0
   -9.1736    0.4905   23.9672 C   0  0  0  0  0  0  0  0  0  0  0  0
   -9.6091    2.6989   24.3105 C   0  0  0  0  0  0  0  0  0  0  0  0
   -9.6608    1.6296   23.5150 C   0  0  0  0  0  0  0  0  0  0  0  0
   -6.6238    5.5791   28.5983 O   0  0  0  0  0  0  0  0  0  0  0  0
  3  7  1  0
  2 13  1  0
  7  8  2  0
  8  9  1  0
  9 10  2  0
 10 12  1  0
 12 11  2  0
 11  7  1  0
  1  2  2  0
  2  5  1  0
  5  6  2  0
  6  4  1  0
  4  3  2  0
  3  1  1  0
M  END
$$$$
