No_9740-complexes_sdf/6BKW-FPZ/2024-09-17-14-21-01/
     RDKit          3D

 24 27  0  0  0  0  0  0  0  0999 V2000
   -7.7129    4.2099   27.0854 C   0  0  0  0  0  0  0  0  0  0  0  0
   -8.2112    3.0637   26.9225 C   0  0  0  0  0  0  0  0  0  0  0  0
   -9.5629    2.7997   27.0678 C   0  0  0  0  0  0  0  0  0  0  0  0
   -8.5911    5.3704   27.2036 C   0  0  0  0  0  0  0  0  0  0  0  0
   -9.9544    5.1489   27.1401 C   0  0  0  0  0  0  0  0  0  0  0  0
  -10.4577    3.9280   27.0818 C   0  0  0  0  0  0  0  0  0  0  0  0
   -8.0506    6.5773   27.3166 F   0  0  0  0  0  0  0  0  0  0  0  0
  -10.0800    1.4067   26.9333 C   0  0  0  0  0  0  0  0  0  0  0  0
   -9.1848    0.4046   26.9900 C   0  0  0  0  0  0  0  0  0  0  0  0
   -7.7786    0.6972   26.9122 C   0  0  0  0  0  0  0  0  0  0  0  0
   -7.3019    1.9254   26.9577 C   0  0  0  0  0  0  0  0  0  0  0  0
   -6.8389   -0.4679   26.8279 C   0  0  0  0  0  0  0  0  0  0  0  0
   -5.7954   -0.4552   27.6496 C   0  0  0  0  0  0  0  0  0  0  0  0
   -5.5817    0.6322   28.6337 C   0  0  0  0  0  0  0  0  0  0  0  0
   -4.3570    0.3677   29.4592 C   0  0  0  0  0  0  0  0  0  0  0  0
   -3.5613   -0.6766   29.3494 C   0  0  0  0  0  0  0  0  0  0  0  0
   -3.7855   -1.6422   28.4321 C   0  0  0  0  0  0  0  0  0  0  0  0
   -4.8719   -1.5598   27.6321 C   0  0  0  0  0  0  0  0  0  0  0  0
   -7.0705   -1.3761   25.8237 C   0  0  0  0  0  0  0  0  0  0  0  0
   -7.8950   -1.2220   24.6945 C   0  0  0  0  0  0  0  0  0  0  0  0
   -7.7715   -2.0400   23.6921 C   0  0  0  0  0  0  0  0  0  0  0  0
   -6.9152   -3.1394   23.7489 C   0  0  0  0  0  0  0  0  0  0  0  0
   -6.1191   -3.3431   24.8178 C   0  0  0  0  0  0  0  0  0  0  0  0
   -6.1065   -2.4521   25.8272 C   0  0  0  0  0  0  0  0  0  0  0  0
  4  7  1  0
 10 12  1  0
 12 19  1  0
 12 13  1  0
 13 14  2  0
 14 15  1  0
 15 16  2  0
 16 17  1  0
 17 18  2  0
 18 13  1  0
  1  2  2  0
  3  6  2  0
  6  5  1  0
  5  4  2  0
  4  1  1  0
  2  3  1  0
  3  8  1  0
  8  9  2  0
  9 10  1  0
 10 11  2  0
 11  2  1  0
 19 20  2  0
 20 21  1  0
 21 22  2  0
 22 23  1  0
 23 24  2  0
 24 19  1  0
M  END
$$$$
