No_9619-complexes_sdf/6BKW-FPZ/2024-09-17-14-21-01/
     RDKit          3D

 17 18  0  0  0  0  0  0  0  0999 V2000
   -7.9040    3.9820   27.1177 C   0  0  0  0  0  0  0  0  0  0  0  0
   -8.2057    2.8231   26.8733 C   0  0  0  0  0  0  0  0  0  0  0  0
   -9.2962    2.4021   26.1155 C   0  0  0  0  0  0  0  0  0  0  0  0
   -8.7358    5.0662   26.5917 C   0  0  0  0  0  0  0  0  0  0  0  0
   -9.7618    4.7023   25.7546 C   0  0  0  0  0  0  0  0  0  0  0  0
  -10.0066    3.4105   25.4922 C   0  0  0  0  0  0  0  0  0  0  0  0
   -8.3936    6.4769   26.8843 C   0  0  0  0  0  0  0  0  0  0  0  0
   -8.6672    7.3248   26.1418 F   0  0  0  0  0  0  0  0  0  0  0  0
   -7.0254    6.5035   27.1659 F   0  0  0  0  0  0  0  0  0  0  0  0
   -8.9392    6.6957   28.1515 F   0  0  0  0  0  0  0  0  0  0  0  0
   -7.2192    1.4981   27.6025 Cl  0  0  0  0  0  0  0  0  0  0  0  0
  -11.1097    3.1431   24.5621 C   0  0  0  0  0  0  0  0  0  0  0  0
  -12.3193    2.7821   25.0692 C   0  0  0  0  0  0  0  0  0  0  0  0
  -10.8871    3.2225   23.1796 C   0  0  0  0  0  0  0  0  0  0  0  0
  -11.8544    3.0148   22.2255 C   0  0  0  0  0  0  0  0  0  0  0  0
  -13.3844    2.5952   24.1068 C   0  0  0  0  0  0  0  0  0  0  0  0
  -13.1353    2.7189   22.7212 C   0  0  0  0  0  0  0  0  0  0  0  0
  4  7  1  0
  7  8  1  0
  7  9  1  0
  7 10  1  0
  2 11  1  0
  6 12  1  0
  1  2  2  0
  2  3  1  0
  3  6  2  0
  6  5  1  0
  5  4  2  0
  4  1  1  0
 12 13  2  0
 13 16  1  0
 16 17  2  0
 17 15  1  0
 15 14  2  0
 14 12  1  0
M  END
$$$$
