No_9052-complexes_sdf/6BKW-FPZ/2024-09-17-14-21-01/
     RDKit          3D

 34 37  0  0  0  0  0  0  0  0999 V2000
   -7.9040    3.9820   27.1177 C   0  0  0  0  0  0  0  0  0  0  0  0
   -8.2057    2.8231   26.8733 C   0  0  0  0  0  0  0  0  0  0  0  0
   -7.4766    1.7477   27.4593 C   0  0  0  0  0  0  0  0  0  0  0  0
   -8.7468    5.1251   26.6967 C   0  0  0  0  0  0  0  0  0  0  0  0
   -9.7234    4.8589   25.8202 C   0  0  0  0  0  0  0  0  0  0  0  0
   -9.9711    3.5858   25.4266 C   0  0  0  0  0  0  0  0  0  0  0  0
   -9.2266    2.4957   25.9600 C   0  0  0  0  0  0  0  0  0  0  0  0
   -6.1241    1.9216   27.8574 C   0  0  0  0  0  0  0  0  0  0  0  0
   -5.4248    0.7985   28.3602 C   0  0  0  0  0  0  0  0  0  0  0  0
   -5.9324   -0.4517   28.3727 C   0  0  0  0  0  0  0  0  0  0  0  0
   -7.8680    0.3890   27.4333 C   0  0  0  0  0  0  0  0  0  0  0  0
   -7.2076   -0.6217   27.9501 C   0  0  0  0  0  0  0  0  0  0  0  0
   -8.4174    6.5135   27.1003 C   0  0  0  0  0  0  0  0  0  0  0  0
   -8.2199    6.7564   28.2775 O   0  0  0  0  0  0  0  0  0  0  0  0
   -8.7517    7.5543   26.2817 O   0  0  0  0  0  0  0  0  0  0  0  0
   -3.9658    1.0954   28.8119 C   0  0  0  0  0  0  0  0  0  0  0  0
   -3.2300    0.3909   28.5903 F   0  0  0  0  0  0  0  0  0  0  0  0
   -3.6457    2.3005   28.4193 F   0  0  0  0  0  0  0  0  0  0  0  0
   -4.0467    1.2034   30.1763 F   0  0  0  0  0  0  0  0  0  0  0  0
  -11.0136    3.3251   24.4224 C   0  0  0  0  0  0  0  0  0  0  0  0
  -11.0429    3.8858   23.3221 C   0  0  0  0  0  0  0  0  0  0  0  0
  -11.9924    3.6936   22.2523 C   0  0  0  0  0  0  0  0  0  0  0  0
  -12.9653    2.7461   22.4787 C   0  0  0  0  0  0  0  0  0  0  0  0
  -11.9977    2.3348   24.5962 C   0  0  0  0  0  0  0  0  0  0  0  0
  -12.9308    2.0806   23.6674 C   0  0  0  0  0  0  0  0  0  0  0  0
  -13.9809    1.0312   23.8693 C   0  0  0  0  0  0  0  0  0  0  0  0
  -14.2517    0.3808   24.6304 O   0  0  0  0  0  0  0  0  0  0  0  0
  -14.8127    0.8748   22.6503 N   0  0  0  0  0  0  0  0  0  0  0  0
  -15.8229   -0.0661   22.6357 C   0  0  0  0  0  0  0  0  0  0  0  0
  -16.4834   -0.1509   21.5966 C   0  0  0  0  0  0  0  0  0  0  0  0
  -17.6135   -0.9881   21.5490 C   0  0  0  0  0  0  0  0  0  0  0  0
  -17.9344   -1.8019   22.6688 C   0  0  0  0  0  0  0  0  0  0  0  0
  -17.1303   -1.6604   23.7844 C   0  0  0  0  0  0  0  0  0  0  0  0
  -16.0944   -0.7728   23.8465 C   0  0  0  0  0  0  0  0  0  0  0  0
  2  3  1  0
  4 13  1  0
 13 14  2  0
 13 15  1  0
  9 16  1  0
 16 17  1  0
 16 18  1  0
 16 19  1  0
  6 20  1  0
 25 26  1  0
 26 27  2  0
 26 28  1  0
 28 29  1  0
 29 30  2  0
 30 31  1  0
 31 32  2  0
 32 33  1  0
 33 34  2  0
 34 29  1  0
  3  8  2  0
  8  9  1  0
  9 10  2  0
 10 12  1  0
 12 11  2  0
 11  3  1  0
  1  2  2  0
  2  7  1  0
  7  6  2  0
  6  5  1  0
  5  4  2  0
  4  1  1  0
 20 21  2  0
 21 22  1  0
 22 23  2  0
 23 25  1  0
 25 24  2  0
 24 20  1  0
M  END
$$$$
