No_9947-complexes_sdf/6BKW-FPZ/2024-09-17-14-21-01/
     RDKit          3D

 28 31  0  0  0  0  0  0  0  0999 V2000
   -7.9040    3.9820   27.1177 C   0  0  0  0  0  0  0  0  0  0  0  0
   -8.2057    2.8231   26.8733 C   0  0  0  0  0  0  0  0  0  0  0  0
   -7.0130    4.3706   28.1140 C   0  0  0  0  0  0  0  0  0  0  0  0
   -9.3829    2.4374   26.1668 C   0  0  1  0  0  0  0  0  0  0  0  0
  -10.0975    3.4171   25.5988 C   0  0  0  0  0  0  0  0  0  0  0  0
   -9.7335    4.7745   25.7705 C   0  0  0  0  0  0  0  0  0  0  0  0
   -8.7317    5.1107   26.5933 C   0  0  2  0  0  0  0  0  0  0  0  0
   -8.1967    6.4196   26.9573 C   0  0  2  0  0  0  0  0  0  0  0  0
   -7.3429    6.6849   27.7585 F   0  0  0  0  0  0  0  0  0  0  0  0
   -8.9364    7.5778   26.3697 C   0  0  0  0  0  0  0  0  0  0  0  0
   -9.6488    1.0511   25.8265 C   0  0  0  0  0  0  0  0  0  0  0  0
   -8.8297    0.1495   26.0582 C   0  0  0  0  0  0  0  0  0  0  0  0
   -9.0825   -1.2612   25.7941 C   0  0  0  0  0  0  0  0  0  0  0  0
  -10.3048   -1.5127   25.2240 C   0  0  0  0  0  0  0  0  0  0  0  0
  -10.8291    0.5400   25.2560 C   0  0  0  0  0  0  0  0  0  0  0  0
  -11.1445   -0.6374   24.9602 C   0  0  0  0  0  0  0  0  0  0  0  0
  -12.4457   -0.9825   24.3231 C   0  0  0  0  0  0  0  0  0  0  0  0
  -13.6211   -0.5363   24.8109 C   0  0  0  0  0  0  0  0  0  0  0  0
  -12.4664   -1.6853   23.0987 C   0  0  0  0  0  0  0  0  0  0  0  0
  -13.7709    0.1815   25.9474 C   0  0  0  0  0  0  0  0  0  0  0  0
  -14.8242   -0.8721   24.0888 C   0  0  0  0  0  0  0  0  0  0  0  0
  -14.8345   -1.5965   22.9753 C   0  0  0  0  0  0  0  0  0  0  0  0
  -13.5610   -2.0058   22.4562 C   0  0  0  0  0  0  0  0  0  0  0  0
  -14.5012    1.1516   26.1748 C   0  0  0  0  0  0  0  0  0  0  0  0
  -14.5881    1.8925   27.4138 C   0  0  0  0  0  0  0  0  0  0  0  0
  -13.7289    1.5567   28.4558 C   0  0  0  0  0  0  0  0  0  0  0  0
  -12.7914    0.5213   28.3068 C   0  0  0  0  0  0  0  0  0  0  0  0
  -12.7510   -0.1686   27.0625 C   0  0  0  0  0  0  0  0  0  0  0  0
  1  2  1  0
  1  3  2  0
  2  4  1  0
  4  5  1  0
  5  6  1  0
  1  7  1  0
  7  6  1  6
  7  8  1  0
  8  9  1  0
  8 10  1  1
  4 11  1  6
 16 17  1  0
 18 20  1  0
 20 24  2  0
 24 25  1  0
 25 26  2  0
 26 27  1  0
 27 28  2  0
 28 20  1  0
 11 12  2  0
 12 13  1  0
 13 14  2  0
 14 16  1  0
 16 15  2  0
 15 11  1  0
 17 18  2  0
 18 21  1  0
 21 22  2  0
 22 23  1  0
 23 19  2  0
 19 17  1  0
M  END
$$$$
