No_9831-complexes_sdf/6BKW-FPZ/2024-09-17-14-21-01/
     RDKit          3D

 13 14  0  0  0  0  0  0  0  0999 V2000
   -7.9040    3.9820   27.1177 C   0  0  0  0  0  0  0  0  0  0  0  0
   -8.2057    2.8231   26.8733 C   0  0  0  0  0  0  0  0  0  0  0  0
   -7.0130    4.3706   28.1140 C   0  0  0  0  0  0  0  0  0  0  0  0
   -9.3829    2.4374   26.1668 C   0  0  0  0  0  0  0  0  0  0  0  0
  -10.0975    3.4171   25.5988 C   0  0  1  0  0  0  0  0  0  0  0  0
   -9.7335    4.7745   25.7705 C   0  0  0  0  0  0  0  0  0  0  0  0
   -8.7317    5.1107   26.5933 C   0  0  0  0  0  0  0  0  0  0  0  0
   -8.4060    6.4842   26.8915 C   0  0  0  0  0  0  0  0  0  0  0  0
   -7.3130    6.8159   27.6705 C   0  0  0  0  0  0  0  0  0  0  0  0
   -6.8187    5.8220   28.3689 C   0  0  0  0  0  0  0  0  0  0  0  0
  -11.1991    3.0942   24.6614 C   0  0  0  0  0  0  0  0  0  0  0  0
  -10.9003    2.9319   23.4346 C   0  0  0  0  0  0  0  0  0  0  0  0
   -9.6147    2.9382   22.9129 C   0  0  0  0  0  0  0  0  0  0  0  0
  1  2  1  0
  2  4  1  0
  5  4  1  6
  5  6  1  0
  6  7  1  0
  5 11  1  0
 11 12  2  3
 12 13  1  0
  1  3  2  0
  3 10  1  0
 10  9  2  0
  9  8  1  0
  8  7  2  0
  7  1  1  0
M  END
$$$$
