No_9624-complexes_sdf/6BKW-FPZ/2024-09-17-14-21-01/
     RDKit          3D

 18 19  0  0  0  0  0  0  0  0999 V2000
   -7.9040    3.9820   27.1177 C   0  0  0  0  0  0  0  0  0  0  0  0
   -8.2057    2.8231   26.8733 C   0  0  0  0  0  0  0  0  0  0  0  0
   -7.0130    4.3706   28.1140 C   0  0  0  0  0  0  0  0  0  0  0  0
   -9.3829    2.4374   26.1668 C   0  0  0  0  0  0  0  0  0  0  0  0
  -10.0975    3.4171   25.5988 C   0  0  0  0  0  0  0  0  0  0  0  0
   -9.7085    4.7741   25.7618 C   0  0  0  0  0  0  0  0  0  0  0  0
   -8.7070    5.1118   26.5885 C   0  0  0  0  0  0  0  0  0  0  0  0
   -8.2041    6.4009   27.0111 C   0  0  0  0  0  0  0  0  0  0  0  0
   -6.7454    5.5991   28.6089 C   0  0  0  0  0  0  0  0  0  0  0  0
   -8.8509    7.5720   26.4646 N   0  0  0  0  0  0  0  0  0  0  0  0
   -7.3014    6.5979   28.0209 C   0  0  0  0  0  0  0  0  0  0  0  0
   -7.5491    1.7520   27.4301 F   0  0  0  0  0  0  0  0  0  0  0  0
   -9.6806    1.0242   25.8641 C   0  0  0  0  0  0  0  0  0  0  0  0
  -10.0620    0.6493   24.9055 N   0  0  0  0  0  0  0  0  0  0  0  0
  -10.9666    0.9467   24.2568 C   0  0  0  0  0  0  0  0  0  0  0  0
  -12.1286    0.6768   24.4677 C   0  0  0  0  0  0  0  0  0  0  0  0
   -9.0274   -0.2496   24.1540 C   0  0  0  0  0  0  0  0  0  0  0  0
  -13.2330    1.2325   23.8624 C   0  0  0  0  0  0  0  0  0  0  0  0
  8 10  1  0
  2 12  1  0
  4 13  1  0
 13 14  1  0
 14 15  1  0
 15 16  2  3
 14 17  1  0
 16 18  1  0
  1  3  1  0
  3  9  2  0
  9 11  1  0
 11  8  2  0
  8  7  1  0
  1  2  2  0
  2  4  1  0
  4  5  2  0
  5  6  1  0
  6  7  2  0
  7  1  1  0
M  END
$$$$
