No_9475-complexes_sdf/6BKW-FPZ/2024-09-17-14-21-01/
     RDKit          3D

 12 11  0  0  0  0  0  0  0  0999 V2000
   -7.9040    3.9820   27.1177 C   0  0  0  0  0  0  0  0  0  0  0  0
   -7.8663    4.8694   27.9238 C   0  0  0  0  0  0  0  0  0  0  0  0
   -7.4698    2.6989   27.4277 C   0  0  0  0  0  0  0  0  0  0  0  0
   -7.9683    1.5964   26.8266 C   0  0  0  0  0  0  0  0  0  0  0  0
   -8.9447    1.7923   25.8533 C   0  0  0  0  0  0  0  0  0  0  0  0
   -9.4405    2.9988   25.5757 C   0  0  0  0  0  0  0  0  0  0  0  0
   -8.9424    4.1117   26.2388 C   0  0  1  0  0  0  0  0  0  0  0  0
   -9.4586    5.3306   26.0526 N   0  0  0  0  0  0  0  0  0  0  0  0
   -8.4829    4.6978   25.5023 C   0  0  0  0  0  0  0  0  0  0  0  0
  -10.3971    2.9916   24.4216 C   0  0  0  0  0  0  0  0  0  0  0  0
  -10.4326    2.7253   26.2413 C   0  0  0  0  0  0  0  0  0  0  0  0
   -7.9905    5.4974   24.9510 O   0  0  0  0  0  0  0  0  0  0  0  0
  1  2  2  0
  1  3  1  0
  3  4  1  0
  4  5  1  0
  5  6  1  0
  1  7  1  0
  7  8  1  1
  7  9  1  0
  6 10  1  0
  6 11  1  0
  9 12  2  0
M  END
$$$$
