No_9209-complexes_sdf/6BKW-FPZ/2024-09-17-14-21-01/
     RDKit          3D

 20 22  0  0  0  0  0  0  0  0999 V2000
   -7.9040    3.9820   27.1177 C   0  0  0  0  0  0  0  0  0  0  0  0
   -8.2057    2.8231   26.8733 C   0  0  0  0  0  0  0  0  0  0  0  0
   -8.7695    5.0740   26.7916 C   0  0  0  0  0  0  0  0  0  0  0  0
   -8.4337    6.4678   27.0913 C   0  0  0  0  0  0  0  0  0  0  0  0
   -9.3742    2.4311   26.2346 C   0  0  0  0  0  0  0  0  0  0  0  0
  -10.2395    3.4267   25.8887 C   0  0  0  0  0  0  0  0  0  0  0  0
   -9.9567    4.7548   26.1374 C   0  0  0  0  0  0  0  0  0  0  0  0
   -7.8894    6.9001   28.1379 N   0  0  0  0  0  0  0  0  0  0  0  0
   -8.7733    7.4068   26.1720 N   0  0  0  0  0  0  0  0  0  0  0  0
   -7.2482    1.6795   27.2786 C   0  0  0  0  0  0  0  0  0  0  0  0
   -7.5710    0.3945   27.1907 N   0  0  0  0  0  0  0  0  0  0  0  0
   -6.0610    1.9834   27.7325 N   0  0  0  0  0  0  0  0  0  0  0  0
   -6.4393   -0.2054   27.6472 C   0  0  0  0  0  0  0  0  0  0  0  0
   -5.5201    0.7299   27.9961 C   0  0  0  0  0  0  0  0  0  0  0  0
   -4.1388    0.5876   28.5498 C   0  0  0  0  0  0  0  0  0  0  0  0
   -3.6231   -0.3704   28.8713 C   0  0  0  0  0  0  0  0  0  0  0  0
   -2.3648   -0.4421   29.5782 C   0  0  0  0  0  0  0  0  0  0  0  0
   -1.9246   -1.5859   30.0408 C   0  0  0  0  0  0  0  0  0  0  0  0
   -2.4843   -2.4946   29.9302 C   0  0  0  0  0  0  0  0  0  0  0  0
   -4.0256   -1.7347   29.0185 C   0  0  0  0  0  0  0  0  0  0  0  0
  3  4  1  0
  4  8  2  0
  4  9  1  0
  2 10  1  0
 10 11  1  0
 10 12  2  0
 11 13  1  0
 12 14  1  0
 13 14  2  0
 14 15  1  0
 15 16  1  0
 16 17  2  0
 17 18  1  0
 18 19  2  0
 16 20  1  0
 19 20  1  0
  1  2  2  0
  2  5  1  0
  5  6  2  0
  6  7  1  0
  7  3  2  0
  3  1  1  0
M  END
$$$$
