No_9358-complexes_sdf/6BKW-FPZ/2024-09-17-14-21-01/
     RDKit          3D

 33 37  0  0  0  0  0  0  0  0999 V2000
   -7.9040    3.9820   27.1177 C   0  0  0  0  0  0  0  0  0  0  0  0
   -8.2057    2.8231   26.8733 C   0  0  0  0  0  0  0  0  0  0  0  0
   -7.0130    4.3706   28.1140 C   0  0  0  0  0  0  0  0  0  0  0  0
   -7.4093    1.7370   27.3857 C   0  0  0  0  0  0  0  0  0  0  0  0
   -7.7256    0.3814   27.1250 C   0  0  0  0  0  0  0  0  0  0  0  0
   -9.0139    0.1894   26.6369 C   0  0  0  0  0  0  0  0  0  0  0  0
   -9.8348    1.1679   26.1763 C   0  0  0  0  0  0  0  0  0  0  0  0
   -9.4322    2.4831   26.2877 C   0  0  0  0  0  0  0  0  0  0  0  0
   -8.5704    5.1284   26.4357 C   0  0  0  0  0  0  0  0  0  0  0  0
   -6.8298    5.7852   28.5313 C   0  0  0  0  0  0  0  0  0  0  0  0
   -8.4340    6.4970   26.8045 C   0  0  0  0  0  0  0  0  0  0  0  0
   -7.5208    6.7545   27.8324 C   0  0  0  0  0  0  0  0  0  0  0  0
  -11.1068    0.8294   25.5079 C   0  0  0  0  0  0  0  0  0  0  0  0
  -11.4301   -0.0941   25.1915 C   0  0  0  0  0  0  0  0  0  0  0  0
  -12.7654   -0.3230   24.6075 C   0  0  0  0  0  0  0  0  0  0  0  0
  -13.5081    0.7805   24.3412 C   0  0  0  0  0  0  0  0  0  0  0  0
  -13.0485    2.0216   24.6518 C   0  0  0  0  0  0  0  0  0  0  0  0
  -11.8473    2.1859   25.2903 C   0  0  0  0  0  0  0  0  0  0  0  0
  -13.9099    3.2254   24.3810 C   0  0  1  0  0  0  0  0  0  0  0  0
  -14.2077    4.0592   25.5490 C   0  0  0  0  0  0  0  0  0  0  0  0
  -13.2810    4.1522   23.3494 C   0  0  0  0  0  0  0  0  0  0  0  0
  -15.2661    2.7780   23.7661 C   0  0  0  0  0  0  0  0  0  0  0  0
  -14.6329    5.0574   26.0032 C   0  0  0  0  0  0  0  0  0  0  0  0
  -14.6874    5.6241   27.3196 C   0  0  0  0  0  0  0  0  0  0  0  0
  -13.9994    4.8785   28.3360 C   0  0  0  0  0  0  0  0  0  0  0  0
  -13.3485    3.7209   27.9903 C   0  0  0  0  0  0  0  0  0  0  0  0
  -13.3901    3.2715   26.7504 C   0  0  0  0  0  0  0  0  0  0  0  0
  -15.5171    2.9156   22.5308 C   0  0  1  0  0  0  0  0  0  0  0  0
  -13.4549    4.1804   22.0372 C   0  0  0  0  0  0  0  0  0  0  0  0
  -16.7448    2.4204   21.9888 C   0  0  2  0  0  0  0  0  0  0  0  0
  -14.6723    3.6770   21.6726 C   0  0  0  0  0  0  0  0  0  0  0  0
  -17.6251    1.9792   22.6723 N   0  0  0  0  0  0  0  0  0  0  0  0
  -16.9390    2.3113   20.7368 F   0  0  0  0  0  0  0  0  0  0  0  0
  1  2  1  0
  7 13  1  0
 19 17  1  1
 19 20  1  0
 19 21  1  0
 19 22  1  0
 28 30  1  0
 28 31  1  1
 29 31  1  0
 30 32  1  1
 30 33  1  0
 21 29  1  0
 28 22  1  0
  1  3  2  0
  3 10  1  0
 10 12  2  0
 12 11  1  0
 11  9  2  0
  9  1  1  0
 13 14  2  0
 14 15  1  0
 15 16  2  0
 16 17  1  0
 17 18  2  0
 18 13  1  0
 20 23  2  0
 23 24  1  0
 24 25  2  0
 25 26  1  0
 26 27  2  0
 27 20  1  0
  2  4  2  0
  4  5  1  0
  5  6  2  0
  6  7  1  0
  7  8  2  0
  8  2  1  0
M  END
$$$$
