No_9168-complexes_sdf/6BKW-FPZ/2024-09-17-14-21-01/
     RDKit          3D

 25 28  0  0  0  0  0  0  0  0999 V2000
   -7.7129    4.2099   27.0854 C   0  0  0  0  0  0  0  0  0  0  0  0
   -7.7814    5.1722   27.8972 C   0  0  0  0  0  0  0  0  0  0  0  0
   -8.8998    3.8713   26.3707 C   0  0  0  0  0  0  0  0  0  0  0  0
   -8.9563    2.6796   25.5490 C   0  0  0  0  0  0  0  0  0  0  0  0
   -8.8131    6.0996   27.7331 C   0  0  0  0  0  0  0  0  0  0  0  0
   -9.8365    4.8420   26.3071 C   0  0  0  0  0  0  0  0  0  0  0  0
   -9.7853    5.9567   26.9892 C   0  0  0  0  0  0  0  0  0  0  0  0
   -9.7274    1.7631   26.1206 C   0  0  0  0  0  0  0  0  0  0  0  0
   -9.4822    0.5075   25.8265 C   0  0  0  0  0  0  0  0  0  0  0  0
  -10.1412   -0.5488   26.5208 C   0  0  0  0  0  0  0  0  0  0  0  0
  -11.1007   -0.1956   27.5302 C   0  0  0  0  0  0  0  0  0  0  0  0
  -11.2832    1.1129   27.8737 C   0  0  0  0  0  0  0  0  0  0  0  0
  -10.5689    2.1159   27.2633 C   0  0  0  0  0  0  0  0  0  0  0  0
   -8.5715    0.0268   24.8047 C   0  0  0  0  0  0  0  0  0  0  0  0
   -7.2717   -0.3362   25.1256 C   0  0  0  0  0  0  0  0  0  0  0  0
   -8.9574    0.1620   23.4512 C   0  0  0  0  0  0  0  0  0  0  0  0
   -6.5090   -1.1025   24.2196 C   0  0  0  0  0  0  0  0  0  0  0  0
   -6.8411   -0.9724   22.8046 C   0  0  0  0  0  0  0  0  0  0  0  0
   -8.0697   -0.4085   22.4699 C   0  0  0  0  0  0  0  0  0  0  0  0
  -10.1608    0.7753   23.0229 C   0  0  0  0  0  0  0  0  0  0  0  0
  -11.2262    0.7741   23.4996 C   0  0  0  0  0  0  0  0  0  0  0  0
  -12.3426    1.4722   23.0863 C   0  0  0  0  0  0  0  0  0  0  0  0
  -12.1977    2.2309   21.9860 C   0  0  0  0  0  0  0  0  0  0  0  0
  -10.9752    2.3074   21.2949 C   0  0  0  0  0  0  0  0  0  0  0  0
   -9.8932    1.6221   21.7783 C   0  0  0  0  0  0  0  0  0  0  0  0
  3  4  1  0
  4  8  1  0
  9 14  1  0
 16 20  1  0
 20 21  2  0
 21 22  1  0
 22 23  2  0
 23 24  1  0
 24 25  2  0
 25 20  1  0
 14 15  2  0
 15 17  1  0
 17 18  2  0
 18 19  1  0
 19 16  2  0
 16 14  1  0
  8  9  1  0
  9 10  2  0
 10 11  1  0
 11 12  2  0
 12 13  1  0
 13  8  2  0
  1  2  2  0
  2  5  1  0
  5  7  2  0
  7  6  1  0
  6  3  2  0
  3  1  1  0
M  END
$$$$
