No_919-complexes_sdf/6BKW-FPZ/2024-09-17-14-21-01/
     RDKit          3D

 40 43  0  0  0  0  0  0  0  0999 V2000
   -7.9040    3.9820   27.1177 C   0  0  0  0  0  0  0  0  0  0  0  0
   -8.2057    2.8231   26.8733 C   0  0  0  0  0  0  0  0  0  0  0  0
   -8.7695    5.0740   26.7916 C   0  0  0  0  0  0  0  0  0  0  0  0
   -9.9618    4.7598   26.1630 C   0  0  0  0  0  0  0  0  0  0  0  0
   -9.4200    2.4524   26.2850 C   0  0  0  0  0  0  0  0  0  0  0  0
  -10.2590    3.4815   25.9250 C   0  0  0  0  0  0  0  0  0  0  0  0
   -8.3840    6.4693   27.0829 C   0  0  0  0  0  0  0  0  0  0  0  0
   -8.3637    6.7809   28.2310 F   0  0  0  0  0  0  0  0  0  0  0  0
   -9.3076    7.3337   26.4322 F   0  0  0  0  0  0  0  0  0  0  0  0
   -7.1477    6.7467   26.5862 F   0  0  0  0  0  0  0  0  0  0  0  0
   -7.2850    1.6786   27.3225 C   0  0  0  0  0  0  0  0  0  0  0  0
   -6.5357    0.9782   26.6415 C   0  0  0  0  0  0  0  0  0  0  0  0
   -5.6944   -0.0309   27.3209 C   0  0  0  0  0  0  0  0  0  0  0  0
   -5.2549   -1.0378   26.9679 C   0  0  0  0  0  0  0  0  0  0  0  0
   -4.4975   -1.9341   27.7504 C   0  0  0  0  0  0  0  0  0  0  0  0
   -4.1229   -1.6062   29.0633 C   0  0  0  0  0  0  0  0  0  0  0  0
   -4.6416   -0.3883   29.5762 C   0  0  0  0  0  0  0  0  0  0  0  0
   -5.3308    0.4081   28.8098 C   0  0  0  0  0  0  0  0  0  0  0  0
   -4.2584    0.0327   30.9356 C   0  0  0  0  0  0  0  0  0  0  0  0
   -2.8922   -0.1461   31.3247 C   0  0  0  0  0  0  0  0  0  0  0  0
   -2.6153    0.1433   32.7317 C   0  0  0  0  0  0  0  0  0  0  0  0
   -2.2660   -0.9499   33.5514 C   0  0  1  0  0  0  0  0  0  0  0  0
   -2.6603   -0.7275   34.7878 C   0  0  0  0  0  0  0  0  0  0  0  0
   -2.0983   -0.2981   35.7345 C   0  0  0  0  0  0  0  0  0  0  0  0
   -2.6004   -0.0266   37.1277 C   0  0  0  0  0  0  0  0  0  0  0  0
   -3.9920   -0.2375   37.2879 C   0  0  0  0  0  0  0  0  0  0  0  0
   -4.7206   -0.7404   36.2229 C   0  0  0  0  0  0  0  0  0  0  0  0
   -4.1237   -0.9585   35.0173 C   0  0  0  0  0  0  0  0  0  0  0  0
   -4.6384   -0.0277   38.6115 C   0  0  0  0  0  0  0  0  0  0  0  0
   -4.8731    1.2219   38.9869 C   0  0  0  0  0  0  0  0  0  0  0  0
   -5.7780    1.5821   40.0631 C   0  0  0  0  0  0  0  0  0  0  0  0
   -6.3552    0.5115   40.7565 C   0  0  0  0  0  0  0  0  0  0  0  0
   -6.1154   -0.7694   40.3402 C   0  0  0  0  0  0  0  0  0  0  0  0
   -5.3136   -1.0608   39.2493 C   0  0  0  0  0  0  0  0  0  0  0  0
   -2.6419   -2.2475   33.0118 N   0  0  0  0  0  0  0  0  0  0  0  0
   -1.7401   -3.0954   32.4311 C   0  0  0  0  0  0  0  0  0  0  0  0
   -2.2975   -4.3097   31.9620 C   0  0  0  0  0  0  0  0  0  0  0  0
   -0.3881   -2.7909   32.2513 C   0  0  0  0  0  0  0  0  0  0  0  0
    0.4467   -3.5858   31.4748 C   0  0  0  0  0  0  0  0  0  0  0  0
   -1.4338   -5.1458   31.2289 C   0  0  0  0  0  0  0  0  0  0  0  0
  3  7  1  0
  7  8  1  0
  7  9  1  0
  7 10  1  0
  2 11  1  0
 11 12  2  3
 12 13  1  0
 17 19  1  0
 19 20  2  3
 20 21  1  0
 22 21  1  6
 22 23  1  0
 26 29  1  0
 22 35  1  0
 35 36  1  0
 36 37  2  3
 36 38  1  0
 38 39  2  0
 37 40  1  0
 23 24  2  0
 24 25  1  0
 25 26  2  0
 26 27  1  0
 27 28  2  0
 28 23  1  0
 13 14  2  0
 14 15  1  0
 15 16  2  0
 16 17  1  0
 17 18  2  0
 18 13  1  0
  1  2  2  0
  2  5  1  0
  5  6  2  0
  6  4  1  0
  4  3  2  0
  3  1  1  0
 29 30  2  0
 30 31  1  0
 31 32  2  0
 32 33  1  0
 33 34  2  0
 34 29  1  0
M  END
$$$$
