No_9125-complexes_sdf/6BKW-FPZ/2024-09-17-14-21-01/
     RDKit          3D

 15 16  0  0  0  0  0  0  0  0999 V2000
   -7.9040    3.9820   27.1177 C   0  0  0  0  0  0  0  0  0  0  0  0
   -7.8663    4.8694   27.9238 C   0  0  0  0  0  0  0  0  0  0  0  0
   -9.0501    3.8017   26.2617 C   0  0  0  0  0  0  0  0  0  0  0  0
  -10.0189    4.7608   26.3707 C   0  0  0  0  0  0  0  0  0  0  0  0
   -8.6770    5.9780   27.9222 C   0  0  0  0  0  0  0  0  0  0  0  0
   -9.8040    5.8752   27.0958 C   0  0  0  0  0  0  0  0  0  0  0  0
   -9.1484    2.6214   25.4213 C   0  0  0  0  0  0  0  0  0  0  0  0
   -8.6431    1.4978   25.8150 N   0  0  0  0  0  0  0  0  0  0  0  0
   -8.4677    0.4261   25.0363 C   0  0  0  0  0  0  0  0  0  0  0  0
   -9.6944    2.7612   24.2984 O   0  0  0  0  0  0  0  0  0  0  0  0
   -7.4784   -0.4638   25.4457 C   0  0  0  0  0  0  0  0  0  0  0  0
   -7.0272   -1.4637   24.6376 C   0  0  0  0  0  0  0  0  0  0  0  0
   -7.6115   -1.5968   23.3138 C   0  0  0  0  0  0  0  0  0  0  0  0
   -8.5675   -0.6057   22.9204 C   0  0  0  0  0  0  0  0  0  0  0  0
   -8.8949    0.4267   23.7374 C   0  0  0  0  0  0  0  0  0  0  0  0
  3  7  1  0
  7  8  1  0
  8  9  1  0
  7 10  2  0
  1  2  2  0
  2  5  1  0
  5  6  2  0
  6  4  1  0
  4  3  2  0
  3  1  1  0
  9 11  2  0
 11 12  1  0
 12 13  2  0
 13 14  1  0
 14 15  2  0
 15  9  1  0
M  END
$$$$
