No_903-complexes_sdf/6BKW-FPZ/2024-09-17-14-21-01/
     RDKit          3D

 40 43  0  0  0  0  0  0  0  0999 V2000
   -7.9040    3.9820   27.1177 C   0  0  0  0  0  0  0  0  0  0  0  0
   -9.0711    4.3164   27.0630 C   0  0  0  0  0  0  0  0  0  0  0  0
   -9.5294    5.4517   27.7215 C   0  0  0  0  0  0  0  0  0  0  0  0
   -7.4336    2.7132   26.5681 C   0  0  0  0  0  0  0  0  0  0  0  0
   -8.3353    1.8569   26.0442 C   0  0  0  0  0  0  0  0  0  0  0  0
   -9.6477    2.2853   25.9146 C   0  0  0  0  0  0  0  0  0  0  0  0
  -10.0346    3.4497   26.4483 C   0  0  0  0  0  0  0  0  0  0  0  0
   -7.8608    0.5626   25.5840 C   0  0  0  0  0  0  0  0  0  0  0  0
   -8.2927    0.2179   24.4935 O   0  0  0  0  0  0  0  0  0  0  0  0
   -6.7288   -0.0025   26.2089 N   0  0  0  0  0  0  0  0  0  0  0  0
   -6.2988    0.2837   27.5360 C   0  0  0  0  0  0  0  0  0  0  0  0
   -5.0739   -0.2970   27.8380 C   0  0  0  0  0  0  0  0  0  0  0  0
   -4.4860    0.3075   29.0334 C   0  0  0  0  0  0  0  0  0  0  0  0
   -3.4864   -0.3840   29.7218 C   0  0  0  0  0  0  0  0  0  0  0  0
   -2.8205   -1.3990   29.1093 C   0  0  0  0  0  0  0  0  0  0  0  0
   -3.3788   -1.9070   27.9577 C   0  0  0  0  0  0  0  0  0  0  0  0
   -4.4916   -1.3947   27.3817 C   0  0  0  0  0  0  0  0  0  0  0  0
   -6.6334    4.8074   28.0901 Cl  0  0  0  0  0  0  0  0  0  0  0  0
   -2.9550    0.2380   30.8525 O   0  0  0  0  0  0  0  0  0  0  0  0
   -2.9774   -0.4271   31.9369 C   0  0  0  0  0  0  0  0  0  0  0  0
   -1.9655   -0.2295   32.7713 C   0  0  0  0  0  0  0  0  0  0  0  0
   -2.0238   -0.8569   34.1250 C   0  0  0  0  0  0  0  0  0  0  0  0
   -3.1183   -1.6622   34.4173 C   0  0  0  0  0  0  0  0  0  0  0  0
   -4.0572   -1.2416   32.3742 C   0  0  0  0  0  0  0  0  0  0  0  0
   -4.1459   -1.8119   33.5525 C   0  0  0  0  0  0  0  0  0  0  0  0
   -0.8935   -0.6481   35.0771 C   0  0  0  0  0  0  0  0  0  0  0  0
   -1.1181    0.1574   35.9824 O   0  0  0  0  0  0  0  0  0  0  0  0
    0.3265   -0.8462   34.6477 O   0  0  0  0  0  0  0  0  0  0  0  0
   -5.1173   -1.3369   31.4733 F   0  0  0  0  0  0  0  0  0  0  0  0
   -5.2115   -2.4836   33.9077 F   0  0  0  0  0  0  0  0  0  0  0  0
    1.1835   -1.3198   35.5964 C   0  0  0  0  0  0  0  0  0  0  0  0
    2.0722   -0.4271   36.0620 C   0  0  0  0  0  0  0  0  0  0  0  0
    2.5676   -0.5784   37.0141 O   0  0  0  0  0  0  0  0  0  0  0  0
    2.0201    0.9167   35.5599 N   0  0  0  0  0  0  0  0  0  0  0  0
    2.9305    1.7579   35.6148 C   0  0  0  0  0  0  0  0  0  0  0  0
    2.9622    2.6283   36.3644 C   0  0  0  0  0  0  0  0  0  0  0  0
    3.3290    3.7564   36.3623 C   0  0  0  0  0  0  0  0  0  0  0  0
    4.1951    4.1634   35.2147 C   0  0  0  0  0  0  0  0  0  0  0  0
    3.5882    1.9194   34.2826 C   0  0  0  0  0  0  0  0  0  0  0  0
    4.2625    3.1986   34.1609 C   0  0  0  0  0  0  0  0  0  0  0  0
  5  8  1  0
  8  9  2  0
  8 10  1  0
 10 11  1  0
  1 18  1  0
 14 19  1  0
 19 20  1  0
 22 26  1  0
 26 27  2  0
 26 28  1  0
 24 29  1  0
 25 30  1  0
 28 31  1  0
 31 32  1  0
 32 33  2  0
 32 34  1  0
 34 35  1  0
 11 12  1  0
  3  2  1  0
 12 13  2  0
 13 14  1  0
 14 15  2  0
 15 16  1  0
 16 17  2  0
 17 12  1  0
  1  2  2  0
  2  7  1  0
  7  6  2  0
  6  5  1  0
  5  4  2  0
  4  1  1  0
 20 21  2  0
 21 22  1  0
 22 23  2  0
 23 25  1  0
 25 24  2  0
 24 20  1  0
 35 36  2  0
 36 37  1  0
 37 38  2  0
 38 40  1  0
 40 39  2  0
 39 35  1  0
M  END
$$$$
