No_9455-complexes_sdf/6BKW-FPZ/2024-09-17-14-21-01/
     RDKit          3D

 27 30  0  0  0  0  0  0  0  0999 V2000
   -7.7129    4.2099   27.0854 C   0  0  0  0  0  0  0  0  0  0  0  0
   -8.9133    4.4736   27.0998 C   0  0  0  0  0  0  0  0  0  0  0  0
   -9.4643    5.5426   27.7628 C   0  0  0  0  0  0  0  0  0  0  0  0
   -7.2009    2.9448   26.6134 C   0  0  0  0  0  0  0  0  0  0  0  0
   -8.1365    1.9533   26.2981 C   0  0  1  0  0  0  0  0  0  0  0  0
   -9.4501    2.2651   26.2497 C   0  0  0  0  0  0  0  0  0  0  0  0
   -9.8615    3.4702   26.6763 C   0  0  2  0  0  0  0  0  0  0  0  0
   -7.5839    0.6450   25.9087 C   0  0  0  0  0  0  0  0  0  0  0  0
   -8.1065   -0.4001   26.6065 C   0  0  0  0  0  0  0  0  0  0  0  0
   -7.4501   -1.4871   26.5750 C   0  0  0  0  0  0  0  0  0  0  0  0
   -6.3187   -1.6657   25.7843 C   0  0  0  0  0  0  0  0  0  0  0  0
   -5.8083   -0.6104   25.0979 C   0  0  0  0  0  0  0  0  0  0  0  0
   -6.1973    0.6241   25.5562 C   0  0  0  0  0  0  0  0  0  0  0  0
  -11.3041    3.7631   26.5823 C   0  0  0  0  0  0  0  0  0  0  0  0
  -11.9377    3.8577   27.8433 C   0  0  0  0  0  0  0  0  0  0  0  0
  -12.0559    3.9146   25.4684 C   0  0  0  0  0  0  0  0  0  0  0  0
  -12.8124    3.2075   28.1494 C   0  0  0  0  0  0  0  0  0  0  0  0
  -13.8546    3.0690   27.0974 C   0  0  0  0  0  0  0  0  0  0  0  0
  -13.3675    3.2495   25.7530 C   0  0  0  0  0  0  0  0  0  0  0  0
  -10.2979    1.4001   25.8603 O   0  0  0  0  0  0  0  0  0  0  0  0
   -8.4006    6.6815   27.8434 C   0  0  0  0  0  0  0  0  0  0  0  0
   -8.1005   -2.7738   27.1590 C   0  0  0  0  0  0  0  0  0  0  0  0
   -7.5117   -3.6148   27.6732 C   0  0  0  0  0  0  0  0  0  0  0  0
   -9.5405   -2.8545   27.0463 C   0  0  0  0  0  0  0  0  0  0  0  0
   -8.0400   -4.7912   28.2833 C   0  0  0  0  0  0  0  0  0  0  0  0
  -10.1727   -3.9426   27.6015 C   0  0  0  0  0  0  0  0  0  0  0  0
   -9.4304   -4.8818   28.2268 C   0  0  0  0  0  0  0  0  0  0  0  0
  1  2  1  0
  2  3  2  3
  1  4  1  0
  4  5  1  0
  5  6  1  0
  2  7  1  0
  6  7  1  0
  5  8  1  6
  7 14  1  6
  6 20  2  0
  3 21  1  0
 10 22  1  0
 22 23  2  0
 23 25  1  0
 25 27  2  0
 27 26  1  0
 26 24  2  0
 24 22  1  0
 14 15  2  0
 15 17  1  0
 17 18  2  0
 18 19  1  0
 19 16  2  0
 16 14  1  0
  8  9  2  0
  9 10  1  0
 10 11  2  0
 11 12  1  0
 12 13  2  0
 13  8  1  0
M  END
$$$$
