No_9813-complexes_sdf/6BKW-FPZ/2024-09-17-14-21-01/
     RDKit          3D

 14 15  0  0  0  0  0  0  0  0999 V2000
   -7.9040    3.9820   27.1177 C   0  0  0  0  0  0  0  0  0  0  0  0
   -8.2057    2.8231   26.8733 C   0  0  0  0  0  0  0  0  0  0  0  0
   -7.0130    4.3706   28.1140 C   0  0  0  0  0  0  0  0  0  0  0  0
   -9.3829    2.4374   26.1668 C   0  0  0  0  0  0  0  0  0  0  0  0
  -10.0975    3.4171   25.5988 C   0  0  0  0  0  0  0  0  0  0  0  0
   -9.7335    4.7745   25.7705 C   0  0  0  0  0  0  0  0  0  0  0  0
   -8.7317    5.1107   26.5933 C   0  0  0  0  0  0  0  0  0  0  0  0
   -8.3983    6.4679   26.8933 C   0  0  0  0  0  0  0  0  0  0  0  0
   -7.3346    6.7850   27.7126 C   0  0  0  0  0  0  0  0  0  0  0  0
   -6.7763    5.7820   28.3880 C   0  0  0  0  0  0  0  0  0  0  0  0
   -7.4283    1.6440   27.4607 C   0  0  0  0  0  0  0  0  0  0  0  0
   -6.0458    1.7685   27.6513 C   0  0  0  0  0  0  0  0  0  0  0  0
   -5.3200    0.5910   28.0007 C   0  0  0  0  0  0  0  0  0  0  0  0
   -3.9220    0.6694   28.3314 C   0  0  0  0  0  0  0  0  0  0  0  0
  2 11  1  0
 11 12  1  0
 12 13  2  3
 13 14  1  0
  1  3  1  0
  3 10  2  0
 10  9  1  0
  9  8  2  0
  8  7  1  0
  1  2  2  0
  2  4  1  0
  4  5  2  0
  5  6  1  0
  6  7  2  0
  7  1  1  0
M  END
$$$$
