No_9198-complexes_sdf/6BKW-FPZ/2024-09-17-14-21-01/
     RDKit          3D

 11 11  0  0  0  0  0  0  0  0999 V2000
   -7.9040    3.9820   27.1177 C   0  0  0  0  0  0  0  0  0  0  0  0
   -8.2057    2.8231   26.8733 C   0  0  0  0  0  0  0  0  0  0  0  0
   -9.2962    2.4021   26.1155 C   0  0  0  0  0  0  0  0  0  0  0  0
   -6.8682    4.5169   28.0704 C   0  0  2  0  0  0  0  0  0  0  0  0
  -10.0578    3.3688   25.5520 C   0  0  0  0  0  0  0  0  0  0  0  0
   -9.6997    4.7480   25.6981 C   0  0  0  0  0  0  0  0  0  0  0  0
   -8.6783    5.1111   26.5262 C   0  0  0  0  0  0  0  0  0  0  0  0
  -11.0638    3.0729   24.7197 F   0  0  0  0  0  0  0  0  0  0  0  0
   -7.0311    5.6723   28.6590 N   0  0  0  0  0  0  0  0  0  0  0  0
   -5.7647    4.0006   27.7608 F   0  0  0  0  0  0  0  0  0  0  0  0
   -9.6841    0.6326   25.7277 Br  0  0  0  0  0  0  0  0  0  0  0  0
  1  4  1  0
  5  8  1  0
  4  9  1  6
  4 10  1  0
  3 11  1  0
  1  2  2  0
  2  3  1  0
  3  5  2  0
  5  6  1  0
  6  7  2  0
  7  1  1  0
M  END
$$$$
