No_981-complexes_sdf/6BKW-FPZ/2024-09-17-14-21-01/
     RDKit          3D

 15 15  0  0  0  0  0  0  0  0999 V2000
   -7.9040    3.9820   27.1177 C   0  0  0  0  0  0  0  0  0  0  0  0
   -7.8663    4.8694   27.9238 C   0  0  0  0  0  0  0  0  0  0  0  0
   -9.0491    3.8523   26.2542 C   0  0  0  0  0  0  0  0  0  0  0  0
   -8.7661    5.9491   27.9690 C   0  0  0  0  0  0  0  0  0  0  0  0
   -9.9295    4.8502   26.2323 C   0  0  0  0  0  0  0  0  0  0  0  0
   -9.8077    5.9288   27.0933 C   0  0  0  0  0  0  0  0  0  0  0  0
   -9.0726    2.7074   25.3087 C   0  0  0  0  0  0  0  0  0  0  0  0
   -9.9621    1.9623   25.4415 N   0  0  0  0  0  0  0  0  0  0  0  0
  -10.0591    0.8290   24.8895 C   0  0  0  0  0  0  0  0  0  0  0  0
   -9.1797    0.4141   24.1222 C   0  0  0  0  0  0  0  0  0  0  0  0
  -11.0506   -0.0634   25.0771 O   0  0  0  0  0  0  0  0  0  0  0  0
   -8.7689   -0.4093   23.5366 C   0  0  0  0  0  0  0  0  0  0  0  0
   -7.6761   -0.5505   22.6099 C   0  0  0  0  0  0  0  0  0  0  0  0
   -6.6545   -1.3741   22.5974 C   0  0  0  0  0  0  0  0  0  0  0  0
   -5.7136   -1.4967   21.4899 C   0  0  0  0  0  0  0  0  0  0  0  0
  3  7  1  0
  7  8  1  0
  8  9  1  0
  9 10  1  0
  9 11  2  0
 10 12  3  0
 12 13  1  0
 13 14  2  3
 14 15  1  0
  1  2  2  0
  2  4  1  0
  4  6  2  0
  6  5  1  0
  5  3  2  0
  3  1  1  0
M  END
$$$$
