No_9919-complexes_sdf/6BKW-FPZ/2024-09-17-14-21-01/
     RDKit          3D

 26 29  0  0  0  0  0  0  0  0999 V2000
   -7.9040    3.9820   27.1177 C   0  0  0  0  0  0  0  0  0  0  0  0
   -8.2057    2.8231   26.8733 C   0  0  0  0  0  0  0  0  0  0  0  0
   -8.7695    5.0740   26.7916 C   0  0  0  0  0  0  0  0  0  0  0  0
   -8.4785    6.4289   27.2922 C   0  0  0  0  0  0  0  0  0  0  0  0
   -9.3718    2.4332   26.2309 C   0  0  0  0  0  0  0  0  0  0  0  0
  -10.2249    3.4396   25.8983 C   0  0  0  0  0  0  0  0  0  0  0  0
   -9.9806    4.7576   26.1920 C   0  0  0  0  0  0  0  0  0  0  0  0
   -7.2189    1.6718   27.2523 C   0  0  0  0  0  0  0  0  0  0  0  0
   -5.9865    2.0452   27.8522 C   0  0  0  0  0  0  0  0  0  0  0  0
   -5.0834    0.9801   28.2123 C   0  0  0  0  0  0  0  0  0  0  0  0
   -5.4586   -0.3074   28.1163 C   0  0  0  0  0  0  0  0  0  0  0  0
   -7.4768    0.3340   27.2325 C   0  0  0  0  0  0  0  0  0  0  0  0
   -6.6773   -0.6122   27.6692 C   0  0  0  0  0  0  0  0  0  0  0  0
   -4.5089   -1.3426   28.6698 C   0  0  2  0  0  0  0  0  0  0  0  0
   -4.3401   -2.3148   28.2208 C   0  0  0  0  0  0  0  0  0  0  0  0
   -3.8837   -0.9267   29.9794 C   0  0  0  0  0  0  0  0  0  0  0  0
   -4.3438   -1.4726   31.0931 C   0  0  0  0  0  0  0  0  0  0  0  0
   -4.1814   -0.7700   32.2172 C   0  0  0  0  0  0  0  0  0  0  0  0
   -3.1615    0.2525   32.3645 C   0  0  0  0  0  0  0  0  0  0  0  0
   -2.6144    0.6785   31.1725 N   0  0  0  0  0  0  0  0  0  0  0  0
   -3.0131    0.2007   30.0088 C   0  0  0  0  0  0  0  0  0  0  0  0
   -4.0571   -2.9045   27.3610 C   0  0  0  0  0  0  0  0  0  0  0  0
   -4.1204   -4.2528   27.0914 C   0  0  0  0  0  0  0  0  0  0  0  0
   -4.7158   -3.5792   29.1950 C   0  0  0  0  0  0  0  0  0  0  0  0
   -4.6700   -4.7586   28.7537 C   0  0  0  0  0  0  0  0  0  0  0  0
   -5.1076   -2.6445   31.1284 C   0  0  0  0  0  0  0  0  0  0  0  0
  2  8  1  0
 11 14  1  0
 14 15  1  1
 14 16  1  0
 15 22  1  0
 22 23  2  0
 15 24  1  0
 23 25  1  0
 24 25  2  0
 17 26  1  0
  4  3  1  0
 16 17  2  0
 17 18  1  0
 18 19  2  0
 19 20  1  0
 20 21  2  0
 21 16  1  0
  1  2  2  0
  2  5  1  0
  5  6  2  0
  6  7  1  0
  7  3  2  0
  3  1  1  0
  8  9  2  0
  9 10  1  0
 10 11  2  0
 11 13  1  0
 13 12  2  0
 12  8  1  0
M  END
$$$$
