No_9467-complexes_sdf/6BKW-FPZ/2024-09-17-14-21-01/
     RDKit          3D

 22 25  0  0  0  0  0  0  0  0999 V2000
   -7.2496    3.8871   27.4508 C   0  0  0  0  0  0  0  0  0  0  0  0
   -8.5096    4.0291   27.2770 C   0  0  2  0  0  0  0  0  0  0  0  0
   -9.2677    5.1714   27.5773 C   0  0  0  0  0  0  0  0  0  0  0  0
   -9.2765    2.8248   26.8371 C   0  0  0  0  0  0  0  0  0  0  0  0
  -10.4623    3.0171   26.3236 C   0  0  0  0  0  0  0  0  0  0  0  0
  -10.8972    2.6250   25.3350 C   0  0  0  0  0  0  0  0  0  0  0  0
  -12.0400    3.0799   24.6370 C   0  0  1  0  0  0  0  0  0  0  0  0
  -10.5991    5.3296   27.2028 C   0  0  0  0  0  0  0  0  0  0  0  0
  -11.1904    4.3293   26.5205 C   0  0  1  0  0  0  0  0  0  0  0  0
   -6.5387    2.7054   27.4693 N   0  0  0  0  0  0  0  0  0  0  0  0
  -12.0422    4.5934   25.5119 N   0  0  0  0  0  0  0  0  0  0  0  0
   -7.0384    1.5495   27.1529 C   0  0  0  0  0  0  0  0  0  0  0  0
   -8.4854    1.6282   26.6823 C   0  0  0  0  0  0  0  0  0  0  0  0
   -6.4911    4.9077   28.0258 O   0  0  0  0  0  0  0  0  0  0  0  0
  -10.3580    1.3441   24.5451 C   0  0  0  0  0  0  0  0  0  0  0  0
   -9.1610    0.8140   25.3907 C   0  0  0  0  0  0  0  0  0  0  0  0
  -12.9211    2.9978   23.6709 C   0  0  0  0  0  0  0  0  0  0  0  0
   -8.5055   -0.4221   25.0794 C   0  0  0  0  0  0  0  0  0  0  0  0
   -8.4816   -1.3190   25.7580 O   0  0  0  0  0  0  0  0  0  0  0  0
   -7.7003   -0.2460   24.0123 O   0  0  0  0  0  0  0  0  0  0  0  0
  -13.8881    3.6581   23.5010 C   0  0  0  0  0  0  0  0  0  0  0  0
  -14.8496    3.4456   22.4130 C   0  0  0  0  0  0  0  0  0  0  0  0
  1  2  1  0
  2  3  1  1
  2  4  1  0
  3  8  1  0
  5  9  1  0
  9  8  1  6
  1 10  1  0
  7 11  1  6
  9 11  1  0
 10 12  1  0
 12 13  1  0
  1 14  2  0
  7 17  1  0
 16 18  1  0
 18 19  2  0
 18 20  1  0
 17 21  2  3
 21 22  1  0
  7  6  1  0
  4  5  2  0
  5  6  1  0
  6 15  2  0
 15 16  1  0
 16 13  2  0
 13  4  1  0
M  END
$$$$
