No_9199-complexes_sdf/6BKW-FPZ/2024-09-17-14-21-01/
     RDKit          3D

 18 19  0  0  0  0  0  0  0  0999 V2000
   -7.7129    4.2099   27.0854 C   0  0  0  0  0  0  0  0  0  0  0  0
   -8.2112    3.0637   26.9225 C   0  0  0  0  0  0  0  0  0  0  0  0
   -9.4446    2.8304   26.1868 C   0  0  0  0  0  0  0  0  0  0  0  0
   -8.4697    5.3956   26.7238 C   0  0  0  0  0  0  0  0  0  0  0  0
   -8.0091    6.7588   26.9904 C   0  0  0  0  0  0  0  0  0  0  0  0
  -10.1208    3.9213   25.7408 C   0  0  0  0  0  0  0  0  0  0  0  0
   -9.5939    5.2026   25.9665 C   0  0  0  0  0  0  0  0  0  0  0  0
   -8.6060    7.8403   26.5809 N   0  0  0  0  0  0  0  0  0  0  0  0
   -6.9928    6.7841   27.8675 O   0  0  0  0  0  0  0  0  0  0  0  0
   -7.4701    1.8110   27.3734 C   0  0  0  0  0  0  0  0  0  0  0  0
   -6.1160    1.9094   27.7472 C   0  0  0  0  0  0  0  0  0  0  0  0
   -5.3989    0.7669   28.1913 C   0  0  0  0  0  0  0  0  0  0  0  0
   -6.0496   -0.4521   28.1384 C   0  0  0  0  0  0  0  0  0  0  0  0
   -7.9825    0.5223   27.3533 C   0  0  0  0  0  0  0  0  0  0  0  0
   -7.3586   -0.5385   27.7863 C   0  0  0  0  0  0  0  0  0  0  0  0
   -3.9685    0.9450   28.6087 C   0  0  0  0  0  0  0  0  0  0  0  0
   -3.2176    1.4136   27.9426 O   0  0  0  0  0  0  0  0  0  0  0  0
   -3.5961    0.2139   29.7562 O   0  0  0  0  0  0  0  0  0  0  0  0
  4  5  1  0
  5  8  1  0
  5  9  2  0
  2 10  1  0
 12 16  1  0
 16 17  2  0
 16 18  1  0
  1  2  2  0
  2  3  1  0
  3  6  2  0
  6  7  1  0
  7  4  2  0
  4  1  1  0
 10 11  2  0
 11 12  1  0
 12 13  2  0
 13 15  1  0
 15 14  2  0
 14 10  1  0
M  END
$$$$
