No_9111-complexes_sdf/6BKW-FPZ/2024-09-17-14-21-01/
     RDKit          3D

 13 14  0  0  0  0  0  0  0  0999 V2000
   -7.2496    3.8871   27.4508 C   0  0  0  0  0  0  0  0  0  0  0  0
   -7.6161    2.7143   27.1523 C   0  0  0  0  0  0  0  0  0  0  0  0
   -8.8302    2.4659   26.5056 C   0  0  0  0  0  0  0  0  0  0  0  0
   -8.1584    5.0090   27.3234 C   0  0  0  0  0  0  0  0  0  0  0  0
   -9.3788    4.7965   26.7695 C   0  0  0  0  0  0  0  0  0  0  0  0
   -9.7028    3.5649   26.3276 C   0  0  0  0  0  0  0  0  0  0  0  0
   -6.5995    1.7837   27.4559 N   0  0  0  0  0  0  0  0  0  0  0  0
   -6.8297    0.4423   27.6285 C   0  0  0  0  0  0  0  0  0  0  0  0
   -5.9254   -0.3671   27.3280 C   0  0  0  0  0  0  0  0  0  0  0  0
   -5.3235    2.0423   27.7095 C   0  0  0  0  0  0  0  0  0  0  0  0
   -4.3499    1.1728   27.8631 N   0  0  0  0  0  0  0  0  0  0  0  0
   -4.6010   -0.0565   27.7876 C   0  0  0  0  0  0  0  0  0  0  0  0
   -7.7277    6.3844   27.7635 C   0  0  0  0  0  0  0  0  0  0  0  0
  2  7  1  0
  7  8  1  0
  7 10  1  0
 10 11  1  0
  9 12  1  0
  4 13  1  0
  8  9  1  0
 12 11  1  0
  1  2  2  0
  2  3  1  0
  3  6  2  0
  6  5  1  0
  5  4  2  0
  4  1  1  0
M  END
$$$$
