No_9543-complexes_sdf/6BKW-FPZ/2024-09-17-14-21-01/
     RDKit          3D

 17 19  0  0  0  0  0  0  0  0999 V2000
   -7.7129    4.2099   27.0854 C   0  0  0  0  0  0  0  0  0  0  0  0
   -8.2112    3.0637   26.9225 C   0  0  0  0  0  0  0  0  0  0  0  0
   -9.5629    2.7997   27.0678 C   0  0  0  0  0  0  0  0  0  0  0  0
   -8.5911    5.3704   27.2036 C   0  0  0  0  0  0  0  0  0  0  0  0
   -9.9544    5.1489   27.1401 C   0  0  0  0  0  0  0  0  0  0  0  0
  -10.4577    3.9280   27.0818 C   0  0  0  0  0  0  0  0  0  0  0  0
   -8.0077    6.7251   27.2943 C   0  0  0  0  0  0  0  0  0  0  0  0
  -10.0661    1.3994   26.9567 C   0  0  0  0  0  0  0  0  0  0  0  0
   -9.1571    0.4433   27.1436 C   0  0  0  0  0  0  0  0  0  0  0  0
   -7.7571    0.6925   27.0915 C   0  0  0  0  0  0  0  0  0  0  0  0
   -7.2917    1.9407   27.0347 C   0  0  0  0  0  0  0  0  0  0  0  0
   -8.6864    7.7626   26.8349 N   0  0  0  0  0  0  0  0  0  0  0  0
   -6.8743    6.8126   27.8571 O   0  0  0  0  0  0  0  0  0  0  0  0
   -6.8182   -0.4585   27.0755 C   0  0  0  0  0  0  0  0  0  0  0  0
   -7.1009   -1.5797   27.3012 C   0  0  0  0  0  0  0  0  0  0  0  0
   -8.5792   -1.8591   27.4247 C   0  0  0  0  0  0  0  0  0  0  0  0
   -9.5249   -0.9436   27.3837 C   0  0  0  0  0  0  0  0  0  0  0  0
  4  7  1  0
  7 12  1  0
  7 13  2  0
 10 14  1  0
 14 15  2  0
 15 16  1  0
 16 17  2  0
 17  9  1  0
  1  2  2  0
  3  6  2  0
  6  5  1  0
  5  4  2  0
  4  1  1  0
  2  3  1  0
  3  8  1  0
  8  9  2  0
  9 10  1  0
 10 11  2  0
 11  2  1  0
M  END
$$$$
