No_9818-complexes_sdf/6BKW-FPZ/2024-09-17-14-21-01/
     RDKit          3D

 24 27  0  0  0  0  0  0  0  0999 V2000
   -7.2496    3.8871   27.4508 C   0  0  0  0  0  0  0  0  0  0  0  0
   -8.5096    4.0291   27.2770 C   0  0  0  0  0  0  0  0  0  0  0  0
   -9.3502    2.8685   26.8763 C   0  0  0  0  0  0  0  0  0  0  0  0
   -6.4573    5.0085   27.9854 C   0  0  0  0  0  0  0  0  0  0  0  0
   -9.1981    5.2037   27.6491 C   0  0  0  0  0  0  0  0  0  0  0  0
   -8.4588    6.3530   27.9878 C   0  0  0  0  0  0  0  0  0  0  0  0
   -7.1111    6.2009   28.1683 C   0  0  0  0  0  0  0  0  0  0  0  0
   -8.7300    1.6762   26.5917 C   0  0  0  0  0  0  0  0  0  0  0  0
   -9.4009    0.5737   26.0926 C   0  0  0  0  0  0  0  0  0  0  0  0
  -10.4940    0.7183   25.9335 C   0  0  0  0  0  0  0  0  0  0  0  0
  -10.6785    2.7358   26.5507 C   0  0  0  0  0  0  0  0  0  0  0  0
  -11.4048    4.0683   26.9010 C   0  0  0  0  0  0  0  0  0  0  0  0
  -11.3232    1.7061   26.1563 C   0  0  0  0  0  0  0  0  0  0  0  0
  -10.6855    5.2655   27.3661 C   0  0  0  0  0  0  0  0  0  0  0  0
  -12.8237    4.1885   26.7998 C   0  0  0  0  0  0  0  0  0  0  0  0
  -11.2946   -0.6079   25.3978 C   0  0  0  0  0  0  0  0  0  0  0  0
  -10.9992   -1.4957   24.8922 C   0  0  0  0  0  0  0  0  0  0  0  0
  -11.8241   -2.5755   24.4483 C   0  0  0  0  0  0  0  0  0  0  0  0
  -13.1766   -2.4242   24.6308 C   0  0  0  0  0  0  0  0  0  0  0  0
  -13.6515   -1.3105   25.2590 C   0  0  0  0  0  0  0  0  0  0  0  0
  -12.8267   -0.3332   25.6904 C   0  0  0  0  0  0  0  0  0  0  0  0
  -15.1132   -1.1998   25.4942 C   0  0  0  0  0  0  0  0  0  0  0  0
  -15.9199   -1.2782   24.7541 C   0  0  0  0  0  0  0  0  0  0  0  0
  -16.9046   -1.0429   24.5647 C   0  0  0  0  0  0  0  0  0  0  0  0
  2  3  1  0
 11 12  1  0
  5 14  1  0
 12 14  1  0
 12 15  1  0
 10 16  1  0
 20 22  1  0
 22 23  2  3
 23 24  1  0
 16 17  2  0
 17 18  1  0
 18 19  2  0
 19 20  1  0
 20 21  2  0
 21 16  1  0
  3  8  2  0
  8  9  1  0
  9 10  2  0
 10 13  1  0
 13 11  2  0
 11  3  1  0
  1  2  2  0
  2  5  1  0
  5  6  2  0
  6  7  1  0
  7  4  2  0
  4  1  1  0
M  END
$$$$
