No_9859-complexes_sdf/6BKW-FPZ/2024-09-17-14-21-01/
     RDKit          3D

 40 44  0  0  0  0  0  0  0  0999 V2000
   -7.9040    3.9820   27.1177 C   0  0  0  0  0  0  0  0  0  0  0  0
   -8.2057    2.8231   26.8733 C   0  0  0  0  0  0  0  0  0  0  0  0
   -7.4766    1.7477   27.4593 C   0  0  0  0  0  0  0  0  0  0  0  0
   -6.7221    4.3631   27.8544 C   0  0  0  0  0  0  0  0  0  0  0  0
   -7.8124    0.3771   27.2172 C   0  0  0  0  0  0  0  0  0  0  0  0
   -5.8392    3.2900   28.1527 C   0  0  0  0  0  0  0  0  0  0  0  0
   -6.2223    1.9928   27.9988 C   0  0  0  0  0  0  0  0  0  0  0  0
   -9.1951    0.0420   27.4276 C   0  0  0  0  0  0  0  0  0  0  0  0
   -9.6614   -0.9522   27.5325 C   0  0  0  0  0  0  0  0  0  0  0  0
   -8.8033   -2.1440   27.4483 C   0  0  0  0  0  0  0  0  0  0  0  0
   -7.0187   -0.7219   27.3809 C   0  0  0  0  0  0  0  0  0  0  0  0
   -7.4672   -1.9476   27.4227 C   0  0  0  0  0  0  0  0  0  0  0  0
   -8.6337    5.3187   26.7745 C   0  0  0  0  0  0  0  0  0  0  0  0
   -9.7189    5.2187   25.8448 C   0  0  0  0  0  0  0  0  0  0  0  0
   -8.2942    6.5825   27.2427 C   0  0  2  0  0  0  0  0  0  0  0  0
   -8.8557    7.8091   26.7679 C   0  0  0  0  0  0  0  0  0  0  0  0
  -10.2519    4.0372   25.5929 C   0  0  0  0  0  0  0  0  0  0  0  0
  -11.4470    3.8426   24.8032 C   0  0  0  0  0  0  0  0  0  0  0  0
  -11.9770    4.7395   24.2453 C   0  0  0  0  0  0  0  0  0  0  0  0
   -9.7469    2.6840   26.0830 C   0  0  0  0  0  0  0  0  0  0  0  0
  -13.1731    4.6375   23.3540 C   0  0  0  0  0  0  0  0  0  0  0  0
  -13.8488    3.4832   23.3804 C   0  0  0  0  0  0  0  0  0  0  0  0
  -13.2733    2.4204   24.0653 C   0  0  0  0  0  0  0  0  0  0  0  0
  -12.1116    2.5769   24.8123 C   0  0  0  0  0  0  0  0  0  0  0  0
  -13.9838    1.1223   24.0478 C   0  0  0  0  0  0  0  0  0  0  0  0
  -14.3809    0.6430   25.0354 O   0  0  0  0  0  0  0  0  0  0  0  0
  -14.4289    0.7691   22.8575 O   0  0  0  0  0  0  0  0  0  0  0  0
  -11.1821   -1.3016   27.5651 C   0  0  0  0  0  0  0  0  0  0  0  0
  -11.7861   -0.5212   28.1352 O   0  0  0  0  0  0  0  0  0  0  0  0
  -11.6301   -2.3315   27.0184 O   0  0  0  0  0  0  0  0  0  0  0  0
   -6.9976    6.6584   27.6704 O   0  0  0  0  0  0  0  0  0  0  0  0
   -6.6078    5.4857   28.2612 C   0  0  0  0  0  0  0  0  0  0  0  0
   -6.5527   -3.1038   27.4136 C   0  0  0  0  0  0  0  0  0  0  0  0
   -6.6890   -4.0974   27.8493 O   0  0  0  0  0  0  0  0  0  0  0  0
   -5.5149   -2.9176   26.4955 O   0  0  0  0  0  0  0  0  0  0  0  0
   -4.8725   -3.9135   25.9501 C   0  0  0  0  0  0  0  0  0  0  0  0
   -5.0843   -4.3428   24.9042 C   0  0  0  0  0  0  0  0  0  0  0  0
   -4.3552   -5.4267   24.2776 C   0  0  0  0  0  0  0  0  0  0  0  0
   -3.2206   -5.9045   24.9753 C   0  0  0  0  0  0  0  0  0  0  0  0
   -2.9069   -5.3143   26.1809 C   0  0  0  0  0  0  0  0  0  0  0  0
  3  5  1  0
 13 15  1  0
 15 16  1  6
 17 18  1  0
 23 25  1  0
 25 26  1  0
 25 27  2  0
  9 28  1  0
 28 29  2  0
 28 30  1  0
 15 31  1  0
  4 32  1  0
 31 32  1  0
 12 33  1  0
 33 34  2  0
 33 35  1  0
 35 36  1  0
 36 37  2  3
 37 38  1  0
 38 39  2  3
 39 40  1  0
  5  8  2  0
  8  9  1  0
  9 10  2  0
 10 12  1  0
 12 11  2  0
 11  5  1  0
 18 19  2  0
 19 21  1  0
 21 22  2  0
 22 23  1  0
 23 24  2  0
 24 18  1  0
  2 20  1  0
 20 17  2  0
 17 14  1  0
 14 13  2  0
 13  1  1  0
  1  2  1  0
  2  3  2  0
  3  7  1  0
  7  6  2  0
  6  4  1  0
  4  1  2  0
M  END
$$$$
