No_998-complexes_sdf/6BKW-FPZ/2024-09-17-14-21-01/
     RDKit          3D

 25 28  0  0  0  0  0  0  0  0999 V2000
   -7.9040    3.9820   27.1177 C   0  0  0  0  0  0  0  0  0  0  0  0
   -7.8663    4.8694   27.9238 C   0  0  0  0  0  0  0  0  0  0  0  0
   -7.4547    2.7080   27.4594 C   0  0  0  0  0  0  0  0  0  0  0  0
   -8.7044    6.0412   27.8492 C   0  0  0  0  0  0  0  0  0  0  0  0
   -7.9501    1.5743   26.8848 C   0  0  0  0  0  0  0  0  0  0  0  0
   -8.8711    1.7575   25.8527 C   0  0  0  0  0  0  0  0  0  0  0  0
   -9.3585    2.9740   25.5109 C   0  0  0  0  0  0  0  0  0  0  0  0
   -8.8963    4.1169   26.2090 C   0  0  0  0  0  0  0  0  0  0  0  0
   -9.5489    5.3391   26.1902 C   0  0  0  0  0  0  0  0  0  0  0  0
   -9.3820    6.3910   26.9038 C   0  0  0  0  0  0  0  0  0  0  0  0
   -7.3369    0.2514   27.1196 C   0  0  1  0  0  0  0  0  0  0  0  0
   -6.0578    0.1272   27.6729 C   0  0  2  0  0  0  0  0  0  0  0  0
   -5.1369    1.1155   27.6701 C   0  0  0  0  0  0  0  0  0  0  0  0
   -3.8544    0.7152   28.2528 C   0  0  0  0  0  0  0  0  0  0  0  0
   -3.7253   -0.3951   28.6850 C   0  0  0  0  0  0  0  0  0  0  0  0
   -5.4701   -1.0359   28.2658 C   0  0  0  0  0  0  0  0  0  0  0  0
   -2.9812   -1.3854   29.3132 C   0  0  0  0  0  0  0  0  0  0  0  0
   -5.6900   -2.1495   28.6001 C   0  0  0  0  0  0  0  0  0  0  0  0
   -4.8241   -3.0359   29.2473 C   0  0  0  0  0  0  0  0  0  0  0  0
   -3.4974   -2.6523   29.6071 C   0  0  0  0  0  0  0  0  0  0  0  0
   -8.1554   -0.9069   26.9107 C   0  0  0  0  0  0  0  0  0  0  0  0
   -8.1123   -1.5075   25.7688 C   0  0  0  0  0  0  0  0  0  0  0  0
   -7.2564   -1.2213   24.7841 C   0  0  0  0  0  0  0  0  0  0  0  0
   -7.1946   -1.8183   23.4719 C   0  0  0  0  0  0  0  0  0  0  0  0
   -7.9909   -2.8980   23.3043 C   0  0  0  0  0  0  0  0  0  0  0  0
 11  5  1  1
 11 12  1  0
 12 13  1  6
 13 14  2  0
 14 15  1  0
 12 16  1  0
 11 21  1  0
 21 22  2  3
 22 23  1  0
 23 24  2  3
 24 25  1  0
 15 16  2  0
 16 18  1  0
 18 19  2  0
 19 20  1  0
 20 17  2  0
 17 15  1  0
  1  3  1  0
  3  5  2  0
  5  6  1  0
  6  7  2  0
  7  8  1  0
  1  2  2  0
  2  4  1  0
  4 10  2  0
 10  9  1  0
  9  8  2  0
  8  1  1  0
M  END
$$$$
