No_9328-complexes_sdf/6BKW-FPZ/2024-09-17-14-21-01/
     RDKit          3D

 18 20  0  0  0  0  0  0  0  0999 V2000
   -7.9040    3.9820   27.1177 C   0  0  0  0  0  0  0  0  0  0  0  0
   -9.0711    4.3164   27.0630 C   0  0  0  0  0  0  0  0  0  0  0  0
   -9.5182    5.5541   27.5777 C   0  0  0  0  0  0  0  0  0  0  0  0
   -6.9424    4.7983   27.8424 C   0  0  0  0  0  0  0  0  0  0  0  0
   -7.3526    5.9739   28.3909 C   0  0  0  0  0  0  0  0  0  0  0  0
   -8.6479    6.3742   28.2170 C   0  0  0  0  0  0  0  0  0  0  0  0
  -10.0621    3.4422   26.3345 C   0  0  0  0  0  0  0  0  0  0  0  0
   -9.6335    2.6185   25.4370 C   0  0  0  0  0  0  0  0  0  0  0  0
  -10.4839    1.8300   24.6020 C   0  0  0  0  0  0  0  0  0  0  0  0
  -11.8333    2.0895   24.6570 C   0  0  0  0  0  0  0  0  0  0  0  0
  -11.4620    3.7184   26.2542 C   0  0  0  0  0  0  0  0  0  0  0  0
  -12.3183    3.0606   25.5409 C   0  0  0  0  0  0  0  0  0  0  0  0
   -9.9279    0.8079   23.6934 C   0  0  0  0  0  0  0  0  0  0  0  0
   -9.7598    1.1568   22.4303 C   0  0  0  0  0  0  0  0  0  0  0  0
   -9.1658    0.2641   21.5224 C   0  0  0  0  0  0  0  0  0  0  0  0
   -8.7026   -1.0018   21.9607 C   0  0  0  0  0  0  0  0  0  0  0  0
   -9.4766   -0.3680   24.0815 C   0  0  0  0  0  0  0  0  0  0  0  0
   -8.8574   -1.2832   23.3169 C   0  0  0  0  0  0  0  0  0  0  0  0
  2  7  1  0
  9 13  1  0
  7  8  2  0
  8  9  1  0
  9 10  2  0
 10 12  1  0
 12 11  2  0
 11  7  1  0
  1  2  2  0
  2  3  1  0
  3  6  2  0
  6  5  1  0
  5  4  2  0
  4  1  1  0
 13 14  2  0
 14 15  1  0
 15 16  2  0
 16 18  1  0
 18 17  2  0
 17 13  1  0
M  END
$$$$
