No_9768-complexes_sdf/6BKW-FPZ/2024-09-17-14-21-01/
     RDKit          3D

 23 24  0  0  0  0  0  0  0  0999 V2000
   -7.2496    3.8871   27.4508 C   0  0  0  0  0  0  0  0  0  0  0  0
   -7.9379    4.9063   27.8518 C   0  0  0  0  0  0  0  0  0  0  0  0
   -9.3376    4.8647   27.7795 C   0  0  0  0  0  0  0  0  0  0  0  0
   -5.8493    3.7505   27.7216 C   0  0  0  0  0  0  0  0  0  0  0  0
   -7.8797    2.7565   26.7959 C   0  0  0  0  0  0  0  0  0  0  0  0
   -9.2888    2.7879   26.6801 C   0  0  0  0  0  0  0  0  0  0  0  0
   -9.9953    3.8509   27.1405 C   0  0  0  0  0  0  0  0  0  0  0  0
   -5.2743    4.7245   28.2609 F   0  0  0  0  0  0  0  0  0  0  0  0
   -5.1928    2.6814   27.6521 F   0  0  0  0  0  0  0  0  0  0  0  0
  -11.4831    3.8686   27.0128 C   0  0  0  0  0  0  0  0  0  0  0  0
  -12.2235    4.2779   28.1003 C   0  0  0  0  0  0  0  0  0  0  0  0
  -13.6425    4.3156   28.0706 C   0  0  0  0  0  0  0  0  0  0  0  0
  -14.3746    4.7484   29.1726 C   0  0  0  0  0  0  0  0  0  0  0  0
  -13.8807    4.3333   30.4122 C   0  0  0  0  0  0  0  0  0  0  0  0
  -12.5740    3.6838   30.4973 C   0  0  0  0  0  0  0  0  0  0  0  0
  -11.7254    3.6596   29.4240 C   0  0  0  0  0  0  0  0  0  0  0  0
   -9.8944    1.6554   26.0338 C   0  0  0  0  0  0  0  0  0  0  0  0
  -10.2938    0.5533   26.7146 C   0  0  0  0  0  0  0  0  0  0  0  0
  -11.3730   -0.1551   26.5450 C   0  0  0  0  0  0  0  0  0  0  0  0
  -12.0916    0.0954   25.4369 C   0  0  0  0  0  0  0  0  0  0  0  0
  -10.1464    1.6864   24.6356 C   0  0  0  0  0  0  0  0  0  0  0  0
   -9.6983    2.6427   23.6743 C   0  0  0  0  0  0  0  0  0  0  0  0
  -11.3161    0.8719   24.2155 C   0  0  0  0  0  0  0  0  0  0  0  0
  1  4  1  0
  4  8  1  0
  4  9  1  0
  7 10  1  0
  6 17  1  0
 17 18  1  0
 18 19  2  3
 19 20  1  0
 17 21  1  0
 21 22  2  0
 20 23  2  0
 10 11  1  0
 11 12  2  0
 12 13  1  0
 13 14  2  0
 14 15  1  0
 15 16  2  0
 16 11  1  0
  1  2  2  0
  2  3  1  0
  3  7  2  0
  7  6  1  0
  6  5  2  0
  5  1  1  0
M  END
$$$$
