No_9771-complexes_sdf/6BKW-FPZ/2024-09-17-14-21-01/
     RDKit          3D

 17 19  0  0  0  0  0  0  0  0999 V2000
   -7.2496    3.8871   27.4508 C   0  0  0  0  0  0  0  0  0  0  0  0
   -7.6161    2.7143   27.1523 C   0  0  0  0  0  0  0  0  0  0  0  0
   -7.1618    1.8631   27.5232 C   0  0  0  0  0  0  0  0  0  0  0  0
   -6.0841    4.1113   28.0941 C   0  0  0  0  0  0  0  0  0  0  0  0
   -5.8038    1.7595   28.0571 C   0  0  0  0  0  0  0  0  0  0  0  0
   -5.3501    3.0307   28.3267 N   0  0  0  0  0  0  0  0  0  0  0  0
   -8.2654    4.9590   27.1471 C   0  0  0  0  0  0  0  0  0  0  0  0
   -9.2752    4.8434   26.2762 C   0  0  0  0  0  0  0  0  0  0  0  0
   -9.5698    3.5626   25.8068 C   0  0  0  0  0  0  0  0  0  0  0  0
   -8.8558    2.5299   26.2577 C   0  0  0  0  0  0  0  0  0  0  0  0
   -5.1720    0.6218   28.2666 N   0  0  0  0  0  0  0  0  0  0  0  0
   -5.6615   -0.6135   28.2928 C   0  0  0  0  0  0  0  0  0  0  0  0
   -4.8946   -1.6261   28.8144 C   0  0  0  0  0  0  0  0  0  0  0  0
   -3.7488    0.5363   28.6960 C   0  0  0  0  0  0  0  0  0  0  0  0
   -3.5730   -0.8720   28.9926 C   0  0  0  0  0  0  0  0  0  0  0  0
   -7.8446    6.4277   27.5300 C   0  0  0  0  0  0  0  0  0  0  0  0
   -8.6898    7.4748   26.9600 C   0  0  0  0  0  0  0  0  0  0  0  0
  5 11  1  0
 11 12  1  0
 12 13  2  0
 11 14  1  0
 13 15  1  0
 14 15  2  0
  7 16  1  0
 16 17  2  0
  2 10  1  0
 10  9  2  0
  9  8  1  0
  8  7  2  0
  7  1  1  0
  1  2  1  0
  2  3  2  0
  3  5  1  0
  5  6  2  0
  6  4  1  0
  4  1  2  0
M  END
$$$$
