No_970-complexes_sdf/6BKW-FPZ/2024-09-17-14-21-01/
     RDKit          3D

 14 14  0  0  0  0  0  0  0  0999 V2000
   -7.7129    4.2099   27.0854 C   0  0  0  0  0  0  0  0  0  0  0  0
   -8.9133    4.4736   27.0998 C   0  0  0  0  0  0  0  0  0  0  0  0
   -9.7937    3.7368   26.2091 C   0  0  0  0  0  0  0  0  0  0  0  0
   -6.8266    5.0441   28.0594 C   0  0  0  0  0  0  0  0  0  0  0  0
   -9.2322    2.6276   25.6126 C   0  0  0  0  0  0  0  0  0  0  0  0
   -7.9794    2.1924   25.9863 C   0  0  0  0  0  0  0  0  0  0  0  0
   -7.2411    2.9387   26.9009 C   0  0  0  0  0  0  0  0  0  0  0  0
  -10.0191    1.8222   24.8071 N   0  0  0  0  0  0  0  0  0  0  0  0
  -10.7569    1.0731   24.8789 C   0  0  0  0  0  0  0  0  0  0  0  0
  -11.2268    0.7153   26.0152 C   0  0  0  0  0  0  0  0  0  0  0  0
  -11.1246    1.2640   27.0792 C   0  0  0  0  0  0  0  0  0  0  0  0
  -11.7505    0.9716   28.3506 C   0  0  0  0  0  0  0  0  0  0  0  0
  -12.3723   -0.2803   28.4656 C   0  0  0  0  0  0  0  0  0  0  0  0
  -12.5544   -1.0226   27.3258 C   0  0  0  0  0  0  0  0  0  0  0  0
  1  4  1  0
  5  8  1  0
  8  9  1  0
  9 10  2  3
 10 11  1  0
 11 12  2  3
 12 13  1  0
 13 14  2  0
  1  2  2  0
  2  3  1  0
  3  5  2  0
  5  6  1  0
  6  7  2  0
  7  1  1  0
M  END
$$$$
