No_9529-complexes_sdf/6BKW-FPZ/2024-09-17-14-21-01/
     RDKit          3D

 22 23  0  0  0  0  0  0  0  0999 V2000
   -7.9040    3.9820   27.1177 C   0  0  0  0  0  0  0  0  0  0  0  0
   -8.2057    2.8231   26.8733 C   0  0  0  0  0  0  0  0  0  0  0  0
   -8.7695    5.0740   26.7916 C   0  0  0  0  0  0  0  0  0  0  0  0
   -8.4337    6.4678   27.0913 C   0  0  0  0  0  0  0  0  0  0  0  0
   -9.3742    2.4311   26.2346 C   0  0  0  0  0  0  0  0  0  0  0  0
  -10.2395    3.4267   25.8887 C   0  0  0  0  0  0  0  0  0  0  0  0
   -9.9567    4.7548   26.1374 C   0  0  0  0  0  0  0  0  0  0  0  0
   -8.6915    7.3863   26.4306 O   0  0  0  0  0  0  0  0  0  0  0  0
   -7.7527    6.5444   28.2708 O   0  0  0  0  0  0  0  0  0  0  0  0
   -7.0920    1.5044   27.3585 Cl  0  0  0  0  0  0  0  0  0  0  0  0
  -11.4776    3.1130   25.1351 C   0  0  1  0  0  0  0  0  0  0  0  0
  -12.5429    2.6332   25.8018 C   0  0  1  0  0  0  0  0  0  0  0  0
  -12.5599    2.3083   26.9539 C   0  0  0  0  0  0  0  0  0  0  0  0
  -13.7885    1.7668   27.6639 C   0  0  0  0  0  0  0  0  0  0  0  0
  -13.7762    1.3588   29.0397 C   0  0  0  0  0  0  0  0  0  0  0  0
  -12.5493    1.4887   29.7161 C   0  0  0  0  0  0  0  0  0  0  0  0
  -11.4377    2.0149   29.0646 C   0  0  0  0  0  0  0  0  0  0  0  0
  -11.4416    2.4253   27.7982 C   0  0  0  0  0  0  0  0  0  0  0  0
  -11.4651    3.5051   23.9042 F   0  0  0  0  0  0  0  0  0  0  0  0
  -13.8216    2.6109   24.9556 C   0  0  0  0  0  0  0  0  0  0  0  0
  -14.7431    3.4010   25.0734 C   0  0  0  0  0  0  0  0  0  0  0  0
  -15.9207    3.3463   24.2550 C   0  0  0  0  0  0  0  0  0  0  0  0
  3  4  1  0
  4  8  2  0
  4  9  1  0
  2 10  1  0
  6 11  1  0
 11 12  1  0
 11 19  1  1
 12 20  1  0
 20 21  2  3
 21 22  1  0
 12 13  1  1
 13 14  2  0
 14 15  1  0
 15 16  2  0
 16 17  1  0
 17 18  2  0
 18 13  1  0
  1  2  2  0
  2  5  1  0
  5  6  2  0
  6  7  1  0
  7  3  2  0
  3  1  1  0
M  END
$$$$
