No_9641-complexes_sdf/6BKW-FPZ/2024-09-17-14-21-01/
     RDKit          3D

 14 15  0  0  0  0  0  0  0  0999 V2000
   -7.9040    3.9820   27.1177 C   0  0  0  0  0  0  0  0  0  0  0  0
   -8.2057    2.8231   26.8733 C   0  0  0  0  0  0  0  0  0  0  0  0
   -8.7695    5.0740   26.7916 C   0  0  0  0  0  0  0  0  0  0  0  0
   -9.9618    4.7598   26.1630 C   0  0  0  0  0  0  0  0  0  0  0  0
   -7.3763    1.7038   27.3414 C   0  0  0  0  0  0  0  0  0  0  0  0
   -9.4134    2.4504   26.3004 C   0  0  0  0  0  0  0  0  0  0  0  0
  -10.2558    3.4522   25.9218 C   0  0  0  0  0  0  0  0  0  0  0  0
   -6.0718    1.9347   27.8734 C   0  0  0  0  0  0  0  0  0  0  0  0
   -5.2136    0.8622   28.2619 C   0  0  0  0  0  0  0  0  0  0  0  0
   -5.6622   -0.4238   28.2066 C   0  0  0  0  0  0  0  0  0  0  0  0
   -7.6752    0.3255   27.2972 C   0  0  0  0  0  0  0  0  0  0  0  0
   -6.9167   -0.6570   27.7873 C   0  0  0  0  0  0  0  0  0  0  0  0
   -8.3893    6.5004   27.0604 C   0  0  0  0  0  0  0  0  0  0  0  0
   -7.9775    7.6062   26.9462 N   0  0  0  0  0  0  0  0  0  0  0  0
  2  5  1  0
  3 13  1  0
 13 14  3  0
  1  2  2  0
  2  6  1  0
  6  7  2  0
  7  4  1  0
  4  3  2  0
  3  1  1  0
  5  8  2  0
  8  9  1  0
  9 10  2  0
 10 12  1  0
 12 11  2  0
 11  5  1  0
M  END
$$$$
