No_9567-complexes_sdf/6BKW-FPZ/2024-09-17-14-21-01/
     RDKit          3D

 26 29  0  0  0  0  0  0  0  0999 V2000
   -7.9040    3.9820   27.1177 C   0  0  0  0  0  0  0  0  0  0  0  0
   -7.8663    4.8694   27.9238 C   0  0  0  0  0  0  0  0  0  0  0  0
   -9.0806    3.1428   27.1220 C   0  0  0  0  0  0  0  0  0  0  0  0
   -8.9544    1.8782   26.5467 C   0  0  0  0  0  0  0  0  0  0  0  0
   -8.9948    5.7403   28.1705 C   0  0  0  0  0  0  0  0  0  0  0  0
   -7.8336    1.3009   26.2700 C   0  0  0  0  0  0  0  0  0  0  0  0
  -10.2425    5.0867   27.9491 C   0  0  0  0  0  0  0  0  0  0  0  0
  -10.2488    3.7682   27.4018 C   0  0  0  0  0  0  0  0  0  0  0  0
  -10.1565    1.1490   26.3440 C   0  0  0  0  0  0  0  0  0  0  0  0
   -7.7406   -0.0101   25.7953 C   0  0  0  0  0  0  0  0  0  0  0  0
  -10.0746   -0.1735   25.8575 C   0  0  0  0  0  0  0  0  0  0  0  0
   -8.8520   -0.7262   25.6122 C   0  0  0  0  0  0  0  0  0  0  0  0
  -11.5234    3.1066   27.2545 C   0  0  0  0  0  0  0  0  0  0  0  0
  -11.4384    1.7213   26.8130 C   0  0  2  0  0  0  0  0  0  0  0  0
  -12.4300    3.7931   26.2054 C   0  0  0  0  0  0  0  0  0  0  0  0
  -12.2233    3.1526   28.7143 C   0  0  0  0  0  0  0  0  0  0  0  0
  -12.5447    0.8689   26.9894 C   0  0  0  0  0  0  0  0  0  0  0  0
  -13.5195    0.8882   26.2196 C   0  0  0  0  0  0  0  0  0  0  0  0
  -12.5152   -0.0183   28.1789 C   0  0  0  0  0  0  0  0  0  0  0  0
  -13.2517   -0.7333   28.5912 C   0  0  0  0  0  0  0  0  0  0  0  0
  -14.5867   -0.0333   26.5306 C   0  0  0  0  0  0  0  0  0  0  0  0
  -13.2223   -1.6115   29.7305 C   0  0  0  0  0  0  0  0  0  0  0  0
  -14.4771   -0.8243   27.6878 C   0  0  0  0  0  0  0  0  0  0  0  0
  -13.3936   -2.8722   29.6972 N   0  0  0  0  0  0  0  0  0  0  0  0
  -12.6079   -3.7151   29.6827 C   0  0  0  0  0  0  0  0  0  0  0  0
  -11.4429   -3.5209   30.0158 O   0  0  0  0  0  0  0  0  0  0  0  0
  3  4  1  0
  8 13  1  0
  9 14  1  0
 13 14  1  0
 13 15  1  0
 13 16  1  0
 14 17  1  1
 20 22  1  0
 22 24  1  0
 24 25  2  0
 25 26  2  0
  4  6  2  0
  6 10  1  0
 10 12  2  0
 12 11  1  0
 11  9  2  0
  9  4  1  0
  1  2  2  0
  2  5  1  0
  5  7  2  0
  7  8  1  0
  8  3  2  0
  3  1  1  0
 17 18  2  0
 18 21  1  0
 21 23  2  0
 23 20  1  0
 20 19  2  0
 19 17  1  0
M  END
$$$$
