No_931-complexes_sdf/6BKW-FPZ/2024-09-17-14-21-01/
     RDKit          3D

 40 43  0  0  0  0  0  0  0  0999 V2000
   -7.7129    4.2099   27.0854 C   0  0  0  0  0  0  0  0  0  0  0  0
   -8.2112    3.0637   26.9225 C   0  0  0  0  0  0  0  0  0  0  0  0
   -8.5108    5.3904   26.9436 C   0  0  0  0  0  0  0  0  0  0  0  0
   -7.9752    6.6981   27.2112 C   0  0  0  0  0  0  0  0  0  0  0  0
   -9.5213    2.8208   26.4688 C   0  0  0  0  0  0  0  0  0  0  0  0
  -10.2979    3.9327   26.2378 C   0  0  0  0  0  0  0  0  0  0  0  0
   -9.7894    5.2123   26.4395 C   0  0  0  0  0  0  0  0  0  0  0  0
   -7.3451    1.8185   27.1796 C   0  0  0  0  0  0  0  0  0  0  0  0
   -7.7232    0.5262   26.9339 C   0  0  0  0  0  0  0  0  0  0  0  0
   -6.8979   -0.5152   27.3134 C   0  0  0  0  0  0  0  0  0  0  0  0
   -5.6407   -0.2250   27.8929 C   0  0  0  0  0  0  0  0  0  0  0  0
   -5.2530    1.0888   28.1418 C   0  0  0  0  0  0  0  0  0  0  0  0
   -6.0420    2.0747   27.8523 C   0  0  0  0  0  0  0  0  0  0  0  0
   -8.6970    7.7217   26.9989 F   0  0  0  0  0  0  0  0  0  0  0  0
   -7.4999    6.7582   28.5329 F   0  0  0  0  0  0  0  0  0  0  0  0
   -6.8163    6.9215   26.5365 F   0  0  0  0  0  0  0  0  0  0  0  0
   -4.6071   -1.2175   28.3500 C   0  0  0  0  0  0  0  0  0  0  0  0
   -3.6363   -1.1039   28.5732 O   0  0  0  0  0  0  0  0  0  0  0  0
   -5.2413   -2.4642   28.5378 O   0  0  0  0  0  0  0  0  0  0  0  0
  -11.6358    3.8420   25.6626 C   0  0  0  0  0  0  0  0  0  0  0  0
  -13.1450    3.6806   26.5776 Br  0  0  0  0  0  0  0  0  0  0  0  0
  -11.7919    3.8389   24.2118 C   0  0  0  0  0  0  0  0  0  0  0  0
  -12.9002    4.0884   23.5729 C   0  0  0  0  0  0  0  0  0  0  0  0
  -12.8859    4.2445   22.1888 C   0  0  0  0  0  0  0  0  0  0  0  0
  -11.6583    4.0708   21.4859 C   0  0  0  0  0  0  0  0  0  0  0  0
  -10.4907    3.8250   22.1593 C   0  0  0  0  0  0  0  0  0  0  0  0
  -10.4738    3.7565   23.5117 C   0  0  0  0  0  0  0  0  0  0  0  0
   -4.8076   -3.1727   29.4819 C   0  0  1  0  0  0  0  0  0  0  0  0
   -5.3290   -3.0107   30.7064 C   0  0  0  0  0  0  0  0  0  0  0  0
   -4.8680   -3.3510   31.5542 O   0  0  0  0  0  0  0  0  0  0  0  0
   -6.5697   -2.3349   30.7721 N   0  0  0  0  0  0  0  0  0  0  0  0
   -7.2773   -2.0262   32.0428 C   0  0  0  0  0  0  0  0  0  0  0  0
   -8.5663   -2.5812   32.2020 C   0  0  0  0  0  0  0  0  0  0  0  0
   -8.9863   -2.8492   33.4788 C   0  0  0  0  0  0  0  0  0  0  0  0
   -8.2710   -3.4298   34.2661 C   0  0  0  0  0  0  0  0  0  0  0  0
   -6.8402   -3.0093   34.2969 C   0  0  0  0  0  0  0  0  0  0  0  0
   -6.4552   -2.0617   33.2207 C   0  0  0  0  0  0  0  0  0  0  0  0
   -5.0352   -4.6303   29.0209 C   0  0  0  0  0  0  0  0  0  0  0  0
   -4.3263   -5.1618   28.4476 O   0  0  0  0  0  0  0  0  0  0  0  0
   -6.0264   -5.3418   29.6867 N   0  0  0  0  0  0  0  0  0  0  0  0
  3  4  1  0
  2  8  1  0
  4 14  1  0
  4 15  1  0
  4 16  1  0
 11 17  1  0
 17 18  2  0
 17 19  1  0
  6 20  1  0
 20 21  1  0
 20 22  1  0
 28 19  1  6
 28 29  1  0
 29 30  2  0
 29 31  1  0
 31 32  1  0
 28 38  1  0
 38 39  2  0
 38 40  1  0
 32 33  2  0
 33 34  1  0
 34 35  2  0
 35 36  1  0
 36 37  2  0
 37 32  1  0
 22 23  2  0
 23 24  1  0
 24 25  2  0
 25 26  1  0
 26 27  2  0
 27 22  1  0
  8  9  2  0
  9 10  1  0
 10 11  2  0
 11 12  1  0
 12 13  2  0
 13  8  1  0
  1  2  2  0
  2  5  1  0
  5  6  2  0
  6  7  1  0
  7  3  2  0
  3  1  1  0
M  END
$$$$
