No_9573-complexes_sdf/6BKW-FPZ/2024-09-17-14-21-01/
     RDKit          3D

 16 17  0  0  0  0  0  0  0  0999 V2000
   -7.7129    4.2099   27.0854 C   0  0  0  0  0  0  0  0  0  0  0  0
   -8.2112    3.0637   26.9225 C   0  0  0  0  0  0  0  0  0  0  0  0
   -8.5108    5.3904   26.9436 C   0  0  0  0  0  0  0  0  0  0  0  0
   -9.7256    5.1955   26.3518 C   0  0  0  0  0  0  0  0  0  0  0  0
   -9.4995    2.8258   26.4878 C   0  0  0  0  0  0  0  0  0  0  0  0
  -10.2542    3.9691   26.2055 C   0  0  0  0  0  0  0  0  0  0  0  0
   -7.9135    6.7086   27.1885 C   0  0  2  0  0  0  0  0  0  0  0  0
   -7.2143    1.6300   27.3319 Cl  0  0  0  0  0  0  0  0  0  0  0  0
   -8.0385    7.7863   26.2758 Cl  0  0  0  0  0  0  0  0  0  0  0  0
  -11.5940    3.7901   25.5959 C   0  0  0  0  0  0  0  0  0  0  0  0
  -12.6742    3.3935   26.4249 C   0  0  0  0  0  0  0  0  0  0  0  0
  -13.9037    3.6129   26.0997 C   0  0  0  0  0  0  0  0  0  0  0  0
  -14.1811    4.0084   24.7193 C   0  0  0  0  0  0  0  0  0  0  0  0
  -11.8976    4.2832   24.3118 C   0  0  0  0  0  0  0  0  0  0  0  0
  -13.1497    4.4089   23.8852 C   0  0  0  0  0  0  0  0  0  0  0  0
   -7.0872    6.6485   28.2286 F   0  0  0  0  0  0  0  0  0  0  0  0
  3  7  1  0
  2  8  1  0
  7  9  1  0
  6 10  1  0
  7 16  1  6
 10 11  2  0
 11 12  1  0
 12 13  2  0
 13 15  1  0
 15 14  2  0
 14 10  1  0
  1  2  2  0
  2  5  1  0
  5  6  2  0
  6  4  1  0
  4  3  2  0
  3  1  1  0
M  END
$$$$
