No_9081-complexes_sdf/6BKW-FPZ/2024-09-17-14-21-01/
     RDKit          3D

 24 26  0  0  0  0  0  0  0  0999 V2000
   -7.7129    4.2099   27.0854 C   0  0  0  0  0  0  0  0  0  0  0  0
   -8.2112    3.0637   26.9225 C   0  0  0  0  0  0  0  0  0  0  0  0
   -8.5108    5.3904   26.9436 C   0  0  0  0  0  0  0  0  0  0  0  0
   -9.7256    5.1955   26.3518 C   0  0  0  0  0  0  0  0  0  0  0  0
   -9.4995    2.8258   26.4878 C   0  0  0  0  0  0  0  0  0  0  0  0
  -10.2542    3.9691   26.2055 C   0  0  0  0  0  0  0  0  0  0  0  0
   -7.8138    6.9227   27.2348 Cl  0  0  0  0  0  0  0  0  0  0  0  0
   -7.3640    1.8353   27.2492 C   0  0  0  0  0  0  0  0  0  0  0  0
   -6.0673    2.0156   27.7743 C   0  0  0  0  0  0  0  0  0  0  0  0
   -5.2518    0.8629   28.0582 C   0  0  0  0  0  0  0  0  0  0  0  0
   -5.7527   -0.3956   27.9078 C   0  0  0  0  0  0  0  0  0  0  0  0
   -7.6179    0.4654   27.1186 C   0  0  0  0  0  0  0  0  0  0  0  0
   -6.9867   -0.5456   27.4457 C   0  0  0  0  0  0  0  0  0  0  0  0
   -3.9711    1.1361   28.5686 N   0  0  0  0  0  0  0  0  0  0  0  0
  -11.6053    3.8284   25.6378 C   0  0  2  0  0  0  0  0  0  0  0  0
  -12.6613    3.8446   26.4831 C   0  0  0  0  0  0  0  0  0  0  0  0
  -13.1629    3.0617   26.9897 C   0  0  0  0  0  0  0  0  0  0  0  0
  -14.2607    3.2067   28.0709 C   0  0  0  0  0  0  0  0  0  0  0  0
  -14.6989    4.4774   28.3300 C   0  0  0  0  0  0  0  0  0  0  0  0
  -14.1552    5.5507   27.6120 C   0  0  0  0  0  0  0  0  0  0  0  0
  -13.1516    5.3466   26.7784 C   0  0  0  0  0  0  0  0  0  0  0  0
  -11.8322    3.5941   24.2663 C   0  0  0  0  0  0  0  0  0  0  0  0
  -12.7031    3.0086   23.7730 C   0  0  0  0  0  0  0  0  0  0  0  0
  -12.8998    2.8375   22.3565 C   0  0  0  0  0  0  0  0  0  0  0  0
  3  7  1  0
  2  8  1  0
 10 14  1  0
 15  6  1  1
 15 16  1  0
 15 22  1  0
 22 23  2  3
 23 24  1  0
 16 17  2  0
 17 18  1  0
 18 19  2  0
 19 20  1  0
 20 21  2  0
 21 16  1  0
  1  2  2  0
  2  5  1  0
  5  6  2  0
  6  4  1  0
  4  3  2  0
  3  1  1  0
  8  9  2  0
  9 10  1  0
 10 11  2  0
 11 13  1  0
 13 12  2  0
 12  8  1  0
M  END
$$$$
