No_9725-complexes_sdf/6BKW-FPZ/2024-09-17-14-21-01/
     RDKit          3D

 21 22  0  0  0  0  0  0  0  0999 V2000
   -7.7129    4.2099   27.0854 C   0  0  0  0  0  0  0  0  0  0  0  0
   -7.7814    5.1722   27.8972 C   0  0  0  0  0  0  0  0  0  0  0  0
   -8.8776    3.8408   26.3416 C   0  0  0  0  0  0  0  0  0  0  0  0
   -9.9844    4.6492   26.4743 C   0  0  0  0  0  0  0  0  0  0  0  0
   -8.7830    6.1594   27.8870 C   0  0  0  0  0  0  0  0  0  0  0  0
   -9.9269    5.8191   27.1183 C   0  0  0  0  0  0  0  0  0  0  0  0
   -8.8618    2.6242   25.5633 C   0  0  0  0  0  0  0  0  0  0  0  0
   -8.2819    1.4836   26.1793 C   0  0  0  0  0  0  0  0  0  0  0  0
   -7.8786    1.5228   27.5984 C   0  0  0  0  0  0  0  0  0  0  0  0
   -8.2141    0.2891   25.3929 C   0  0  0  0  0  0  0  0  0  0  0  0
   -8.9283    0.1804   24.4218 N   0  0  0  0  0  0  0  0  0  0  0  0
   -9.7257   -0.6924   24.1894 C   0  0  0  0  0  0  0  0  0  0  0  0
  -10.7218   -0.8145   23.8580 C   0  0  0  0  0  0  0  0  0  0  0  0
  -11.4776    0.4449   23.6790 C   0  0  0  0  0  0  0  0  0  0  0  0
  -10.8466    1.3821   22.9326 C   0  0  0  0  0  0  0  0  0  0  0  0
   -9.3768    1.4521   23.5980 C   0  0  2  0  0  0  0  0  0  0  0  0
   -9.6037    2.8417   24.8527 P   0  0  1  0  0  0  0  0  0  0  0  0
  -11.1764    2.9234   25.0276 O   0  0  0  0  0  0  0  0  0  0  0  0
   -9.4537    4.0538   23.6157 O   0  0  0  0  0  0  0  0  0  0  0  0
   -8.3019    1.5229   22.5902 C   0  0  0  0  0  0  0  0  0  0  0  0
  -10.3851    3.2780   23.7698 F   0  0  0  0  0  0  0  0  0  0  0  0
  3  7  1  0
  7  8  2  3
  8  9  1  0
  8 10  1  0
 10 11  1  0
 11 12  1  0
 13 14  1  0
 11 16  1  0
 15 16  1  0
  7 17  1  0
 17 18  2  0
 17 19  1  1
 16 20  1  6
 19 21  1  0
 12 13  1  0
 14 15  1  0
  1  2  2  0
  2  5  1  0
  5  6  2  0
  6  4  1  0
  4  3  2  0
  3  1  1  0
M  END
$$$$
