No_9714-complexes_sdf/6BKW-FPZ/2024-09-17-14-21-01/
     RDKit          3D

 18 19  0  0  0  0  0  0  0  0999 V2000
   -7.7129    4.2099   27.0854 C   0  0  0  0  0  0  0  0  0  0  0  0
   -7.7814    5.1722   27.8972 C   0  0  0  0  0  0  0  0  0  0  0  0
   -8.8998    3.8713   26.3707 C   0  0  0  0  0  0  0  0  0  0  0  0
   -9.7416    3.2213   26.9591 C   0  0  0  0  0  0  0  0  0  0  0  0
  -10.1082    3.3017   28.0352 C   0  0  0  0  0  0  0  0  0  0  0  0
   -8.8391    5.2426   28.9792 C   0  0  0  0  0  0  0  0  0  0  0  0
   -9.8556    4.3224   28.6569 C   0  0  0  0  0  0  0  0  0  0  0  0
  -10.4703    2.0436   26.2368 C   0  0  2  0  0  0  0  0  0  0  0  0
  -10.3224    0.8693   26.6041 C   0  0  0  0  0  0  0  0  0  0  0  0
   -9.5731    0.5911   27.8911 C   0  0  0  0  0  0  0  0  0  0  0  0
  -10.9192   -0.3279   25.9985 C   0  0  0  0  0  0  0  0  0  0  0  0
   -9.4549   -0.8538   28.3205 C   0  0  0  0  0  0  0  0  0  0  0  0
  -10.7965   -1.6069   26.4986 C   0  0  0  0  0  0  0  0  0  0  0  0
  -10.0717   -1.8338   27.6576 C   0  0  0  0  0  0  0  0  0  0  0  0
  -10.0313    2.0833   24.7228 C   0  0  0  0  0  0  0  0  0  0  0  0
  -10.9490    2.5477   23.9034 C   0  0  0  0  0  0  0  0  0  0  0  0
  -10.5744    2.7247   22.5218 C   0  0  0  0  0  0  0  0  0  0  0  0
  -11.2585    3.4951   21.5996 C   0  0  0  0  0  0  0  0  0  0  0  0
  1  2  1  0
  1  3  1  0
  3  4  2  0
  4  5  1  0
  2  6  2  0
  5  7  2  0
  6  7  1  0
  4  8  1  0
  8 15  1  6
 15 16  1  0
 16 17  2  3
 17 18  1  0
  8  9  1  0
  9 10  2  0
 10 12  1  0
 12 14  2  0
 14 13  1  0
 13 11  2  0
 11  9  1  0
M  END
$$$$
