No_90-complexes_sdf/6BKW-FPZ/2024-09-17-14-21-01/
     RDKit          3D

 36 41  0  0  0  0  0  0  0  0999 V2000
   -7.7129    4.2099   27.0854 C   0  0  0  0  0  0  0  0  0  0  0  0
   -8.2112    3.0637   26.9225 C   0  0  1  0  0  0  0  0  0  0  0  0
   -7.0021    4.5281   28.2396 C   0  0  0  0  0  0  0  0  0  0  0  0
   -9.4237    2.7810   26.2714 C   0  0  0  0  0  0  0  0  0  0  0  0
   -9.9782    1.4391   26.2525 C   0  0  0  0  0  0  0  0  0  0  0  0
  -11.2119    1.2242   25.6766 C   0  0  0  0  0  0  0  0  0  0  0  0
  -11.8702    2.3218   25.1283 C   0  0  0  0  0  0  0  0  0  0  0  0
  -11.3400    3.5742   25.0895 C   0  0  0  0  0  0  0  0  0  0  0  0
  -10.0352    3.7962   25.6803 C   0  0  0  0  0  0  0  0  0  0  0  0
   -7.2857    1.9485   27.2242 C   0  0  0  0  0  0  0  0  0  0  0  0
   -7.5965    0.6003   27.0874 C   0  0  0  0  0  0  0  0  0  0  0  0
   -6.8094   -0.4286   27.5229 C   0  0  0  0  0  0  0  0  0  0  0  0
   -8.9584    0.3836   26.5648 C   0  0  0  0  0  0  0  0  0  0  0  0
   -5.4870   -0.1444   27.9490 C   0  0  0  0  0  0  0  0  0  0  0  0
   -4.6129   -1.1388   28.4294 C   0  0  0  0  0  0  0  0  0  0  0  0
   -3.3590   -0.7432   29.0050 C   0  0  0  0  0  0  0  0  0  0  0  0
   -3.0451    0.6203   28.9582 C   0  0  0  0  0  0  0  0  0  0  0  0
   -3.9336    1.6063   28.5563 C   0  0  0  0  0  0  0  0  0  0  0  0
   -5.0924    1.2097   28.0893 C   0  0  0  0  0  0  0  0  0  0  0  0
   -6.0652    2.1940   27.6767 N   0  0  0  0  0  0  0  0  0  0  0  0
   -7.0751    6.0350   28.6541 C   0  0  0  0  0  0  0  0  0  0  0  0
   -9.4654   -0.8436   26.5860 O   0  0  0  0  0  0  0  0  0  0  0  0
   -7.7876    6.8677   27.7278 C   0  0  0  0  0  0  0  0  0  0  0  0
   -8.4953    5.4375   26.6972 C   0  0  2  0  0  0  0  0  0  0  0  0
   -9.6192    5.4482   25.9713 C   0  0  0  0  0  0  0  0  0  0  0  0
   -2.4313   -1.7670   29.4645 C   0  0  0  0  0  0  0  0  0  0  0  0
   -1.4558   -1.9710   28.9390 O   0  0  0  0  0  0  0  0  0  0  0  0
   -3.0254   -2.5888   30.3807 O   0  0  0  0  0  0  0  0  0  0  0  0
   -3.8936   -2.2501   31.1840 C   0  0  0  0  0  0  0  0  0  0  0  0
   -3.6039   -1.3889   32.2231 C   0  0  0  0  0  0  0  0  0  0  0  0
   -2.3453   -1.2116   32.7186 C   0  0  0  0  0  0  0  0  0  0  0  0
   -2.0268   -0.2537   33.7421 C   0  0  0  0  0  0  0  0  0  0  0  0
   -0.7436   -0.2715   34.3450 C   0  0  0  0  0  0  0  0  0  0  0  0
   -0.3949    0.7824   35.0036 F   0  0  0  0  0  0  0  0  0  0  0  0
   -0.7086   -1.3504   35.2805 F   0  0  0  0  0  0  0  0  0  0  0  0
    0.2308   -0.6089   33.4605 F   0  0  0  0  0  0  0  0  0  0  0  0
  2  1  1  6
  1  3  2  0
  2  4  1  0
  2 10  1  0
  5 13  1  0
 11 13  1  0
  3 21  1  0
 13 22  2  0
 21 23  2  0
  1 24  1  0
 23 24  1  0
  9 25  1  0
 24 25  1  1
 16 26  1  0
 26 27  2  0
 26 28  1  0
 28 29  1  0
 29 30  2  3
 30 31  1  0
 31 32  2  3
 32 33  1  0
 33 34  1  0
 33 35  1  0
 33 36  1  0
 14 15  1  0
 15 16  2  0
 16 17  1  0
 17 18  2  0
 18 19  1  0
 10 11  2  0
 11 12  1  0
 12 14  2  0
 14 19  1  0
 19 20  2  0
 20 10  1  0
  4  5  2  0
  5  6  1  0
  6  7  2  0
  7  8  1  0
  8  9  2  0
  9  4  1  0
M  END
$$$$
