No_9867-complexes_sdf/6BKW-FPZ/2024-09-17-14-21-01/
     RDKit          3D

 13 13  0  0  0  0  0  0  0  0999 V2000
   -7.2496    3.8871   27.4508 C   0  0  0  0  0  0  0  0  0  0  0  0
   -8.5096    4.0291   27.2770 C   0  0  0  0  0  0  0  0  0  0  0  0
   -9.2669    5.1645   27.5845 C   0  0  0  0  0  0  0  0  0  0  0  0
  -10.6621    5.2321   27.4284 C   0  0  0  0  0  0  0  0  0  0  0  0
   -9.4015    2.8584   27.0493 C   0  0  0  0  0  0  0  0  0  0  0  0
   -8.7012    1.6337   26.7435 C   0  0  0  0  0  0  0  0  0  0  0  0
   -6.5638    2.6268   27.3850 C   0  0  0  0  0  0  0  0  0  0  0  0
   -7.3204    1.5336   27.0236 C   0  0  0  0  0  0  0  0  0  0  0  0
   -8.5224    6.4256   27.7923 C   0  0  0  0  0  0  0  0  0  0  0  0
   -6.6357    0.2688   26.8083 C   0  0  0  0  0  0  0  0  0  0  0  0
   -7.0471   -0.7228   27.4985 O   0  0  0  0  0  0  0  0  0  0  0  0
   -6.4354   -1.8268   27.5652 C   0  0  0  0  0  0  0  0  0  0  0  0
   -6.7680   -2.7373   28.4993 C   0  0  0  0  0  0  0  0  0  0  0  0
  2  3  1  0
  3  4  1  0
  3  9  1  0
  8 10  1  0
 10 11  1  0
 11 12  1  0
 12 13  2  0
  1  2  2  0
  2  5  1  0
  5  6  2  0
  6  8  1  0
  8  7  2  0
  7  1  1  0
M  END
$$$$
