No_9184-complexes_sdf/6BKW-FPZ/2024-09-17-14-21-01/
     RDKit          3D

 15 16  0  0  0  0  0  0  0  0999 V2000
   -7.9040    3.9820   27.1177 C   0  0  0  0  0  0  0  0  0  0  0  0
   -7.8663    4.8694   27.9238 C   0  0  0  0  0  0  0  0  0  0  0  0
   -9.0491    3.8523   26.2542 C   0  0  0  0  0  0  0  0  0  0  0  0
   -8.7661    5.9491   27.9690 C   0  0  0  0  0  0  0  0  0  0  0  0
   -9.9295    4.8502   26.2323 C   0  0  0  0  0  0  0  0  0  0  0  0
   -9.8077    5.9288   27.0933 C   0  0  0  0  0  0  0  0  0  0  0  0
   -7.0146    2.9513   27.1368 F   0  0  0  0  0  0  0  0  0  0  0  0
   -9.0710    2.8499   25.3499 F   0  0  0  0  0  0  0  0  0  0  0  0
  -10.9102    4.8175   25.3130 O   0  0  0  0  0  0  0  0  0  0  0  0
  -10.6508    4.5362   24.0389 C   0  0  0  0  0  0  0  0  0  0  0  0
  -11.6357    3.7422   23.3425 C   0  0  0  0  0  0  0  0  0  0  0  0
  -11.4683    3.4999   22.0572 C   0  0  0  0  0  0  0  0  0  0  0  0
  -10.2896    4.0166   21.3369 C   0  0  0  0  0  0  0  0  0  0  0  0
   -9.5196    4.9427   21.9884 C   0  0  0  0  0  0  0  0  0  0  0  0
   -9.6783    5.2034   23.2935 C   0  0  0  0  0  0  0  0  0  0  0  0
  1  7  1  0
  3  8  1  0
  5  9  1  0
  9 10  1  0
  1  2  2  0
  2  4  1  0
  4  6  2  0
  6  5  1  0
  5  3  2  0
  3  1  1  0
 10 11  2  0
 11 12  1  0
 12 13  2  0
 13 14  1  0
 14 15  2  0
 15 10  1  0
M  END
$$$$
