No_9711-complexes_sdf/6BKW-FPZ/2024-09-17-14-21-01/
     RDKit          3D

 10 11  0  0  0  0  0  0  0  0999 V2000
   -7.9040    3.9820   27.1177 C   0  0  0  0  0  0  0  0  0  0  0  0
   -7.8663    4.8694   27.9238 C   0  0  0  0  0  0  0  0  0  0  0  0
   -7.4547    2.7080   27.4594 C   0  0  0  0  0  0  0  0  0  0  0  0
   -6.1474    2.6388   27.8014 C   0  0  0  0  0  0  0  0  0  0  0  0
   -8.5539    6.1392   27.6636 C   0  0  0  0  0  0  0  0  0  0  0  0
   -5.3946    3.9175   28.0755 C   0  0  0  0  0  0  0  0  0  0  0  0
   -6.3088    5.0545   28.3117 C   0  0  0  0  0  0  0  0  0  0  0  0
   -9.3023    4.0119   26.4505 C   0  0  0  0  0  0  0  0  0  0  0  0
   -9.5293    4.8349   25.5368 C   0  0  0  0  0  0  0  0  0  0  0  0
   -9.3223    6.2860   26.4231 C   0  0  0  0  0  0  0  0  0  0  0  0
  2  5  2  0
  5 10  1  0
 10  9  2  0
  9  8  1  0
  8  1  2  0
  1  2  1  0
  2  7  1  0
  7  6  2  0
  6  4  1  0
  4  3  2  0
  3  1  1  0
M  END
$$$$
