No_9734-complexes_sdf/6BKW-FPZ/2024-09-17-14-21-01/
     RDKit          3D

 34 39  0  0  0  0  0  0  0  0999 V2000
   -7.9040    3.9820   27.1177 C   0  0  0  0  0  0  0  0  0  0  0  0
   -8.2057    2.8231   26.8733 C   0  0  0  0  0  0  0  0  0  0  0  0
   -8.7695    5.0740   26.7916 C   0  0  0  0  0  0  0  0  0  0  0  0
   -9.9618    4.7598   26.1630 C   0  0  0  0  0  0  0  0  0  0  0  0
   -9.4200    2.4524   26.2850 C   0  0  0  0  0  0  0  0  0  0  0  0
  -10.2590    3.4815   25.9250 C   0  0  0  0  0  0  0  0  0  0  0  0
   -8.3840    6.4693   27.0829 C   0  0  0  0  0  0  0  0  0  0  0  0
   -7.9048    6.7586   28.1698 O   0  0  0  0  0  0  0  0  0  0  0  0
   -8.3715    7.3404   26.0982 O   0  0  0  0  0  0  0  0  0  0  0  0
   -7.2780    1.6716   27.2857 C   0  0  0  0  0  0  0  0  0  0  0  0
   -7.6076    0.3872   27.1913 N   0  0  0  0  0  0  0  0  0  0  0  0
   -5.9283    1.8718   27.6392 N   0  0  0  0  0  0  0  0  0  0  0  0
   -6.4970   -0.2568   27.6754 C   0  0  0  0  0  0  0  0  0  0  0  0
   -6.3513   -1.6369   27.8365 C   0  0  0  0  0  0  0  0  0  0  0  0
   -5.3658    0.4351   28.0494 C   0  0  0  0  0  0  0  0  0  0  0  0
   -5.5118   -2.1436   28.3375 C   0  0  0  0  0  0  0  0  0  0  0  0
   -4.2406    0.2805   28.4974 C   0  0  0  0  0  0  0  0  0  0  0  0
   -3.6452   -0.8557   29.0098 C   0  0  0  0  0  0  0  0  0  0  0  0
   -4.1589   -2.0495   28.9289 C   0  0  0  0  0  0  0  0  0  0  0  0
   -3.4626   -3.2164   29.4281 C   0  0  0  0  0  0  0  0  0  0  0  0
   -3.7996   -4.1856   29.5964 C   0  0  0  0  0  0  0  0  0  0  0  0
   -3.4155   -5.2148   30.0654 C   0  0  0  0  0  0  0  0  0  0  0  0
   -4.0592   -6.5301   30.2855 C   0  0  0  0  0  0  0  0  0  0  0  0
   -5.7678   -3.7262   28.5552 C   0  0  0  0  0  0  0  0  0  0  0  0
   -5.0273   -4.5835   29.1877 C   0  0  0  0  0  0  0  0  0  0  0  0
   -5.2399   -6.7332   29.8279 C   0  0  0  0  0  0  0  0  0  0  0  0
   -5.7445   -5.7517   29.3051 C   0  0  0  0  0  0  0  0  0  0  0  0
   -5.9330   -8.0220   30.0064 C   0  0  0  0  0  0  0  0  0  0  0  0
   -5.6242   -8.9411   30.8164 C   0  0  0  0  0  0  0  0  0  0  0  0
   -7.0633   -8.2611   29.1323 C   0  0  0  0  0  0  0  0  0  0  0  0
   -6.1668  -10.1706   30.9744 C   0  0  0  0  0  0  0  0  0  0  0  0
   -7.5049   -7.3507   28.2071 C   0  0  0  0  0  0  0  0  0  0  0  0
   -6.9208   -5.9886   28.4363 C   0  0  0  0  0  0  0  0  0  0  0  0
   -7.2310  -10.3334   30.0596 C   0  0  0  0  0  0  0  0  0  0  0  0
  3  7  1  0
  7  8  2  0
  7  9  1  0
  2 10  1  0
 10 11  2  0
 10 12  1  0
 11 13  1  0
 13 14  1  0
 12 15  1  0
 13 15  1  0
 15 17  1  0
 17 18  2  0
 18 19  1  0
 28 29  1  0
 29 31  2  3
 31 34  1  0
 14 16  1  0
 27 33  2  0
 33 32  1  0
 32 30  2  0
 30 28  1  0
 28 26  2  0
  1  2  2  0
  2  5  1  0
  5  6  2  0
  6  4  1  0
  4  3  2  0
  3  1  1  0
 16 19  2  0
 19 20  1  0
 20 21  2  0
 25 24  2  0
 24 16  1  0
 21 22  1  0
 22 23  2  0
 23 26  1  0
 26 27  1  0
 27 25  1  0
 25 21  1  0
M  END
$$$$
