No_9195-complexes_sdf/6BKW-FPZ/2024-09-17-14-21-01/
     RDKit          3D

 17 18  0  0  0  0  0  0  0  0999 V2000
   -7.2496    3.8871   27.4508 C   0  0  0  0  0  0  0  0  0  0  0  0
   -7.9379    4.9063   27.8518 C   0  0  0  0  0  0  0  0  0  0  0  0
   -7.5112    6.1898   27.6280 C   0  0  0  0  0  0  0  0  0  0  0  0
   -9.4044    4.7330   27.8015 C   0  0  0  0  0  0  0  0  0  0  0  0
   -7.8289    2.5799   27.2061 C   0  0  0  0  0  0  0  0  0  0  0  0
   -7.0395    1.4885   26.9423 C   0  0  0  0  0  0  0  0  0  0  0  0
   -5.9690    1.2763   27.8094 C   0  0  0  0  0  0  0  0  0  0  0  0
  -10.0505    3.5052   27.8613 C   0  0  0  0  0  0  0  0  0  0  0  0
   -9.1972    2.4118   27.4972 C   0  0  0  0  0  0  0  0  0  0  0  0
   -5.1055    0.1186   27.6695 C   0  0  0  0  0  0  0  0  0  0  0  0
   -3.9507    0.0444   28.5483 C   0  0  0  0  0  0  0  0  0  0  0  0
   -3.7945   -0.9253   29.4011 C   0  0  0  0  0  0  0  0  0  0  0  0
   -2.8079   -0.8392   30.4477 C   0  0  0  0  0  0  0  0  0  0  0  0
   -2.5327   -1.9365   31.2057 C   0  0  0  0  0  0  0  0  0  0  0  0
   -3.2931   -3.0649   31.0734 C   0  0  0  0  0  0  0  0  0  0  0  0
   -4.2345   -3.1426   30.1267 C   0  0  0  0  0  0  0  0  0  0  0  0
   -4.4847   -2.1068   29.2871 C   0  0  0  0  0  0  0  0  0  0  0  0
  2  3  1  0
  5  6  1  0
  6  7  2  3
  7 10  1  0
 10 11  1  0
 11 12  1  0
 12 13  2  0
 13 14  1  0
 14 15  2  0
 15 16  1  0
 16 17  2  0
 17 12  1  0
  1  2  2  0
  2  4  1  0
  4  8  2  0
  8  9  1  0
  9  5  2  0
  5  1  1  0
M  END
$$$$
