No_9870-complexes_sdf/6BKW-FPZ/2024-09-17-14-21-01/
     RDKit          3D

 39 43  0  0  0  0  0  0  0  0999 V2000
   -7.7129    4.2099   27.0854 C   0  0  0  0  0  0  0  0  0  0  0  0
   -8.2112    3.0637   26.9225 C   0  0  0  0  0  0  0  0  0  0  0  0
   -8.5108    5.3904   26.9436 C   0  0  0  0  0  0  0  0  0  0  0  0
   -9.7256    5.1955   26.3518 C   0  0  0  0  0  0  0  0  0  0  0  0
   -9.4995    2.8258   26.4878 C   0  0  0  0  0  0  0  0  0  0  0  0
  -10.2542    3.9691   26.2055 C   0  0  0  0  0  0  0  0  0  0  0  0
   -7.9456    6.5695   27.1656 F   0  0  0  0  0  0  0  0  0  0  0  0
   -7.3632    1.8215   27.2517 C   0  0  1  0  0  0  0  0  0  0  0  0
   -6.1438    2.0032   27.7045 N   0  0  0  0  0  0  0  0  0  0  0  0
   -5.3923    0.8466   28.0188 C   0  0  0  0  0  0  0  0  0  0  0  0
   -5.9636   -0.3414   27.8950 C   0  0  0  0  0  0  0  0  0  0  0  0
   -7.5758    0.3709   27.2768 C   0  0  0  0  0  0  0  0  0  0  0  0
   -3.5721    1.0226   28.6172 Br  0  0  0  0  0  0  0  0  0  0  0  0
  -11.5195    3.8294   25.6653 N   0  0  0  0  0  0  0  0  0  0  0  0
  -11.8529    3.7531   24.3560 C   0  0  1  0  0  0  0  0  0  0  0  0
  -13.1654    3.8267   23.9246 C   0  0  0  0  0  0  0  0  0  0  0  0
  -12.7883    3.6817   26.4173 C   0  0  2  0  0  0  0  0  0  0  0  0
  -13.9501    3.8826   25.9375 C   0  0  0  0  0  0  0  0  0  0  0  0
  -14.2070    3.9592   24.6252 C   0  0  0  0  0  0  0  0  0  0  0  0
  -10.7937    3.8364   23.5719 F   0  0  0  0  0  0  0  0  0  0  0  0
  -12.4732    3.8212   27.7873 F   0  0  0  0  0  0  0  0  0  0  0  0
   -5.8317   -1.5907   28.0614 C   0  0  0  0  0  0  0  0  0  0  0  0
   -6.3489   -2.4513   27.2495 C   0  0  0  0  0  0  0  0  0  0  0  0
   -6.1693   -3.7996   27.4422 C   0  0  0  0  0  0  0  0  0  0  0  0
   -5.3694   -4.2107   28.5365 C   0  0  0  0  0  0  0  0  0  0  0  0
   -4.8793   -3.3254   29.4217 C   0  0  0  0  0  0  0  0  0  0  0  0
   -5.0850   -1.9473   29.2962 C   0  0  0  0  0  0  0  0  0  0  0  0
   -4.0712   -3.7564   30.6221 C   0  0  0  0  0  0  0  0  0  0  0  0
   -3.3625   -4.5586   30.7496 O   0  0  0  0  0  0  0  0  0  0  0  0
   -4.5260   -3.0577   31.8302 O   0  0  0  0  0  0  0  0  0  0  0  0
   -4.0746   -2.7124   32.6761 C   0  0  0  0  0  0  0  0  0  0  0  0
   -4.6039   -2.0819   33.7098 C   0  0  0  0  0  0  0  0  0  0  0  0
   -3.9253   -1.5366   34.8667 C   0  0  0  0  0  0  0  0  0  0  0  0
   -2.5107   -1.6112   34.8380 C   0  0  0  0  0  0  0  0  0  0  0  0
   -1.9053   -2.1481   33.7079 C   0  0  0  0  0  0  0  0  0  0  0  0
   -2.5858   -2.5837   32.6700 C   0  0  0  0  0  0  0  0  0  0  0  0
   -6.0328   -2.0170   34.0108 C   0  0  0  0  0  0  0  0  0  0  0  0
   -6.8392   -3.3459   34.0445 Cl  0  0  0  0  0  0  0  0  0  0  0  0
   -6.6639   -0.8869   33.7082 O   0  0  0  0  0  0  0  0  0  0  0  0
  3  7  1  0
  8  2  1  1
  8  9  1  0
  9 10  2  0
 10 11  1  0
  8 12  1  0
 11 12  1  0
 10 13  1  0
  6 14  1  0
 14 15  1  0
 14 17  1  0
 16 19  1  0
 18 19  1  0
 15 20  1  6
 17 21  1  1
 11 22  1  0
 26 28  1  0
 28 29  2  0
 28 30  1  0
 30 31  1  0
 32 37  1  0
 37 38  1  0
 37 39  2  0
 15 16  1  0
 18 17  1  0
 31 32  2  0
 32 33  1  0
 33 34  2  0
 34 35  1  0
 35 36  2  0
 36 31  1  0
 22 23  2  0
 23 24  1  0
 24 25  2  0
 25 26  1  0
 26 27  2  0
 27 22  1  0
  1  2  2  0
  2  5  1  0
  5  6  2  0
  6  4  1  0
  4  3  2  0
  3  1  1  0
M  END
$$$$
