No_9346-complexes_sdf/6BKW-FPZ/2024-09-17-14-21-01/
     RDKit          3D

 32 36  0  0  0  0  0  0  0  0999 V2000
   -7.9040    3.9820   27.1177 C   0  0  0  0  0  0  0  0  0  0  0  0
   -9.0711    4.3164   27.0630 C   0  0  0  0  0  0  0  0  0  0  0  0
   -9.5294    5.4517   27.7215 C   0  0  0  0  0  0  0  0  0  0  0  0
   -7.2203    4.1641   28.0363 C   0  0  0  0  0  0  0  0  0  0  0  0
   -7.4086    5.4620   28.7588 C   0  0  0  0  0  0  0  0  0  0  0  0
   -8.6604    5.9957   28.6449 C   0  0  0  0  0  0  0  0  0  0  0  0
  -10.0187    3.7599   25.9642 C   0  0  0  0  0  0  0  0  0  0  0  0
   -9.7427    2.5350   25.4652 C   0  0  0  0  0  0  0  0  0  0  0  0
  -10.2743    2.1512   24.2360 C   0  0  0  0  0  0  0  0  0  0  0  0
  -11.1821    3.0396   23.5833 C   0  0  0  0  0  0  0  0  0  0  0  0
  -11.3421    4.1335   24.0663 C   0  0  0  0  0  0  0  0  0  0  0  0
  -10.7268    4.7042   25.2024 C   0  0  0  0  0  0  0  0  0  0  0  0
  -10.1954    0.8404   23.5813 C   0  0  0  0  0  0  0  0  0  0  0  0
   -9.1657    0.0472   24.0191 C   0  0  0  0  0  0  0  0  0  0  0  0
   -8.5166    0.4235   25.1843 C   0  0  0  0  0  0  0  0  0  0  0  0
   -8.7099    1.5463   25.9253 C   0  0  0  0  0  0  0  0  0  0  0  0
  -11.8375    2.6345   22.3383 C   0  0  1  0  0  0  0  0  0  0  0  0
  -12.6335    3.6205   21.9961 F   0  0  0  0  0  0  0  0  0  0  0  0
  -10.8593    2.4266   21.2048 C   0  0  2  0  0  0  0  0  0  0  0  0
  -12.6354    1.3607   22.5254 C   0  0  0  0  0  0  0  0  0  0  0  0
  -13.7418    1.4061   22.5444 C   0  0  0  0  0  0  0  0  0  0  0  0
  -11.1746    0.3898   22.6838 C   0  0  0  0  0  0  0  0  0  0  0  0
  -14.4818    1.0509   21.4180 C   0  0  0  0  0  0  0  0  0  0  0  0
  -13.9081    0.4169   20.3975 C   0  0  0  0  0  0  0  0  0  0  0  0
  -14.5633    0.3143   19.1563 C   0  0  0  0  0  0  0  0  0  0  0  0
  -13.9486   -0.3186   18.0233 C   0  0  0  0  0  0  0  0  0  0  0  0
  -12.6391   -0.8049   18.1754 C   0  0  0  0  0  0  0  0  0  0  0  0
  -11.9564   -0.6876   19.3566 C   0  0  0  0  0  0  0  0  0  0  0  0
  -12.5290   -0.0919   20.3726 C   0  0  0  0  0  0  0  0  0  0  0  0
   -9.7731    2.0585   21.4523 F   0  0  0  0  0  0  0  0  0  0  0  0
  -11.2748    2.8668   19.8970 C   0  0  0  0  0  0  0  0  0  0  0  0
  -11.7310    2.2099   18.9909 O   0  0  0  0  0  0  0  0  0  0  0  0
  2  7  1  0
 10 17  1  0
 17 18  1  6
 17 19  1  0
 17 20  1  0
 20 21  2  3
 13 22  1  0
 20 22  1  0
 21 23  1  0
 23 24  1  0
 19 30  1  1
 19 31  1  0
 31 32  2  0
  1  2  2  0
  2  3  1  0
  3  6  2  0
  6  5  1  0
  5  4  2  0
  4  1  1  0
 24 25  2  0
 25 26  1  0
 26 27  2  0
 27 28  1  0
 28 29  2  0
 29 24  1  0
  9 13  2  0
 13 14  1  0
 14 15  2  0
 15 16  1  0
 16  8  2  0
  7  8  1  0
  8  9  1  0
  9 10  1  0
 10 11  2  0
 11 12  1  0
 12  7  2  0
M  END
$$$$
