No_9549-complexes_sdf/6BKW-FPZ/2024-09-17-14-21-01/
     RDKit          3D

 17 18  0  0  0  0  0  0  0  0999 V2000
   -7.9040    3.9820   27.1177 C   0  0  0  0  0  0  0  0  0  0  0  0
   -8.2057    2.8231   26.8733 C   0  0  0  0  0  0  0  0  0  0  0  0
   -8.7695    5.0740   26.7916 C   0  0  0  0  0  0  0  0  0  0  0  0
   -8.4337    6.4678   27.0913 C   0  0  0  0  0  0  0  0  0  0  0  0
   -9.3742    2.4311   26.2346 C   0  0  0  0  0  0  0  0  0  0  0  0
  -10.2395    3.4267   25.8887 C   0  0  0  0  0  0  0  0  0  0  0  0
   -9.9567    4.7548   26.1374 C   0  0  0  0  0  0  0  0  0  0  0  0
   -8.5487    6.7971   28.2302 F   0  0  0  0  0  0  0  0  0  0  0  0
   -9.2267    7.3313   26.2905 F   0  0  0  0  0  0  0  0  0  0  0  0
   -7.0999    6.7109   26.8189 F   0  0  0  0  0  0  0  0  0  0  0  0
   -7.3311    1.8121   27.2956 F   0  0  0  0  0  0  0  0  0  0  0  0
  -11.4793    3.1548   25.1290 C   0  0  0  0  0  0  0  0  0  0  0  0
  -11.9352    4.0032   24.2053 C   0  0  0  0  0  0  0  0  0  0  0  0
  -13.0960    3.7765   23.4081 C   0  0  0  0  0  0  0  0  0  0  0  0
  -13.8203    2.6885   23.6763 C   0  0  0  0  0  0  0  0  0  0  0  0
  -12.2678    2.0599   25.3563 C   0  0  0  0  0  0  0  0  0  0  0  0
  -13.4066    1.8387   24.6671 C   0  0  0  0  0  0  0  0  0  0  0  0
  3  4  1  0
  4  8  1  0
  4  9  1  0
  4 10  1  0
  2 11  1  0
  6 12  1  0
 12 13  2  0
 13 14  1  0
 14 15  2  0
 15 17  1  0
 17 16  2  0
 16 12  1  0
  1  2  2  0
  2  5  1  0
  5  6  2  0
  6  7  1  0
  7  3  2  0
  3  1  1  0
M  END
$$$$
