No_9906-complexes_sdf/6BKW-FPZ/2024-09-17-14-21-01/
     RDKit          3D

  9  9  0  0  0  0  0  0  0  0999 V2000
   -7.2496    3.8871   27.4508 C   0  0  0  0  0  0  0  0  0  0  0  0
   -7.6161    2.7143   27.1523 C   0  0  0  0  0  0  0  0  0  0  0  0
   -6.9719    1.5838   27.5324 C   0  0  0  0  0  0  0  0  0  0  0  0
   -5.6316    1.7305   27.9933 C   0  0  0  0  0  0  0  0  0  0  0  0
   -8.0192    5.1128   27.1337 C   0  0  0  0  0  0  0  0  0  0  0  0
   -7.6458    6.4118   27.6522 C   0  0  0  0  0  0  0  0  0  0  0  0
   -5.1370    3.0740   28.1334 C   0  0  0  0  0  0  0  0  0  0  0  0
   -5.8879    4.1220   27.8879 C   0  0  0  0  0  0  0  0  0  0  0  0
   -9.1437    5.0199   26.2721 C   0  0  0  0  0  0  0  0  0  0  0  0
  1  5  1  0
  5  6  1  0
  5  9  1  0
  1  2  2  0
  2  3  1  0
  3  4  2  0
  4  7  1  0
  7  8  2  0
  8  1  1  0
M  END
$$$$
