No_942-complexes_sdf/6BKW-FPZ/2024-09-17-14-21-01/
     RDKit          3D

 14 15  0  0  0  0  0  0  0  0999 V2000
   -7.9040    3.9820   27.1177 C   0  0  0  0  0  0  0  0  0  0  0  0
   -7.8663    4.8694   27.9238 C   0  0  0  0  0  0  0  0  0  0  0  0
   -9.0491    3.8523   26.2542 C   0  0  0  0  0  0  0  0  0  0  0  0
   -8.7661    5.9491   27.9690 C   0  0  0  0  0  0  0  0  0  0  0  0
   -9.9295    4.8502   26.2323 C   0  0  0  0  0  0  0  0  0  0  0  0
   -9.8077    5.9288   27.0933 C   0  0  0  0  0  0  0  0  0  0  0  0
   -7.0146    2.9513   27.1368 F   0  0  0  0  0  0  0  0  0  0  0  0
   -9.3293    2.7756   25.2866 C   0  0  0  0  0  0  0  0  0  0  0  0
  -10.2016    2.9496   24.2545 C   0  0  0  0  0  0  0  0  0  0  0  0
  -10.9951    4.1335   24.2503 C   0  0  0  0  0  0  0  0  0  0  0  0
  -10.9086    4.9554   25.2024 C   0  0  0  0  0  0  0  0  0  0  0  0
  -12.0455    4.1986   23.2037 C   0  0  0  0  0  0  0  0  0  0  0  0
  -13.2528    4.3197   23.3346 C   0  0  0  0  0  0  0  0  0  0  0  0
  -14.2227    4.4866   22.3035 C   0  0  0  0  0  0  0  0  0  0  0  0
  1  7  1  0
 10 12  1  0
 12 13  2  3
 13 14  1  0
  1  2  2  0
  2  4  1  0
  4  6  2  0
  6  5  1  0
  3  1  1  0
  3  5  2  0
  5 11  1  0
 11 10  2  0
 10  9  1  0
  9  8  2  0
  8  3  1  0
M  END
$$$$
