No_9924-complexes_sdf/6BKW-FPZ/2024-09-17-14-21-01/
     RDKit          3D

 21 22  0  0  0  0  0  0  0  0999 V2000
   -7.2496    3.8871   27.4508 C   0  0  0  0  0  0  0  0  0  0  0  0
   -7.6161    2.7143   27.1523 C   0  0  0  0  0  0  0  0  0  0  0  0
   -8.6212    2.2239   26.4073 C   0  0  0  0  0  0  0  0  0  0  0  0
   -8.2540    4.9237   27.1711 C   0  0  0  0  0  0  0  0  0  0  0  0
   -8.0481    6.2918   27.4896 C   0  0  0  0  0  0  0  0  0  0  0  0
   -9.5812    3.2432   26.0960 C   0  0  0  0  0  0  0  0  0  0  0  0
   -9.3651    4.5697   26.4537 C   0  0  0  0  0  0  0  0  0  0  0  0
   -8.9200    7.3345   27.0001 C   0  0  0  0  0  0  0  0  0  0  0  0
   -6.5606    1.5616   27.5712 C   0  0  0  0  0  0  0  0  0  0  0  0
   -5.3115    1.9090   28.1319 C   0  0  0  0  0  0  0  0  0  0  0  0
   -4.4076    0.9137   28.5091 C   0  0  0  0  0  0  0  0  0  0  0  0
   -4.8073   -0.4121   28.5021 C   0  0  0  0  0  0  0  0  0  0  0  0
   -6.0810   -0.7607   28.0087 C   0  0  0  0  0  0  0  0  0  0  0  0
   -6.9633    0.2346   27.5344 C   0  0  0  0  0  0  0  0  0  0  0  0
  -10.7249    2.8840   25.2441 C   0  0  0  0  0  0  0  0  0  0  0  0
  -11.8768    2.6296   25.8527 C   0  0  0  0  0  0  0  0  0  0  0  0
  -10.5938    2.7798   23.8373 C   0  0  0  0  0  0  0  0  0  0  0  0
  -10.0132    3.1659   23.0843 C   0  0  0  0  0  0  0  0  0  0  0  0
   -9.9522    3.0706   21.6244 C   0  0  0  0  0  0  0  0  0  0  0  0
  -10.7316    2.0263   21.1336 C   0  0  0  0  0  0  0  0  0  0  0  0
  -11.5061    1.3089   22.0438 C   0  0  0  0  0  0  0  0  0  0  0  0
  4  5  1  0
  5  8  1  0
  2  9  1  0
  6 15  1  0
 15 16  1  0
 15 17  1  0
 17 18  2  3
 18 19  1  0
 19 20  2  3
 20 21  1  0
  1  2  2  0
  2  3  1  0
  3  6  2  0
  6  7  1  0
  7  4  2  0
  4  1  1  0
  9 10  2  0
 10 11  1  0
 11 12  2  0
 12 13  1  0
 13 14  2  0
 14  9  1  0
M  END
$$$$
