No_953-complexes_sdf/6BKW-FPZ/2024-09-17-14-21-01/
     RDKit          3D

 27 29  0  0  0  0  0  0  0  0999 V2000
   -7.2496    3.8871   27.4508 C   0  0  0  0  0  0  0  0  0  0  0  0
   -8.5096    4.0291   27.2770 C   0  0  0  0  0  0  0  0  0  0  0  0
   -9.3451    2.8786   26.9046 C   0  0  0  0  0  0  0  0  0  0  0  0
   -6.6065    2.5680   27.5073 C   0  0  0  0  0  0  0  0  0  0  0  0
   -7.3970    1.4834   27.2271 C   0  0  0  0  0  0  0  0  0  0  0  0
   -8.7029    1.6398   26.9934 C   0  0  0  0  0  0  0  0  0  0  0  0
   -9.2630    5.1833   27.2347 N   0  0  0  0  0  0  0  0  0  0  0  0
   -8.5864    6.3785   27.2040 C   0  0  0  0  0  0  0  0  0  0  0  0
   -8.1871    7.0867   26.0246 C   0  0  0  0  0  0  0  0  0  0  0  0
  -10.6098    5.2198   27.2969 C   0  0  0  0  0  0  0  0  0  0  0  0
   -5.2001    2.4451   27.8311 C   0  0  0  0  0  0  0  0  0  0  0  0
   -4.5765    1.2146   27.8889 N   0  0  0  0  0  0  0  0  0  0  0  0
   -4.6234    0.4504   28.8403 C   0  0  0  0  0  0  0  0  0  0  0  0
   -3.9128   -0.8016   28.8188 C   0  0  1  0  0  0  0  0  0  0  0  0
   -3.0912   -0.9376   27.9472 C   0  0  0  0  0  0  0  0  0  0  0  0
   -2.9525   -0.0707   26.7816 C   0  0  0  0  0  0  0  0  0  0  0  0
   -3.5184    1.2509   26.8834 C   0  0  0  0  0  0  0  0  0  0  0  0
   -7.5288    8.2910   26.3244 C   0  0  0  0  0  0  0  0  0  0  0  0
   -3.9940   -1.6814   30.0006 C   0  0  1  0  0  0  0  0  0  0  0  0
   -4.6266   -1.2554   31.1267 C   0  0  0  0  0  0  0  0  0  0  0  0
   -5.8160   -1.8596   31.5763 C   0  0  0  0  0  0  0  0  0  0  0  0
   -6.4436   -1.3231   32.7963 C   0  0  0  0  0  0  0  0  0  0  0  0
   -5.7525   -0.3636   33.5339 C   0  0  0  0  0  0  0  0  0  0  0  0
   -4.0654   -0.3564   32.0781 C   0  0  0  0  0  0  0  0  0  0  0  0
   -4.5879    0.0379   33.2223 N   0  0  0  0  0  0  0  0  0  0  0  0
   -2.8148    0.0606   31.6494 N   0  0  0  0  0  0  0  0  0  0  0  0
   -3.7043   -2.8232   29.8736 F   0  0  0  0  0  0  0  0  0  0  0  0
  2  7  1  0
  7  8  1  0
  8  9  1  0
  7 10  1  0
  4 11  1  0
 11 12  1  0
 12 13  1  0
 14 13  1  1
 14 15  1  0
 12 17  1  0
 16 17  1  0
  9 18  1  0
 14 19  1  0
 19 20  1  0
 24 26  1  0
 19 27  1  6
 15 16  1  0
  1  2  2  0
  2  3  1  0
  3  6  2  0
  6  5  1  0
  5  4  2  0
  4  1  1  0
 20 21  2  0
 21 22  1  0
 22 23  2  0
 23 25  1  0
 25 24  2  0
 24 20  1  0
M  END
$$$$
