No_9917-complexes_sdf/6BKW-FPZ/2024-09-17-14-21-01/
     RDKit          3D

 40 44  0  0  0  0  0  0  0  0999 V2000
   -7.9040    3.9820   27.1177 C   0  0  0  0  0  0  0  0  0  0  0  0
   -7.8663    4.8694   27.9238 C   0  0  0  0  0  0  0  0  0  0  0  0
   -7.4698    2.6989   27.4277 C   0  0  0  0  0  0  0  0  0  0  0  0
   -7.9683    1.5964   26.8266 C   0  0  0  0  0  0  0  0  0  0  0  0
   -8.9447    1.7923   25.8533 C   0  0  0  0  0  0  0  0  0  0  0  0
   -9.4405    2.9988   25.5757 C   0  0  0  0  0  0  0  0  0  0  0  0
   -8.9424    4.1117   26.2388 C   0  0  0  0  0  0  0  0  0  0  0  0
   -7.0149    5.0235   28.9341 N   0  0  0  0  0  0  0  0  0  0  0  0
   -8.5039    6.1764   27.7789 N   0  0  0  0  0  0  0  0  0  0  0  0
  -10.4369    2.9250   24.4980 C   0  0  0  0  0  0  0  0  0  0  0  0
  -11.1159    4.1227   24.1521 C   0  0  0  0  0  0  0  0  0  0  0  0
  -12.0584    4.2002   23.1421 C   0  0  0  0  0  0  0  0  0  0  0  0
  -12.3000    3.1156   22.3684 C   0  0  0  0  0  0  0  0  0  0  0  0
  -11.5957    1.9414   22.6806 C   0  0  0  0  0  0  0  0  0  0  0  0
  -10.6810    1.8793   23.6848 C   0  0  0  0  0  0  0  0  0  0  0  0
   -7.3924    0.2432   27.0913 C   0  0  0  0  0  0  0  0  0  0  0  0
   -6.2030    0.0223   27.4238 N   0  0  0  0  0  0  0  0  0  0  0  0
   -5.2933    0.8172   27.3975 C   0  0  0  0  0  0  0  0  0  0  0  0
   -4.2403    0.8110   28.0617 C   0  0  0  0  0  0  0  0  0  0  0  0
   -5.7173   -1.3355   27.0408 C   0  0  0  0  0  0  0  0  0  0  0  0
   -8.4049   -0.5540   27.3118 O   0  0  0  0  0  0  0  0  0  0  0  0
   -3.2440   -0.2730   27.6457 C   0  0  2  0  0  0  0  0  0  0  0  0
   -4.2275   -1.5483   27.6227 C   0  0  2  0  0  0  0  0  0  0  0  0
   -9.5044    6.3344   26.9256 C   0  0  0  0  0  0  0  0  0  0  0  0
   -9.7302    5.3027   26.1220 C   0  0  0  0  0  0  0  0  0  0  0  0
   -2.1703   -0.4688   28.6510 C   0  0  0  0  0  0  0  0  0  0  0  0
   -2.8077    0.1257   26.3149 C   0  0  0  0  0  0  0  0  0  0  0  0
   -3.6838   -2.7789   27.7308 C   0  0  0  0  0  0  0  0  0  0  0  0
   -2.9311   -3.0218   28.7378 C   0  0  0  0  0  0  0  0  0  0  0  0
   -1.7745   -1.8915   28.9657 C   0  0  2  0  0  0  0  0  0  0  0  0
   -1.2699   -1.8478   30.4327 C   0  0  0  0  0  0  0  0  0  0  0  0
   -0.6061   -2.1610   28.0616 C   0  0  0  0  0  0  0  0  0  0  0  0
   -0.2781   -2.4708   30.8093 N   0  0  0  0  0  0  0  0  0  0  0  0
   -2.1056   -1.2870   31.4061 N   0  0  0  0  0  0  0  0  0  0  0  0
   -3.2632   -0.6499   31.3990 C   0  0  0  0  0  0  0  0  0  0  0  0
   -4.2843   -1.1330   32.3312 C   0  0  0  0  0  0  0  0  0  0  0  0
   -5.5902   -1.1177   31.8055 C   0  0  0  0  0  0  0  0  0  0  0  0
   -6.6100   -1.7132   32.5920 C   0  0  0  0  0  0  0  0  0  0  0  0
   -6.3173   -2.0145   33.9773 C   0  0  0  0  0  0  0  0  0  0  0  0
   -5.0269   -1.8465   34.4814 C   0  0  0  0  0  0  0  0  0  0  0  0
  2  8  1  0
  6 10  1  0
  4 16  1  0
 16 17  1  0
 17 18  1  0
 17 20  1  0
 16 21  2  0
 19 22  1  0
 23 20  1  6
 22 23  1  0
 22 26  1  0
 22 27  1  6
 23 28  1  0
 26 30  1  0
 29 30  1  0
 30 31  1  0
 30 32  1  6
 31 33  2  0
 31 34  1  0
 34 35  1  0
 35 36  1  0
 36 37  2  3
 37 38  1  0
 38 39  2  3
 39 40  1  0
 18 19  1  0
 28 29  1  0
  1  3  1  0
  3  4  2  0
  4  5  1  0
  5  6  2  0
  6  7  1  0
  1  2  2  0
  2  9  1  0
  9 24  2  0
 24 25  1  0
 25  7  2  0
  7  1  1  0
 10 11  2  0
 11 12  1  0
 12 13  2  0
 13 14  1  0
 14 15  2  0
 15 10  1  0
M  END
$$$$
