No_9345-complexes_sdf/6BKW-FPZ/2024-09-17-14-21-01/
     RDKit          3D

 14 15  0  0  0  0  0  0  0  0999 V2000
   -7.2496    3.8871   27.4508 C   0  0  0  0  0  0  0  0  0  0  0  0
   -7.6161    2.7143   27.1523 C   0  0  0  0  0  0  0  0  0  0  0  0
   -8.6212    2.2239   26.4073 C   0  0  0  0  0  0  0  0  0  0  0  0
   -8.2540    4.9237   27.1711 C   0  0  0  0  0  0  0  0  0  0  0  0
   -8.0299    6.2902   27.5026 C   0  0  0  0  0  0  0  0  0  0  0  0
   -9.3752    4.6360   26.4536 C   0  0  0  0  0  0  0  0  0  0  0  0
   -9.6012    3.2992   26.1124 C   0  0  0  0  0  0  0  0  0  0  0  0
   -8.8605    7.3649   27.0343 C   0  0  0  0  0  0  0  0  0  0  0  0
   -6.5853    1.5495   27.5521 C   0  0  0  0  0  0  0  0  0  0  0  0
   -5.4160    1.8909   28.0883 N   0  0  0  0  0  0  0  0  0  0  0  0
   -6.8400    0.2105   27.3198 C   0  0  0  0  0  0  0  0  0  0  0  0
   -4.5252    0.9024   28.4070 C   0  0  0  0  0  0  0  0  0  0  0  0
   -5.9845   -0.7487   27.7314 C   0  0  0  0  0  0  0  0  0  0  0  0
   -4.7931   -0.3535   28.2984 C   0  0  0  0  0  0  0  0  0  0  0  0
  4  5  1  0
  5  8  2  0
  2  9  1  0
  9 10  2  0
 10 12  1  0
 12 14  2  0
 14 13  1  0
 13 11  2  0
 11  9  1  0
  1  2  2  0
  2  3  1  0
  3  7  2  0
  7  6  1  0
  6  4  2  0
  4  1  1  0
M  END
$$$$
