No_9555-complexes_sdf/6BKW-FPZ/2024-09-17-14-21-01/
     RDKit          3D

 19 20  0  0  0  0  0  0  0  0999 V2000
   -7.9040    3.9820   27.1177 C   0  0  0  0  0  0  0  0  0  0  0  0
   -7.8663    4.8694   27.9238 C   0  0  0  0  0  0  0  0  0  0  0  0
   -9.0806    3.1428   27.1220 C   0  0  0  0  0  0  0  0  0  0  0  0
  -10.0909    3.4892   26.5180 C   0  0  0  0  0  0  0  0  0  0  0  0
   -8.8400    5.9983   27.4627 C   0  0  0  0  0  0  0  0  0  0  0  0
  -10.7252    4.8136   26.7238 C   0  0  0  0  0  0  0  0  0  0  0  0
  -10.2354    5.8204   27.5431 C   0  0  0  0  0  0  0  0  0  0  0  0
  -10.6066    2.8079   25.3225 C   0  0  0  0  0  0  0  0  0  0  0  0
  -11.6976    2.9974   24.8516 C   0  0  0  0  0  0  0  0  0  0  0  0
  -12.6947    3.1927   25.1724 C   0  0  0  0  0  0  0  0  0  0  0  0
  -11.5137    3.4291   23.3597 C   0  0  0  0  0  0  0  0  0  0  0  0
  -10.2929    3.2955   22.7027 C   0  0  0  0  0  0  0  0  0  0  0  0
  -12.5946    3.9514   22.5555 C   0  0  0  0  0  0  0  0  0  0  0  0
  -13.0568    2.6637   26.5350 C   0  0  0  0  0  0  0  0  0  0  0  0
  -12.8006    1.3843   26.8070 C   0  0  0  0  0  0  0  0  0  0  0  0
  -12.5949    1.0499   28.1015 C   0  0  0  0  0  0  0  0  0  0  0  0
  -12.6585    1.9670   29.1624 C   0  0  0  0  0  0  0  0  0  0  0  0
  -12.9210    3.3569   28.9225 C   0  0  0  0  0  0  0  0  0  0  0  0
  -13.2273    3.7117   27.6039 C   0  0  0  0  0  0  0  0  0  0  0  0
  1  2  1  0
  1  3  1  0
  3  4  1  0
  2  5  1  0
  4  6  1  0
  5  7  1  0
  6  7  1  0
  4  8  1  0
  8  9  1  0
  9 10  2  3
  9 11  1  0
 11 12  1  0
 11 13  1  0
 10 14  1  0
 14 15  2  0
 15 16  1  0
 16 17  2  0
 17 18  1  0
 18 19  2  0
 19 14  1  0
M  END
$$$$
