No_9072-complexes_sdf/6BKW-FPZ/2024-09-17-14-21-01/
     RDKit          3D

 11 12  0  0  0  0  0  0  0  0999 V2000
   -7.9040    3.9820   27.1177 C   0  0  0  0  0  0  0  0  0  0  0  0
   -9.0711    4.3164   27.0630 C   0  0  2  0  0  0  0  0  0  0  0  0
   -9.8698    3.9665   25.9495 C   0  0  0  0  0  0  0  0  0  0  0  0
   -7.0332    4.5030   28.2025 C   0  0  0  0  0  0  0  0  0  0  0  0
  -10.9909    4.7237   25.5958 C   0  0  0  0  0  0  0  0  0  0  0  0
   -7.5840    5.4918   28.9036 N   0  0  0  0  0  0  0  0  0  0  0  0
  -11.7067    4.2616   24.4995 C   0  0  0  0  0  0  0  0  0  0  0  0
  -11.2268    3.2423   23.6790 C   0  0  0  0  0  0  0  0  0  0  0  0
  -10.1072    2.5890   24.0034 C   0  0  0  0  0  0  0  0  0  0  0  0
   -9.3657    3.0062   25.1380 C   0  0  0  0  0  0  0  0  0  0  0  0
   -8.9468    5.8034   27.6693 C   0  0  0  0  0  0  0  0  0  0  0  0
  1  2  1  0
  1  4  1  0
  4  6  1  0
  2 11  1  0
  6 11  1  0
  2  3  1  6
  3  5  2  0
  5  7  1  0
  7  8  2  0
  8  9  1  0
  9 10  2  0
 10  3  1  0
M  END
$$$$
