No_9853-complexes_sdf/6BKW-FPZ/2024-09-17-14-21-01/
     RDKit          3D

 34 37  0  0  0  0  0  0  0  0999 V2000
   -7.2496    3.8871   27.4508 C   0  0  0  0  0  0  0  0  0  0  0  0
   -7.6161    2.7143   27.1523 C   0  0  0  0  0  0  0  0  0  0  0  0
   -6.9719    1.5838   27.5324 C   0  0  0  0  0  0  0  0  0  0  0  0
   -7.4590    0.2827   27.2615 C   0  0  0  0  0  0  0  0  0  0  0  0
   -8.8629    2.3938   26.5063 C   0  0  0  0  0  0  0  0  0  0  0  0
   -9.6872    3.5591   26.1479 C   0  0  0  0  0  0  0  0  0  0  0  0
   -8.0746    5.0638   27.2096 C   0  0  0  0  0  0  0  0  0  0  0  0
   -9.2369    4.9222   26.5257 C   0  0  0  0  0  0  0  0  0  0  0  0
   -6.6674   -0.8327   27.6357 C   0  0  0  0  0  0  0  0  0  0  0  0
   -5.6058    1.6267   27.8923 C   0  0  0  0  0  0  0  0  0  0  0  0
   -4.7938    0.5788   28.2387 C   0  0  0  0  0  0  0  0  0  0  0  0
   -5.3266   -0.6564   28.1435 C   0  0  0  0  0  0  0  0  0  0  0  0
   -7.6376    6.2485   27.6176 F   0  0  0  0  0  0  0  0  0  0  0  0
   -3.2232    0.8498   28.8505 Cl  0  0  0  0  0  0  0  0  0  0  0  0
  -10.8958    3.4677   25.3633 C   0  0  0  0  0  0  0  0  0  0  0  0
  -10.8940    3.7061   24.0223 C   0  0  0  0  0  0  0  0  0  0  0  0
  -12.0489    3.6664   23.1990 C   0  0  0  0  0  0  0  0  0  0  0  0
  -13.2677    3.4110   23.8572 C   0  0  0  0  0  0  0  0  0  0  0  0
  -12.1205    3.2338   25.9922 C   0  0  0  0  0  0  0  0  0  0  0  0
  -13.2840    3.2310   25.2521 C   0  0  0  0  0  0  0  0  0  0  0  0
   -7.2267   -2.1647   27.5553 C   0  0  0  0  0  0  0  0  0  0  0  0
   -8.2966   -2.2996   26.8930 C   0  0  0  0  0  0  0  0  0  0  0  0
   -8.9780   -3.5333   26.7772 C   0  0  0  0  0  0  0  0  0  0  0  0
   -8.4107   -4.5918   27.4341 C   0  0  0  0  0  0  0  0  0  0  0  0
   -7.2734   -4.4716   28.1378 C   0  0  0  0  0  0  0  0  0  0  0  0
   -6.5771   -3.1463   28.3285 C   0  0  0  0  0  0  0  0  0  0  0  0
  -10.2085   -3.7127   26.0061 C   0  0  1  0  0  0  0  0  0  0  0  0
  -11.4900   -2.9350   25.9164 Cl  0  0  0  0  0  0  0  0  0  0  0  0
  -10.1187   -4.8376   25.0219 C   0  0  0  0  0  0  0  0  0  0  0  0
  -11.0510   -5.0454   24.3060 C   0  0  0  0  0  0  0  0  0  0  0  0
  -11.4279   -5.4056   23.4293 C   0  0  0  0  0  0  0  0  0  0  0  0
  -12.8104   -5.6159   22.8847 C   0  0  0  0  0  0  0  0  0  0  0  0
  -13.7465   -5.1171   23.7398 C   0  0  0  0  0  0  0  0  0  0  0  0
  -13.4789   -4.6092   24.9067 C   0  0  0  0  0  0  0  0  0  0  0  0
  2  3  1  0
  7 13  1  0
 11 14  1  0
  6 15  1  0
  9 21  1  0
 23 27  1  0
 27 28  1  6
 27 29  1  0
 29 30  2  3
 30 31  1  0
 31 32  2  3
 32 33  1  0
 33 34  2  0
 15 16  2  0
 16 17  1  0
 17 18  2  0
 18 20  1  0
 20 19  2  0
 19 15  1  0
  3  4  2  0
  4  9  1  0
  9 12  2  0
 12 11  1  0
 11 10  2  0
 10  3  1  0
  1  2  2  0
  2  5  1  0
  5  6  2  0
  6  8  1  0
  8  7  2  0
  7  1  1  0
 21 22  2  0
 22 23  1  0
 23 24  2  0
 24 25  1  0
 25 26  2  0
 26 21  1  0
M  END
$$$$
