No_9051-complexes_sdf/6BKW-FPZ/2024-09-17-14-21-01/
     RDKit          3D

 40 44  0  0  0  0  0  0  0  0999 V2000
   -7.7129    4.2099   27.0854 C   0  0  0  0  0  0  0  0  0  0  0  0
   -8.2112    3.0637   26.9225 C   0  0  0  0  0  0  0  0  0  0  0  0
   -7.5138    1.9223   27.4249 C   0  0  0  0  0  0  0  0  0  0  0  0
   -8.5309    5.4147   26.8151 C   0  0  0  0  0  0  0  0  0  0  0  0
   -9.6817    5.2393   26.1100 C   0  0  0  0  0  0  0  0  0  0  0  0
  -10.1032    3.9957   25.8534 C   0  0  0  0  0  0  0  0  0  0  0  0
   -9.4034    2.8430   26.2573 C   0  0  0  0  0  0  0  0  0  0  0  0
   -6.2445    2.0060   27.8662 N   0  0  0  0  0  0  0  0  0  0  0  0
   -7.9822    0.5803   27.3252 C   0  0  0  0  0  0  0  0  0  0  0  0
   -5.4830    0.9041   28.2114 C   0  0  0  0  0  0  0  0  0  0  0  0
   -7.3036   -0.5010   27.7869 C   0  0  0  0  0  0  0  0  0  0  0  0
   -5.9658   -0.3124   28.2256 C   0  0  0  0  0  0  0  0  0  0  0  0
   -8.2028    6.7978   27.1200 C   0  0  0  0  0  0  0  0  0  0  0  0
   -4.2261    1.2524   28.6572 F   0  0  0  0  0  0  0  0  0  0  0  0
   -7.7108    6.9734   28.2527 F   0  0  0  0  0  0  0  0  0  0  0  0
   -8.3272    7.7648   26.3973 F   0  0  0  0  0  0  0  0  0  0  0  0
  -11.3659    3.8330   25.0495 C   0  0  0  0  0  0  0  0  0  0  0  0
  -12.5517    3.4754   25.6539 C   0  0  0  0  0  0  0  0  0  0  0  0
  -12.5748    3.3551   27.1210 C   0  0  0  0  0  0  0  0  0  0  0  0
  -13.8294    3.0412   27.7677 C   0  0  0  0  0  0  0  0  0  0  0  0
  -13.8314    2.8860   29.1861 C   0  0  0  0  0  0  0  0  0  0  0  0
  -12.8778    2.8936   29.8239 C   0  0  0  0  0  0  0  0  0  0  0  0
  -11.5408    3.2486   29.2532 C   0  0  0  0  0  0  0  0  0  0  0  0
  -11.4584    3.4533   27.9051 C   0  0  0  0  0  0  0  0  0  0  0  0
  -11.2900    4.0987   23.6575 C   0  0  0  0  0  0  0  0  0  0  0  0
  -10.2393    4.5405   23.0350 C   0  0  0  0  0  0  0  0  0  0  0  0
  -10.2494    4.7284   21.6026 C   0  0  0  0  0  0  0  0  0  0  0  0
  -12.1873    3.2905   22.7816 C   0  0  0  0  0  0  0  0  0  0  0  0
  -12.2379    3.4474   21.4515 C   0  0  0  0  0  0  0  0  0  0  0  0
  -11.1720    4.1601   20.8449 C   0  0  0  0  0  0  0  0  0  0  0  0
   -7.8512   -1.8292   27.7976 C   0  0  0  0  0  0  0  0  0  0  0  0
   -7.9495   -2.5257   28.7035 O   0  0  0  0  0  0  0  0  0  0  0  0
   -8.7600   -2.0586   26.7061 O   0  0  0  0  0  0  0  0  0  0  0  0
   -9.5057   -3.0877   26.7201 C   0  0  0  0  0  0  0  0  0  0  0  0
   -9.1939   -4.1983   26.1935 C   0  0  0  0  0  0  0  0  0  0  0  0
   -8.2816   -4.2371   25.2437 C   0  0  0  0  0  0  0  0  0  0  0  0
   -7.7358   -5.4394   24.7786 C   0  0  0  0  0  0  0  0  0  0  0  0
   -9.7287   -5.4673   26.4954 C   0  0  0  0  0  0  0  0  0  0  0  0
   -9.3066   -6.6568   26.0015 C   0  0  0  0  0  0  0  0  0  0  0  0
   -8.2651   -6.6066   25.0759 C   0  0  0  0  0  0  0  0  0  0  0  0
  2  3  1  0
  4 13  1  0
 10 14  1  0
 13 15  1  0
 13 16  1  0
  6 17  1  0
 17 18  2  3
 18 19  1  0
 17 25  1  0
 11 31  1  0
 31 32  2  0
 31 33  1  0
 33 34  1  0
 34 35  1  0
 25 26  2  0
 26 27  1  0
 27 30  2  0
 30 29  1  0
 29 28  2  0
 28 25  1  0
  1  2  2  0
  2  7  1  0
  7  6  2  0
  6  5  1  0
  5  4  2  0
  4  1  1  0
 19 20  2  0
 20 21  1  0
 21 22  2  0
 22 23  1  0
 23 24  2  0
 24 19  1  0
  3  8  2  0
  8 10  1  0
 10 12  2  0
 12 11  1  0
 11  9  2  0
  9  3  1  0
 35 36  2  0
 36 37  1  0
 37 40  2  0
 40 39  1  0
 39 38  2  0
 38 35  1  0
M  END
$$$$
