No_9088-complexes_sdf/6BKW-FPZ/2024-09-17-14-21-01/
     RDKit          3D

 32 36  0  0  0  0  0  0  0  0999 V2000
   -7.7129    4.2099   27.0854 C   0  0  0  0  0  0  0  0  0  0  0  0
   -8.2112    3.0637   26.9225 C   0  0  0  0  0  0  0  0  0  0  0  0
   -7.5138    1.9223   27.4249 C   0  0  0  0  0  0  0  0  0  0  0  0
   -8.5309    5.4147   26.8151 C   0  0  0  0  0  0  0  0  0  0  0  0
   -8.1184    6.7672   27.1362 C   0  0  0  0  0  0  0  0  0  0  0  0
   -6.1372    2.1405   27.7998 C   0  0  0  0  0  0  0  0  0  0  0  0
   -5.7091    3.4418   28.0019 C   0  0  0  0  0  0  0  0  0  0  0  0
   -6.4145    4.4584   27.7237 C   0  0  0  0  0  0  0  0  0  0  0  0
   -8.9085    7.8548   26.7633 C   0  0  0  0  0  0  0  0  0  0  0  0
   -5.4943    0.8543   28.1493 C   0  0  0  0  0  0  0  0  0  0  0  0
   -5.9303   -0.3948   28.0683 C   0  0  0  0  0  0  0  0  0  0  0  0
   -7.3129   -0.4391   27.5278 C   0  0  0  0  0  0  0  0  0  0  0  0
   -8.0382    0.6357   27.2155 C   0  0  0  0  0  0  0  0  0  0  0  0
   -9.6821    5.2702   26.0563 C   0  0  0  0  0  0  0  0  0  0  0  0
  -10.2789    4.0796   26.0132 C   0  0  0  0  0  0  0  0  0  0  0  0
   -9.4705    2.8394   26.2788 C   0  0  0  0  0  0  0  0  0  0  0  0
   -4.0352    1.0592   28.7080 C   0  0  0  0  0  0  0  0  0  0  0  0
   -3.6983    0.0928   29.6402 C   0  0  0  0  0  0  0  0  0  0  0  0
   -2.7311   -0.3935   29.8151 C   0  0  0  0  0  0  0  0  0  0  0  0
   -2.3377   -1.3050   30.9704 C   0  0  0  0  0  0  0  0  0  0  0  0
   -3.3916   -1.5679   31.8687 C   0  0  0  0  0  0  0  0  0  0  0  0
   -4.7072   -0.2928   30.7474 C   0  0  0  0  0  0  0  0  0  0  0  0
   -4.5492   -1.0349   31.7090 C   0  0  0  0  0  0  0  0  0  0  0  0
   -5.7114   -1.3116   32.6628 C   0  0  0  0  0  0  0  0  0  0  0  0
   -5.5233   -1.0592   33.9218 N   0  0  0  0  0  0  0  0  0  0  0  0
   -5.3427   -1.9475   34.9061 C   0  0  0  0  0  0  0  0  0  0  0  0
   -5.1392   -1.4045   36.2505 C   0  0  0  0  0  0  0  0  0  0  0  0
   -5.5995   -1.9160   37.4254 C   0  0  0  0  0  0  0  0  0  0  0  0
   -5.4454   -1.2578   38.6559 C   0  0  0  0  0  0  0  0  0  0  0  0
   -4.8491    0.0307   38.7368 C   0  0  0  0  0  0  0  0  0  0  0  0
   -4.3948    0.6092   37.5433 C   0  0  0  0  0  0  0  0  0  0  0  0
   -4.5328   -0.0269   36.3540 C   0  0  0  0  0  0  0  0  0  0  0  0
  2  3  1  0
  6  7  1  0
  1  8  1  0
  7  8  1  0
  5  9  1  0
 10 17  1  0
 17 18  1  0
 23 24  1  0
 24 25  1  0
 25 26  2  3
 26 27  1  0
  5  4  1  0
 18 19  2  0
 19 20  1  0
 20 21  2  0
 21 23  1  0
 23 22  2  0
 22 18  1  0
 27 28  2  0
 28 29  1  0
 29 30  2  0
 30 31  1  0
 31 32  2  0
 32 27  1  0
  3  6  2  0
  6 10  1  0
 10 11  2  0
 11 12  1  0
 12 13  2  0
 13  3  1  0
  1  2  2  0
  2 16  1  0
 16 15  2  0
 15 14  1  0
 14  4  2  0
  4  1  1  0
M  END
$$$$
