No_9012-complexes_sdf/6BKW-FPZ/2024-09-17-14-21-01/
     RDKit          3D

 24 26  0  0  0  0  0  0  0  0999 V2000
   -7.9040    3.9820   27.1177 C   0  0  0  0  0  0  0  0  0  0  0  0
   -8.2057    2.8231   26.8733 C   0  0  0  0  0  0  0  0  0  0  0  0
   -8.7695    5.0740   26.7916 C   0  0  0  0  0  0  0  0  0  0  0  0
   -9.9618    4.7598   26.1630 C   0  0  0  0  0  0  0  0  0  0  0  0
   -9.4200    2.4524   26.2849 C   0  0  0  0  0  0  0  0  0  0  0  0
  -10.2590    3.4815   25.9250 C   0  0  0  0  0  0  0  0  0  0  0  0
   -8.3837    6.4702   27.0872 C   0  0  0  0  0  0  0  0  0  0  0  0
   -8.3914    6.7863   28.2307 F   0  0  0  0  0  0  0  0  0  0  0  0
   -9.2750    7.3331   26.4029 F   0  0  0  0  0  0  0  0  0  0  0  0
   -7.2725    1.6797   27.3009 C   0  0  0  0  0  0  0  0  0  0  0  0
   -5.9769    1.9709   27.7960 C   0  0  0  0  0  0  0  0  0  0  0  0
   -5.1206    0.9013   28.1787 C   0  0  0  0  0  0  0  0  0  0  0  0
   -5.5600   -0.3682   28.1147 C   0  0  0  0  0  0  0  0  0  0  0  0
   -7.6125    0.3260   27.2815 C   0  0  0  0  0  0  0  0  0  0  0  0
   -6.8628   -0.6324   27.7021 C   0  0  0  0  0  0  0  0  0  0  0  0
   -7.1263    6.7492   26.6276 F   0  0  0  0  0  0  0  0  0  0  0  0
   -4.6780   -1.4338   28.6545 C   0  0  0  0  0  0  0  0  0  0  0  0
   -3.6920   -1.1228   29.4590 C   0  0  0  0  0  0  0  0  0  0  0  0
   -2.8178   -2.1076   30.0026 C   0  0  0  0  0  0  0  0  0  0  0  0
   -2.9618   -3.2794   29.6481 C   0  0  0  0  0  0  0  0  0  0  0  0
   -4.5176   -2.7610   28.4208 C   0  0  0  0  0  0  0  0  0  0  0  0
   -3.8515   -3.6911   28.8468 C   0  0  0  0  0  0  0  0  0  0  0  0
  -11.4972    3.1948   25.1828 C   0  0  0  0  0  0  0  0  0  0  0  0
  -12.5951    2.9481   25.8540 C   0  0  0  0  0  0  0  0  0  0  0  0
  3  7  1  0
  7  8  1  0
  7  9  1  0
  2 10  1  0
  7 16  1  0
 13 17  1  0
  6 23  1  0
 23 24  2  0
 10 11  2  0
 11 12  1  0
 12 13  2  0
 13 15  1  0
 15 14  2  0
 14 10  1  0
 17 18  2  0
 18 19  1  0
 19 20  2  0
 20 22  1  0
 22 21  2  0
 21 17  1  0
  1  2  2  0
  2  5  1  0
  5  6  2  0
  6  4  1  0
  4  3  2  0
  3  1  1  0
M  END
$$$$
