No_9039-complexes_sdf/6BKW-FPZ/2024-09-17-14-21-01/
     RDKit          3D

 19 21  0  0  0  0  0  0  0  0999 V2000
   -7.9040    3.9820   27.1177 C   0  0  0  0  0  0  0  0  0  0  0  0
   -7.8663    4.8694   27.9238 C   0  0  0  0  0  0  0  0  0  0  0  0
   -9.0491    3.8523   26.2542 C   0  0  0  0  0  0  0  0  0  0  0  0
   -8.7661    5.9491   27.9690 C   0  0  0  0  0  0  0  0  0  0  0  0
   -9.9295    4.8502   26.2323 C   0  0  0  0  0  0  0  0  0  0  0  0
   -9.8077    5.9288   27.0933 C   0  0  0  0  0  0  0  0  0  0  0  0
   -6.9996    2.9096   27.1565 O   0  0  0  0  0  0  0  0  0  0  0  0
   -7.2903    1.6969   27.7061 C   0  0  0  0  0  0  0  0  0  0  0  0
   -6.1989    0.7609   27.6446 C   0  0  0  0  0  0  0  0  0  0  0  0
   -4.9486    1.3049   27.8942 C   0  0  0  0  0  0  0  0  0  0  0  0
   -3.7980    0.4658   27.9377 C   0  0  0  0  0  0  0  0  0  0  0  0
   -3.9849   -0.8684   27.7271 C   0  0  0  0  0  0  0  0  0  0  0  0
   -5.2044   -1.3901   27.3880 C   0  0  0  0  0  0  0  0  0  0  0  0
   -6.3371   -0.5494   27.3797 C   0  0  0  0  0  0  0  0  0  0  0  0
   -9.0788    2.8172   25.3297 N   0  0  0  0  0  0  0  0  0  0  0  0
   -9.9636    2.7755   24.2983 C   0  0  0  0  0  0  0  0  0  0  0  0
  -10.6997    3.7233   24.0030 C   0  0  0  0  0  0  0  0  0  0  0  0
  -10.8515    4.8126   25.0542 C   0  0  0  0  0  0  0  0  0  0  0  0
   -9.8509    1.7440   23.5290 F   0  0  0  0  0  0  0  0  0  0  0  0
  1  7  1  0
  7  8  1  0
  8  9  1  0
 16 19  1  0
  5 18  2  0
 18 17  1  0
 17 16  2  0
 16 15  1  0
 15  3  2  0
  1  2  2  0
  2  4  1  0
  4  6  2  0
  6  5  1  0
  5  3  1  0
  3  1  1  0
  9 10  2  0
 10 11  1  0
 11 12  2  0
 12 13  1  0
 13 14  2  0
 14  9  1  0
M  END
$$$$
