No_9693-complexes_sdf/6BKW-FPZ/2024-09-17-14-21-01/
     RDKit          3D

 29 32  0  0  0  0  0  0  0  0999 V2000
   -7.2496    3.8871   27.4508 C   0  0  0  0  0  0  0  0  0  0  0  0
   -8.5096    4.0291   27.2770 C   0  0  0  0  0  0  0  0  0  0  0  0
   -9.3451    2.8786   26.9046 C   0  0  0  0  0  0  0  0  0  0  0  0
  -10.6709    3.0505   26.6789 C   0  0  0  0  0  0  0  0  0  0  0  0
   -6.7644    2.5802   27.4391 N   0  0  0  0  0  0  0  0  0  0  0  0
   -7.4578    1.5113   27.2244 C   0  0  0  0  0  0  0  0  0  0  0  0
   -8.7759    1.6690   26.9338 C   0  0  0  0  0  0  0  0  0  0  0  0
  -11.4708    2.4480   27.1534 C   0  0  0  0  0  0  0  0  0  0  0  0
  -12.9240    2.5832   27.1064 C   0  0  0  0  0  0  0  0  0  0  0  0
  -13.3220    3.7010   26.4032 C   0  0  0  0  0  0  0  0  0  0  0  0
  -12.4014    4.5478   25.8217 C   0  0  0  0  0  0  0  0  0  0  0  0
  -11.0706    4.3384   26.0274 C   0  0  0  0  0  0  0  0  0  0  0  0
   -6.7786    0.2279   27.1454 C   0  0  0  0  0  0  0  0  0  0  0  0
   -5.5506    0.0555   27.7536 C   0  0  0  0  0  0  0  0  0  0  0  0
   -4.9366   -1.1026   27.8881 C   0  0  0  0  0  0  0  0  0  0  0  0
   -5.5921   -2.1910   27.3129 C   0  0  0  0  0  0  0  0  0  0  0  0
   -7.3173   -0.9618   26.7897 C   0  0  0  0  0  0  0  0  0  0  0  0
   -6.7689   -2.1391   26.7863 C   0  0  0  0  0  0  0  0  0  0  0  0
   -6.4220    4.8485   27.8731 N   0  0  0  0  0  0  0  0  0  0  0  0
  -14.7926    4.0322   26.2443 C   0  0  0  0  0  0  0  0  0  0  0  0
  -15.3241    4.7251   27.1058 N   0  0  0  0  0  0  0  0  0  0  0  0
  -14.6320    5.0164   28.2169 C   0  0  0  0  0  0  0  0  0  0  0  0
  -15.1789    4.8411   29.4817 C   0  0  0  0  0  0  0  0  0  0  0  0
  -14.3321    4.4726   30.6198 C   0  0  0  0  0  0  0  0  0  0  0  0
  -14.8222    4.3260   31.9202 C   0  0  0  0  0  0  0  0  0  0  0  0
  -16.1764    4.7151   32.1089 C   0  0  0  0  0  0  0  0  0  0  0  0
  -16.9431    5.1709   31.0838 C   0  0  0  0  0  0  0  0  0  0  0  0
  -16.4653    5.3078   29.8366 C   0  0  0  0  0  0  0  0  0  0  0  0
  -15.2450    3.7918   25.1315 O   0  0  0  0  0  0  0  0  0  0  0  0
  3  4  1  0
  6 13  1  0
  1 19  1  0
 10 20  1  0
 20 21  1  0
 21 22  1  0
 20 29  2  0
 22 23  1  0
  4  8  2  0
  8  9  1  0
  9 10  2  0
 10 11  1  0
 11 12  2  0
 12  4  1  0
  1  2  2  0
  2  3  1  0
  3  7  2  0
  7  6  1  0
  6  5  2  0
  5  1  1  0
 23 24  2  0
 24 25  1  0
 25 26  2  0
 26 27  1  0
 27 28  2  0
 28 23  1  0
 13 14  2  0
 14 15  1  0
 15 16  2  0
 16 18  1  0
 18 17  2  0
 17 13  1  0
M  END
$$$$
