No_9998-complexes_sdf/6BKW-FPZ/2024-09-17-14-21-01/
     RDKit          3D

 29 31  0  0  0  0  0  0  0  0999 V2000
   -7.9040    3.9820   27.1177 C   0  0  0  0  0  0  0  0  0  0  0  0
   -8.2057    2.8231   26.8733 C   0  0  0  0  0  0  0  0  0  0  0  0
   -8.7695    5.0740   26.7916 C   0  0  0  0  0  0  0  0  0  0  0  0
   -9.9618    4.7598   26.1630 C   0  0  0  0  0  0  0  0  0  0  0  0
   -9.4200    2.4524   26.2850 C   0  0  0  0  0  0  0  0  0  0  0  0
  -10.2590    3.4815   25.9250 C   0  0  0  0  0  0  0  0  0  0  0  0
   -8.1804    6.4174   27.1235 C   0  0  0  0  0  0  0  0  0  0  0  0
   -8.9656    7.5322   26.8904 N   0  0  0  0  0  0  0  0  0  0  0  0
   -7.0700    6.4722   27.7071 O   0  0  0  0  0  0  0  0  0  0  0  0
   -7.1377    1.4665   27.3431 Cl  0  0  0  0  0  0  0  0  0  0  0  0
  -11.5402    3.2003   25.2112 C   0  0  0  0  0  0  0  0  0  0  0  0
  -11.5014    2.5654   24.1035 N   0  0  0  0  0  0  0  0  0  0  0  0
  -10.9546    1.6461   23.8582 C   0  0  0  0  0  0  0  0  0  0  0  0
  -10.0132    1.4839   23.0577 C   0  0  0  0  0  0  0  0  0  0  0  0
   -9.1783    0.2663   22.8048 C   0  0  0  0  0  0  0  0  0  0  0  0
   -9.3987   -0.8369   23.5457 C   0  0  0  0  0  0  0  0  0  0  0  0
  -10.4572   -0.7931   24.4444 C   0  0  0  0  0  0  0  0  0  0  0  0
  -11.1228    0.3729   24.6956 C   0  0  0  0  0  0  0  0  0  0  0  0
  -12.2022    3.2146   22.9519 C   0  0  2  0  0  0  0  0  0  0  0  0
  -13.4507    3.6302   23.3017 C   0  0  0  0  0  0  0  0  0  0  0  0
  -12.2334    2.3953   21.7238 C   0  0  1  0  0  0  0  0  0  0  0  0
  -11.2391    4.5177   22.6184 C   0  0  0  0  0  0  0  0  0  0  0  0
  -14.4033    3.9857   22.4839 C   0  0  0  0  0  0  0  0  0  0  0  0
  -13.1483    2.8164   20.6972 C   0  0  0  0  0  0  0  0  0  0  0  0
  -14.3569    3.3200   21.1653 C   0  0  0  0  0  0  0  0  0  0  0  0
  -10.4422   -1.9323   25.3045 C   0  0  0  0  0  0  0  0  0  0  0  0
  -11.1534   -1.9500   26.2597 O   0  0  0  0  0  0  0  0  0  0  0  0
   -9.8162   -2.9656   25.0223 O   0  0  0  0  0  0  0  0  0  0  0  0
  -10.9092    1.8753   21.2652 C   0  0  0  0  0  0  0  0  0  0  0  0
  3  7  1  0
  7  8  1  0
  7  9  2  0
  2 10  1  0
  6 11  1  0
 11 12  1  0
 12 13  1  0
 12 19  1  0
 19 20  1  0
 19 21  1  0
 19 22  1  6
 23 25  1  0
 24 25  1  0
 17 26  1  0
 26 27  2  0
 26 28  1  0
 21 29  1  6
 20 23  1  0
 24 21  1  0
 13 14  2  0
 14 15  1  0
 15 16  2  0
 16 17  1  0
 17 18  2  0
 18 13  1  0
  1  2  2  0
  2  5  1  0
  5  6  2  0
  6  4  1  0
  4  3  2  0
  3  1  1  0
M  END
$$$$
