No_912-complexes_sdf/6BKW-FPZ/2024-09-17-14-21-01/
     RDKit          3D

 18 20  0  0  0  0  0  0  0  0999 V2000
   -7.9040    3.9820   27.1177 C   0  0  0  0  0  0  0  0  0  0  0  0
   -7.8663    4.8694   27.9238 C   0  0  0  0  0  0  0  0  0  0  0  0
   -9.0806    3.1428   27.1220 C   0  0  0  0  0  0  0  0  0  0  0  0
   -8.9544    1.8782   26.5467 C   0  0  0  0  0  0  0  0  0  0  0  0
   -8.5076    6.0545   27.5968 C   0  0  0  0  0  0  0  0  0  0  0  0
   -8.0382    1.0494   27.0538 C   0  0  0  0  0  0  0  0  0  0  0  0
   -9.9117    5.7580   27.1743 C   0  0  0  0  0  0  0  0  0  0  0  0
  -10.2386    4.0696   26.9012 C   0  0  0  0  0  0  0  0  0  0  0  0
   -7.9510   -0.3313   26.7310 C   0  0  0  0  0  0  0  0  0  0  0  0
   -8.9760   -0.8069   25.9467 C   0  0  0  0  0  0  0  0  0  0  0  0
   -9.8792    1.2281   25.7322 C   0  0  0  0  0  0  0  0  0  0  0  0
   -9.9094   -0.0171   25.4403 C   0  0  0  0  0  0  0  0  0  0  0  0
  -11.5485    3.7238   26.7354 C   0  0  0  0  0  0  0  0  0  0  0  0
  -12.4550    3.8402   27.7990 C   0  0  0  0  0  0  0  0  0  0  0  0
  -13.7870    3.4807   27.7099 C   0  0  0  0  0  0  0  0  0  0  0  0
  -14.1280    2.8848   26.4748 C   0  0  0  0  0  0  0  0  0  0  0  0
  -13.2902    2.8052   25.4246 C   0  0  0  0  0  0  0  0  0  0  0  0
  -11.9875    3.2748   25.5418 C   0  0  0  0  0  0  0  0  0  0  0  0
  3  4  1  0
  8 13  1  0
  4  6  2  0
  6  9  1  0
  9 10  2  0
 10 12  1  0
 12 11  2  0
 11  4  1  0
  1  2  2  0
  2  5  1  0
  5  7  2  0
  7  8  1  0
  8  3  2  0
  3  1  1  0
 13 14  2  0
 14 15  1  0
 15 16  2  0
 16 17  1  0
 17 18  2  0
 18 13  1  0
M  END
$$$$
