No_9373-complexes_sdf/6BKW-FPZ/2024-09-17-14-21-01/
     RDKit          3D

 13 14  0  0  0  0  0  0  0  0999 V2000
   -7.7129    4.2099   27.0854 C   0  0  0  0  0  0  0  0  0  0  0  0
   -7.7814    5.1722   27.8972 C   0  0  0  0  0  0  0  0  0  0  0  0
   -7.3155    2.9700   27.6145 C   0  0  0  0  0  0  0  0  0  0  0  0
   -6.9774    2.0071   26.9623 C   0  0  0  0  0  0  0  0  0  0  0  0
   -7.7053    1.0156   26.7620 C   0  0  0  0  0  0  0  0  0  0  0  0
   -7.2939   -0.2490   26.9657 C   0  0  0  0  0  0  0  0  0  0  0  0
   -5.9289   -0.4818   27.2260 C   0  0  0  0  0  0  0  0  0  0  0  0
   -5.0838    0.5153   27.5188 C   0  0  0  0  0  0  0  0  0  0  0  0
   -5.6398    1.6525   27.6156 C   0  0  0  0  0  0  0  0  0  0  0  0
   -8.2090    6.5067   27.3982 C   0  0  0  0  0  0  0  0  0  0  0  0
   -8.9879    6.6177   26.2159 C   0  0  0  0  0  0  0  0  0  0  0  0
   -9.1166    5.3947   25.4962 C   0  0  0  0  0  0  0  0  0  0  0  0
   -8.6123    4.1812   25.9831 C   0  0  0  0  0  0  0  0  0  0  0  0
  3  4  1  0
  3  1  1  0
  1  2  2  0
  2 10  1  0
 10 11  2  0
 11 12  1  0
 12 13  2  0
 13  1  1  0
  4  5  2  0
  5  6  1  0
  6  7  2  0
  7  8  1  0
  8  9  2  0
  9  4  1  0
M  END
$$$$
