No_9597-complexes_sdf/6BKW-FPZ/2024-09-17-14-21-01/
     RDKit          3D

 20 21  0  0  0  0  0  0  0  0999 V2000
   -7.7129    4.2099   27.0854 C   0  0  0  0  0  0  0  0  0  0  0  0
   -8.9133    4.4736   27.0998 C   0  0  0  0  0  0  0  0  0  0  0  0
   -9.4643    5.5426   27.7628 C   0  0  0  0  0  0  0  0  0  0  0  0
   -6.8373    4.9942   27.9785 C   0  0  0  0  0  0  0  0  0  0  0  0
   -7.3717    6.0428   28.6744 C   0  0  0  0  0  0  0  0  0  0  0  0
   -8.6869    6.3937   28.5345 C   0  0  0  0  0  0  0  0  0  0  0  0
   -9.8077    3.6184   26.2213 C   0  0  0  0  0  0  0  0  0  0  0  0
   -9.9184    4.0253   24.8835 C   0  0  0  0  0  0  0  0  0  0  0  0
  -10.5346    3.2895   23.9116 C   0  0  0  0  0  0  0  0  0  0  0  0
  -11.0477    2.0486   24.2561 C   0  0  0  0  0  0  0  0  0  0  0  0
  -10.2679    2.3683   26.5309 C   0  0  0  0  0  0  0  0  0  0  0  0
  -10.9124    1.5391   25.5926 C   0  0  0  0  0  0  0  0  0  0  0  0
  -10.0777    1.8440   27.9143 C   0  0  1  0  0  0  0  0  0  0  0  0
  -10.6889    3.8494   22.5544 C   0  0  0  0  0  0  0  0  0  0  0  0
  -10.2539    3.1996   21.4428 C   0  0  0  0  0  0  0  0  0  0  0  0
  -10.7868    2.2204   28.7984 C   0  0  0  0  0  0  0  0  0  0  0  0
   -9.1466    0.7033   28.0242 C   0  0  0  0  0  0  0  0  0  0  0  0
   -7.8409    0.8025   27.6137 C   0  0  0  0  0  0  0  0  0  0  0  0
   -6.9052   -0.2354   27.7623 C   0  0  0  0  0  0  0  0  0  0  0  0
   -7.2733   -1.4248   28.2654 C   0  0  0  0  0  0  0  0  0  0  0  0
  2  7  1  0
 11 13  1  0
  9 14  1  0
 14 15  1  0
 13 16  1  6
 13 17  1  0
 17 18  1  0
 18 19  2  3
 19 20  1  0
  7  8  2  0
  8  9  1  0
  9 10  2  0
 10 12  1  0
 12 11  2  0
 11  7  1  0
  1  2  2  0
  2  3  1  0
  3  6  2  0
  6  5  1  0
  5  4  2  0
  4  1  1  0
M  END
$$$$
