No_9500-complexes_sdf/6BKW-FPZ/2024-09-17-14-21-01/
     RDKit          3D

  7  7  0  0  0  0  0  0  0  0999 V2000
   -7.9040    3.9820   27.1177 C   0  0  0  0  0  0  0  0  0  0  0  0
   -8.2057    2.8231   26.8733 C   0  0  0  0  0  0  0  0  0  0  0  0
   -8.2891    5.2951   27.4615 C   0  0  0  0  0  0  0  0  0  0  0  0
   -7.5393    6.3974   27.6161 C   0  0  0  0  0  0  0  0  0  0  0  0
   -9.5202    2.5660   26.4165 C   0  0  0  0  0  0  0  0  0  0  0  0
  -10.4395    3.6459   26.6082 C   0  0  0  0  0  0  0  0  0  0  0  0
   -9.7472    5.3601   27.1513 C   0  0  0  0  0  0  0  0  0  0  0  0
  3  4  1  0
  1  2  2  0
  2  5  1  0
  5  6  2  0
  6  7  1  0
  7  3  2  0
  3  1  1  0
M  END
$$$$
