No_9720-complexes_sdf/6BKW-FPZ/2024-09-17-14-21-01/
     RDKit          3D

 19 20  0  0  0  0  0  0  0  0999 V2000
   -7.9040    3.9820   27.1177 C   0  0  0  0  0  0  0  0  0  0  0  0
   -7.8663    4.8694   27.9238 C   0  0  0  0  0  0  0  0  0  0  0  0
   -9.0501    3.8017   26.2617 C   0  0  0  0  0  0  0  0  0  0  0  0
  -10.0189    4.7608   26.3707 C   0  0  0  0  0  0  0  0  0  0  0  0
   -8.6973    5.9722   27.8968 C   0  0  0  0  0  0  0  0  0  0  0  0
   -9.8216    5.8946   27.1241 C   0  0  0  0  0  0  0  0  0  0  0  0
   -9.1445    2.6271   25.4265 C   0  0  0  0  0  0  0  0  0  0  0  0
  -10.1480    1.8402   25.6891 C   0  0  2  0  0  0  0  0  0  0  0  0
  -10.1535    0.6589   25.0443 C   0  0  0  0  0  0  0  0  0  0  0  0
   -9.5218    0.4827   24.0453 C   0  0  0  0  0  0  0  0  0  0  0  0
   -9.1560   -0.8035   23.5796 C   0  0  0  0  0  0  0  0  0  0  0  0
   -9.7813   -1.8791   24.1105 C   0  0  0  0  0  0  0  0  0  0  0  0
  -10.6094   -1.7212   25.1476 C   0  0  0  0  0  0  0  0  0  0  0  0
  -10.7200   -0.4937   25.7498 C   0  0  0  0  0  0  0  0  0  0  0  0
  -11.3261    2.2228   26.4269 C   0  0  0  0  0  0  0  0  0  0  0  0
  -12.5150    2.4302   25.9985 C   0  0  0  0  0  0  0  0  0  0  0  0
  -13.5938    2.6998   26.8260 C   0  0  0  0  0  0  0  0  0  0  0  0
  -13.3725    2.8353   28.2171 C   0  0  0  0  0  0  0  0  0  0  0  0
  -12.1002    2.6435   28.7824 C   0  0  0  0  0  0  0  0  0  0  0  0
  3  7  1  0
  8  7  1  6
  8  9  1  0
  8 15  1  0
 15 16  2  3
 16 17  1  0
 17 18  2  3
 18 19  1  0
  9 10  2  0
 10 11  1  0
 11 12  2  0
 12 13  1  0
 13 14  2  0
 14  9  1  0
  1  2  2  0
  2  5  1  0
  5  6  2  0
  6  4  1  0
  4  3  2  0
  3  1  1  0
M  END
$$$$
