No_9834-complexes_sdf/6BKW-FPZ/2024-09-17-14-21-01/
     RDKit          3D

 39 45  0  0  0  0  0  0  0  0999 V2000
   -7.7129    4.2099   27.0854 C   0  0  0  0  0  0  0  0  0  0  0  0
   -8.2112    3.0637   26.9225 C   0  0  0  0  0  0  0  0  0  0  0  0
   -7.0021    4.5281   28.2396 C   0  0  0  0  0  0  0  0  0  0  0  0
   -7.5497    1.9016   27.4549 C   0  0  0  0  0  0  0  0  0  0  0  0
   -8.0831    0.6050   27.2852 C   0  0  0  0  0  0  0  0  0  0  0  0
   -9.3547    0.5536   26.6944 C   0  0  0  0  0  0  0  0  0  0  0  0
  -10.0285    1.6221   26.2018 C   0  0  0  0  0  0  0  0  0  0  0  0
   -9.4618    2.8627   26.3003 C   0  0  0  0  0  0  0  0  0  0  0  0
   -8.7422    5.3493   26.8048 C   0  0  0  0  0  0  0  0  0  0  0  0
   -8.3196    6.7455   27.0439 C   0  0  0  0  0  0  0  0  0  0  0  0
   -9.2232    7.7294   26.5208 C   0  0  0  0  0  0  0  0  0  0  0  0
   -9.6619    5.0683   25.8282 C   0  0  0  0  0  0  0  0  0  0  0  0
  -10.1761    3.9122   25.7227 C   0  0  0  0  0  0  0  0  0  0  0  0
   -7.0232    6.9722   27.6004 C   0  0  0  0  0  0  0  0  0  0  0  0
   -6.6329    5.8613   28.3337 N   0  0  0  0  0  0  0  0  0  0  0  0
   -7.3797   -0.5331   27.8550 C   0  0  0  0  0  0  0  0  0  0  0  0
   -8.0068   -1.7335   28.1372 C   0  0  0  0  0  0  0  0  0  0  0  0
   -9.4085   -1.7492   27.6792 C   0  0  0  0  0  0  0  0  0  0  0  0
  -10.0090   -0.7192   26.9976 C   0  0  0  0  0  0  0  0  0  0  0  0
  -10.9169    1.0977   24.8441 Cl  0  0  0  0  0  0  0  0  0  0  0  0
  -10.0815   -2.9010   27.8903 F   0  0  0  0  0  0  0  0  0  0  0  0
   -5.9510   -0.3655   28.2401 C   0  0  0  0  0  0  0  0  0  0  0  0
   -5.0944   -0.8368   27.5620 C   0  0  0  0  0  0  0  0  0  0  0  0
   -5.1272   -1.6635   26.4366 C   0  0  0  0  0  0  0  0  0  0  0  0
   -5.9092   -1.8334   25.8026 C   0  0  0  0  0  0  0  0  0  0  0  0
   -6.0211   -2.0808   24.6854 C   0  0  0  0  0  0  0  0  0  0  0  0
   -7.1981   -2.0899   23.8207 C   0  0  0  0  0  0  0  0  0  0  0  0
   -7.1831   -2.0735   22.4956 C   0  0  0  0  0  0  0  0  0  0  0  0
   -5.9329   -2.1154   21.8594 C   0  0  0  0  0  0  0  0  0  0  0  0
   -4.7966   -2.2537   22.5179 C   0  0  0  0  0  0  0  0  0  0  0  0
   -4.8234   -2.0915   23.9272 C   0  0  0  0  0  0  0  0  0  0  0  0
   -3.7417   -2.1620   26.1339 C   0  0  0  0  0  0  0  0  0  0  0  0
   -3.6454   -2.1621   24.6301 N   0  0  0  0  0  0  0  0  0  0  0  0
   -3.6595   -0.4861   28.2218 C   0  0  0  0  0  0  0  0  0  0  0  0
   -3.7070    0.3850   29.2733 C   0  0  0  0  0  0  0  0  0  0  0  0
   -4.8769    0.8344   29.8903 C   0  0  0  0  0  0  0  0  0  0  0  0
   -5.9107    0.4770   29.3803 C   0  0  0  0  0  0  0  0  0  0  0  0
   -8.2917   -2.0507   21.7458 F   0  0  0  0  0  0  0  0  0  0  0  0
   -7.4808   -2.7005   28.6308 F   0  0  0  0  0  0  0  0  0  0  0  0
  1  2  1  0
  9 12  1  0
  8 13  1  0
 12 13  1  0
  7 20  1  0
 18 21  1  0
 16 22  1  0
 23 24  1  0
 28 38  1  0
 17 39  1  0
 11 10  1  0
  1  3  2  0
  3 15  1  0
 15 14  2  0
 14 10  1  0
 10  9  2  0
  9  1  1  0
 22 23  1  0
 23 34  2  0
 34 35  1  0
 35 36  2  0
 36 37  1  0
 37 22  2  0
 24 25  2  0
 25 26  1  0
 31 33  1  0
 33 32  2  0
 32 24  1  0
  2  4  2  0
  4  5  1  0
  6  7  1  0
  7  8  2  0
  8  2  1  0
 26 27  2  0
 27 28  1  0
 28 29  2  0
 29 30  1  0
 30 31  2  0
 31 26  1  0
  5  6  2  0
  6 19  1  0
 19 18  2  0
 18 17  1  0
 17 16  2  0
 16  5  1  0
M  END
$$$$
