No_954-complexes_sdf/6BKW-FPZ/2024-09-17-14-21-01/
     RDKit          3D

 23 26  0  0  0  0  0  0  0  0999 V2000
   -7.7129    4.2099   27.0854 C   0  0  0  0  0  0  0  0  0  0  0  0
   -7.7814    5.1722   27.8972 C   0  0  0  0  0  0  0  0  0  0  0  0
   -7.3155    2.9700   27.6145 C   0  0  0  0  0  0  0  0  0  0  0  0
   -7.6814    1.8188   26.9581 C   0  0  0  0  0  0  0  0  0  0  0  0
   -8.6377    1.9131   25.9324 C   0  0  0  0  0  0  0  0  0  0  0  0
   -9.1866    3.0673   25.6037 C   0  0  0  0  0  0  0  0  0  0  0  0
   -8.8394    4.1752   26.2513 C   0  0  0  0  0  0  0  0  0  0  0  0
   -8.2486    6.4747   27.5719 N   0  0  0  0  0  0  0  0  0  0  0  0
   -9.0953    6.6391   26.5260 C   0  0  0  0  0  0  0  0  0  0  0  0
   -9.4505    5.4775   25.8556 C   0  0  0  0  0  0  0  0  0  0  0  0
   -7.0267    0.5350   27.2749 C   0  0  0  0  0  0  0  0  0  0  0  0
   -7.6306   -0.6881   27.0990 C   0  0  0  0  0  0  0  0  0  0  0  0
   -8.3356   -1.1724   27.8984 C   0  0  0  0  0  0  0  0  0  0  0  0
   -9.0868   -2.4580   27.7767 C   0  0  0  0  0  0  0  0  0  0  0  0
   -8.9131   -3.0609   26.5808 C   0  0  0  0  0  0  0  0  0  0  0  0
   -7.5122   -1.3948   25.8724 C   0  0  0  0  0  0  0  0  0  0  0  0
   -8.1099   -2.5464   25.6484 C   0  0  0  0  0  0  0  0  0  0  0  0
   -5.6450    0.5382   27.7913 C   0  0  0  0  0  0  0  0  0  0  0  0
   -4.6548    1.1038   27.0823 C   0  0  0  0  0  0  0  0  0  0  0  0
   -3.3220    0.6660   27.3680 C   0  0  0  0  0  0  0  0  0  0  0  0
   -2.9930   -0.0575   28.5570 C   0  0  0  0  0  0  0  0  0  0  0  0
   -5.3813    0.0996   29.1358 C   0  0  0  0  0  0  0  0  0  0  0  0
   -4.0000   -0.2190   29.4890 C   0  0  0  0  0  0  0  0  0  0  0  0
  4 11  1  0
 11 12  1  0
 11 18  1  0
 12 13  2  0
 13 14  1  0
 14 15  2  0
 15 17  1  0
 17 16  2  0
 16 12  1  0
  1  2  2  0
  2  8  1  0
  8  9  2  0
  9 10  1  0
 10  7  2  0
 18 19  2  0
 19 20  1  0
 20 21  2  0
 21 23  1  0
 23 22  2  0
 22 18  1  0
  1  3  1  0
  3  4  2  0
  4  5  1  0
  5  6  2  0
  6  7  1  0
  7  1  1  0
M  END
$$$$
