No_9364-complexes_sdf/6BKW-FPZ/2024-09-17-14-21-01/
     RDKit          3D

 17 19  0  0  0  0  0  0  0  0999 V2000
   -7.7129    4.2099   27.0854 C   0  0  0  0  0  0  0  0  0  0  0  0
   -7.7814    5.1722   27.8972 C   0  0  0  0  0  0  0  0  0  0  0  0
   -8.8998    3.8713   26.3707 C   0  0  0  0  0  0  0  0  0  0  0  0
   -8.9563    2.6796   25.5490 C   0  0  0  0  0  0  0  0  0  0  0  0
   -8.8131    6.1334   27.9344 C   0  0  0  0  0  0  0  0  0  0  0  0
   -9.9804    5.8121   27.1929 C   0  0  0  0  0  0  0  0  0  0  0  0
   -9.9861    4.6836   26.4532 C   0  0  0  0  0  0  0  0  0  0  0  0
   -9.8430    2.5340   24.5239 C   0  0  0  0  0  0  0  0  0  0  0  0
  -10.8827    3.5687   24.4657 C   0  0  0  0  0  0  0  0  0  0  0  0
  -10.9951    4.5196   25.4154 C   0  0  0  0  0  0  0  0  0  0  0  0
  -11.9527    3.3429   23.4668 C   0  0  0  0  0  0  0  0  0  0  0  0
  -13.0421    2.6321   23.6735 C   0  0  0  0  0  0  0  0  0  0  0  0
  -14.0317    2.5837   22.8061 C   0  0  0  0  0  0  0  0  0  0  0  0
  -11.6912    4.0127   22.2435 C   0  0  0  0  0  0  0  0  0  0  0  0
  -12.6714    3.9574   21.2319 C   0  0  0  0  0  0  0  0  0  0  0  0
  -13.8398    3.2589   21.5077 C   0  0  0  0  0  0  0  0  0  0  0  0
   -6.6911    5.5641   28.6551 O   0  0  0  0  0  0  0  0  0  0  0  0
  9 11  1  0
  2 17  1  0
  1  2  2  0
  2  5  1  0
  5  6  2  0
  6  7  1  0
  3  1  1  0
 11 12  2  0
 12 13  1  0
 13 16  2  0
 16 15  1  0
 15 14  2  0
 14 11  1  0
  3  4  2  0
  4  8  1  0
  8  9  2  0
  9 10  1  0
 10  7  2  0
  7  3  1  0
M  END
$$$$
