No_9343-complexes_sdf/6BKW-FPZ/2024-09-17-14-21-01/
     RDKit          3D

 24 25  0  0  0  0  0  0  0  0999 V2000
   -7.9040    3.9820   27.1177 C   0  0  0  0  0  0  0  0  0  0  0  0
   -9.0711    4.3164   27.0630 C   0  0  0  0  0  0  0  0  0  0  0  0
   -9.9692    3.7224   26.1073 C   0  0  0  0  0  0  0  0  0  0  0  0
   -6.9787    4.6761   28.1003 C   0  0  0  0  0  0  0  0  0  0  0  0
   -9.4538    2.6801   25.3673 C   0  0  0  0  0  0  0  0  0  0  0  0
   -8.1927    2.1957   25.6621 C   0  0  0  0  0  0  0  0  0  0  0  0
   -7.4333    2.8255   26.6299 C   0  0  0  0  0  0  0  0  0  0  0  0
  -10.3181    2.0008   24.3846 C   0  0  2  0  0  0  0  0  0  0  0  0
  -10.1839    1.0212   24.5649 Br  0  0  0  0  0  0  0  0  0  0  0  0
   -5.9137    4.2197   28.3742 F   0  0  0  0  0  0  0  0  0  0  0  0
   -7.7046    5.1267   29.2052 F   0  0  0  0  0  0  0  0  0  0  0  0
   -6.8130    5.9208   27.4548 F   0  0  0  0  0  0  0  0  0  0  0  0
   -9.7851    2.8976   23.0923 C   0  0  0  0  0  0  0  0  0  0  0  0
  -10.4359    4.1298   22.8807 C   0  0  0  0  0  0  0  0  0  0  0  0
  -11.1359    4.7819   23.9808 C   0  0  0  0  0  0  0  0  0  0  0  0
  -10.5521    4.6917   25.3401 C   0  0  0  0  0  0  0  0  0  0  0  0
  -11.7408    2.6539   24.5363 C   0  0  2  0  0  0  0  0  0  0  0  0
  -12.2665    2.2509   25.7356 C   0  0  0  0  0  0  0  0  0  0  0  0
  -12.6716    2.0349   23.4435 C   0  0  0  0  0  0  0  0  0  0  0  0
  -13.3468    3.1418   26.2143 C   0  0  0  0  0  0  0  0  0  0  0  0
  -13.8717    3.0423   27.5436 C   0  0  0  0  0  0  0  0  0  0  0  0
  -14.5749    4.0754   28.0848 C   0  0  0  0  0  0  0  0  0  0  0  0
  -15.0021    5.1878   27.2503 C   0  0  0  0  0  0  0  0  0  0  0  0
  -14.4959    5.2199   25.9484 C   0  0  0  0  0  0  0  0  0  0  0  0
  1  4  1  0
  5  8  1  0
  8  9  1  6
  4 10  1  0
  4 11  1  0
  4 12  1  0
  8 13  1  0
 13 14  2  0
 14 15  1  0
  3 16  1  0
 15 16  1  0
  8 17  1  0
 17 18  1  0
 17 19  1  6
 18 20  2  3
 20 21  1  0
 21 22  2  3
 22 23  1  0
 23 24  2  0
  1  2  2  0
  2  3  1  0
  3  5  2  0
  5  6  1  0
  6  7  2  0
  7  1  1  0
M  END
$$$$
