No_9975-complexes_sdf/6BKW-FPZ/2024-09-17-14-21-01/
     RDKit          3D

 13 14  0  0  0  0  0  0  0  0999 V2000
   -7.2496    3.8871   27.4508 C   0  0  0  0  0  0  0  0  0  0  0  0
   -7.6161    2.7143   27.1523 C   0  0  0  0  0  0  0  0  0  0  0  0
   -7.1618    1.8631   27.5232 C   0  0  0  0  0  0  0  0  0  0  0  0
   -8.0384    5.0866   27.3232 C   0  0  0  0  0  0  0  0  0  0  0  0
   -9.1224    5.1097   26.4856 C   0  0  0  0  0  0  0  0  0  0  0  0
   -8.9186    2.6660   26.4794 C   0  0  0  0  0  0  0  0  0  0  0  0
   -9.6149    3.8296   26.1383 C   0  0  0  0  0  0  0  0  0  0  0  0
   -5.7127    1.8472   28.0329 C   0  0  0  0  0  0  0  0  0  0  0  0
   -5.0662    0.5534   28.3485 C   0  0  0  0  0  0  0  0  0  0  0  0
   -5.7386   -0.5894   28.2516 C   0  0  0  0  0  0  0  0  0  0  0  0
   -7.5417    0.4037   27.5719 C   0  0  0  0  0  0  0  0  0  0  0  0
   -6.9838   -0.6502   27.9235 C   0  0  0  0  0  0  0  0  0  0  0  0
   -7.3458    6.6364   27.8526 Cl  0  0  0  0  0  0  0  0  0  0  0  0
  2  3  1  0
  4 13  1  0
  3  8  2  0
  8  9  1  0
  9 10  2  0
 10 12  1  0
 12 11  2  0
 11  3  1  0
  1  2  2  0
  2  6  1  0
  6  7  2  0
  7  5  1  0
  5  4  2  0
  4  1  1  0
M  END
$$$$
