No_9650-complexes_sdf/6BKW-FPZ/2024-09-17-14-21-01/
     RDKit          3D

 17 18  0  0  0  0  0  0  0  0999 V2000
   -7.9040    3.9820   27.1177 C   0  0  0  0  0  0  0  0  0  0  0  0
   -8.2057    2.8231   26.8733 C   0  0  0  0  0  0  0  0  0  0  0  0
   -9.2962    2.4021   26.1155 C   0  0  0  0  0  0  0  0  0  0  0  0
   -8.7358    5.0662   26.5917 C   0  0  0  0  0  0  0  0  0  0  0  0
   -9.7618    4.7023   25.7546 C   0  0  0  0  0  0  0  0  0  0  0  0
  -10.0066    3.4105   25.4922 C   0  0  0  0  0  0  0  0  0  0  0  0
   -8.3943    6.4760   26.8801 C   0  0  0  0  0  0  0  0  0  0  0  0
   -8.0394    6.8605   28.0789 N   0  0  0  0  0  0  0  0  0  0  0  0
   -8.5968    7.4035   25.9607 N   0  0  0  0  0  0  0  0  0  0  0  0
   -7.3516    1.6731   27.4740 C   0  0  0  0  0  0  0  0  0  0  0  0
   -6.1125    1.9456   27.8524 N   0  0  0  0  0  0  0  0  0  0  0  0
   -5.3333    0.8819   28.3106 C   0  0  0  0  0  0  0  0  0  0  0  0
   -5.7976   -0.3694   28.3213 C   0  0  0  0  0  0  0  0  0  0  0  0
   -7.6662    0.3290   27.4595 C   0  0  0  0  0  0  0  0  0  0  0  0
   -6.9956   -0.6431   27.9307 C   0  0  0  0  0  0  0  0  0  0  0  0
   -4.0304    1.3075   28.7540 N   0  0  0  0  0  0  0  0  0  0  0  0
   -7.6251   -2.2166   27.9899 Cl  0  0  0  0  0  0  0  0  0  0  0  0
  4  7  1  0
  7  8  2  0
  7  9  1  0
  2 10  1  0
 12 16  1  0
 15 17  1  0
  1  2  2  0
  2  3  1  0
  3  6  2  0
  6  5  1  0
  5  4  2  0
  4  1  1  0
 10 11  2  0
 11 12  1  0
 12 13  2  0
 13 15  1  0
 15 14  2  0
 14 10  1  0
M  END
$$$$
