No_9934-complexes_sdf/6BKW-FPZ/2024-09-17-14-21-01/
     RDKit          3D

 12 13  0  0  0  0  0  0  0  0999 V2000
   -7.9040    3.9820   27.1177 C   0  0  0  0  0  0  0  0  0  0  0  0
   -7.8663    4.8694   27.9238 C   0  0  0  0  0  0  0  0  0  0  0  0
   -9.0501    3.8017   26.2617 C   0  0  0  0  0  0  0  0  0  0  0  0
   -9.1826    2.7026   25.3575 C   0  0  0  0  0  0  0  0  0  0  0  0
   -8.6940    6.0131   27.8614 C   0  0  0  0  0  0  0  0  0  0  0  0
   -9.7382    4.9916   26.1006 C   0  0  0  0  0  0  0  0  0  0  0  0
   -9.4392    5.9832   26.9279 C   0  0  0  0  0  0  0  0  0  0  0  0
   -8.7267    1.4550   25.7835 C   0  0  0  0  0  0  0  0  0  0  0  0
   -8.9030    0.3423   24.9605 C   0  0  0  0  0  0  0  0  0  0  0  0
   -9.5237    0.5300   23.7370 C   0  0  0  0  0  0  0  0  0  0  0  0
   -9.7983    2.7038   24.0893 C   0  0  0  0  0  0  0  0  0  0  0  0
   -9.9224    1.7159   23.3087 C   0  0  0  0  0  0  0  0  0  0  0  0
  3  4  1  0
  4  8  2  0
  8  9  1  0
  9 10  2  0
 10 12  1  0
 12 11  2  0
 11  4  1  0
  1  2  2  0
  2  5  1  0
  5  7  2  0
  7  6  1  0
  6  3  2  0
  3  1  1  0
M  END
$$$$
