No_9921-complexes_sdf/6BKW-FPZ/2024-09-17-14-21-01/
     RDKit          3D

 16 17  0  0  0  0  0  0  0  0999 V2000
   -7.9040    3.9820   27.1177 C   0  0  0  0  0  0  0  0  0  0  0  0
   -7.8663    4.8694   27.9238 C   0  0  0  0  0  0  0  0  0  0  0  0
   -9.0953    3.1697   27.0532 C   0  0  0  0  0  0  0  0  0  0  0  0
   -9.1405    2.0104   26.1761 C   0  0  0  0  0  0  0  0  0  0  0  0
   -8.9115    5.6986   28.0087 C   0  0  0  0  0  0  0  0  0  0  0  0
   -8.1623    1.2116   26.0953 C   0  0  0  0  0  0  0  0  0  0  0  0
  -10.2314    5.1888   27.7868 C   0  0  0  0  0  0  0  0  0  0  0  0
  -10.2614    3.9815   27.1493 C   0  0  0  0  0  0  0  0  0  0  0  0
   -8.2040   -0.0471   25.4096 C   0  0  0  0  0  0  0  0  0  0  0  0
   -9.3562   -0.2626   24.7037 C   0  0  0  0  0  0  0  0  0  0  0  0
  -10.2326    1.5714   25.4421 C   0  0  0  0  0  0  0  0  0  0  0  0
  -10.3398    0.5609   24.6970 C   0  0  0  0  0  0  0  0  0  0  0  0
   -6.7072    5.5226   28.2292 F   0  0  0  0  0  0  0  0  0  0  0  0
   -7.0390   -0.9681   25.4634 C   0  0  0  0  0  0  0  0  0  0  0  0
   -6.0761   -0.8023   26.0021 O   0  0  0  0  0  0  0  0  0  0  0  0
   -7.1745   -2.0402   24.6666 O   0  0  0  0  0  0  0  0  0  0  0  0
  3  4  1  0
  2 13  1  0
  9 14  1  0
 14 15  1  0
 14 16  2  0
  4  6  2  0
  6  9  1  0
  9 10  2  0
 10 12  1  0
 12 11  2  0
 11  4  1  0
  1  2  2  0
  2  5  1  0
  5  7  2  0
  7  8  1  0
  8  3  2  0
  3  1  1  0
M  END
$$$$
