No_9554-complexes_sdf/6BKW-FPZ/2024-09-17-14-21-01/
     RDKit          3D

 19 20  0  0  0  0  0  0  0  0999 V2000
   -7.7129    4.2099   27.0854 C   0  0  0  0  0  0  0  0  0  0  0  0
   -7.7814    5.1722   27.8972 C   0  0  0  0  0  0  0  0  0  0  0  0
   -8.8998    3.8713   26.3707 C   0  0  0  0  0  0  0  0  0  0  0  0
   -9.9938    4.6774   26.5446 C   0  0  0  0  0  0  0  0  0  0  0  0
   -8.7789    6.1536   27.9256 C   0  0  0  0  0  0  0  0  0  0  0  0
   -9.8035    5.7882   27.0379 C   0  0  0  0  0  0  0  0  0  0  0  0
   -8.9143    2.5905   25.6075 C   0  0  0  0  0  0  0  0  0  0  0  0
   -8.3232    1.4425   26.1932 C   0  0  0  0  0  0  0  0  0  0  0  0
   -8.3494    0.2430   25.5341 C   0  0  0  0  0  0  0  0  0  0  0  0
   -8.8915    0.2385   24.2418 C   0  0  0  0  0  0  0  0  0  0  0  0
   -9.4552    1.3750   23.6530 C   0  0  0  0  0  0  0  0  0  0  0  0
   -9.4379    2.5503   24.3495 C   0  0  0  0  0  0  0  0  0  0  0  0
  -10.0257    1.3087   22.3118 C   0  0  0  0  0  0  0  0  0  0  0  0
   -9.6963    2.3104   21.6187 F   0  0  0  0  0  0  0  0  0  0  0  0
   -9.4450    0.2316   21.6579 F   0  0  0  0  0  0  0  0  0  0  0  0
  -11.3151    1.1405   22.3408 F   0  0  0  0  0  0  0  0  0  0  0  0
   -6.6399    5.5844   28.6182 O   0  0  0  0  0  0  0  0  0  0  0  0
   -7.7197   -0.9254   26.0952 C   0  0  0  0  0  0  0  0  0  0  0  0
   -7.3373   -0.9019   27.1818 C   0  0  0  0  0  0  0  0  0  0  0  0
  3  7  1  0
 11 13  1  0
 13 14  1  0
 13 15  1  0
 13 16  1  0
  2 17  1  0
  9 18  1  0
 18 19  2  0
  1  2  2  0
  2  5  1  0
  5  6  2  0
  6  4  1  0
  4  3  2  0
  3  1  1  0
  7  8  2  0
  8  9  1  0
  9 10  2  0
 10 11  1  0
 11 12  2  0
 12  7  1  0
M  END
$$$$
