No_9733-complexes_sdf/6BKW-FPZ/2024-09-17-14-21-01/
     RDKit          3D

 20 22  0  0  0  0  0  0  0  0999 V2000
   -7.2496    3.8871   27.4508 C   0  0  0  0  0  0  0  0  0  0  0  0
   -7.6161    2.7143   27.1523 C   0  0  0  0  0  0  0  0  0  0  0  0
   -8.6212    2.2239   26.4074 C   0  0  2  0  0  0  0  0  0  0  0  0
   -8.2539    4.9237   27.1711 C   0  0  2  0  0  0  0  0  0  0  0  0
   -9.3709    4.6019   26.4511 C   0  0  0  0  0  0  0  0  0  0  0  0
   -9.5922    3.3274   26.0949 C   0  0  1  0  0  0  0  0  0  0  0  0
   -7.9320    6.2329   27.5387 N   0  0  0  0  0  0  0  0  0  0  0  0
   -8.8678    0.9165   26.0535 C   0  0  0  0  0  0  0  0  0  0  0  0
   -9.1231    0.5822   24.9466 C   0  0  0  0  0  0  0  0  0  0  0  0
   -9.2950    1.6044   23.8873 C   0  0  0  0  0  0  0  0  0  0  0  0
   -9.8450    2.8914   24.3944 C   0  0  2  0  0  0  0  0  0  0  0  0
   -8.7600    7.3151   27.1965 C   0  0  0  0  0  0  0  0  0  0  0  0
  -10.9261    2.8323   26.6143 C   0  0  0  0  0  0  0  0  0  0  0  0
  -11.9596    3.7291   26.4335 C   0  0  0  0  0  0  0  0  0  0  0  0
  -13.2128    3.6759   27.0905 C   0  0  0  0  0  0  0  0  0  0  0  0
  -13.3925    2.7006   27.9890 C   0  0  0  0  0  0  0  0  0  0  0  0
  -12.3091    1.7813   28.2662 C   0  0  0  0  0  0  0  0  0  0  0  0
  -11.1090    1.9315   27.6782 C   0  0  0  0  0  0  0  0  0  0  0  0
  -10.4065    3.8791   23.6074 C   0  0  0  0  0  0  0  0  0  0  0  0
  -10.7344    5.1546   23.9121 C   0  0  0  0  0  0  0  0  0  0  0  0
  1  2  1  0
  1  4  1  0
  4  5  1  0
  3  6  1  0
  5  6  1  0
  4  7  1  6
  3  8  1  1
  9 10  1  0
  6 11  1  0
 10 11  1  0
  7 12  2  0
  6 13  1  1
 11 19  1  6
 19 20  2  0
  3  2  1  0
  8  9  1  0
 13 14  2  0
 14 15  1  0
 15 16  2  0
 16 17  1  0
 17 18  2  0
 18 13  1  0
M  END
$$$$
