No_9019-complexes_sdf/6BKW-FPZ/2024-09-17-14-21-01/
     RDKit          3D

 23 25  0  0  0  0  0  0  0  0999 V2000
   -7.7129    4.2099   27.0854 C   0  0  0  0  0  0  0  0  0  0  0  0
   -7.7814    5.1722   27.8972 C   0  0  0  0  0  0  0  0  0  0  0  0
   -8.8776    3.8408   26.3416 C   0  0  0  0  0  0  0  0  0  0  0  0
   -9.9844    4.6492   26.4743 C   0  0  0  0  0  0  0  0  0  0  0  0
   -8.7830    6.1594   27.8870 C   0  0  0  0  0  0  0  0  0  0  0  0
  -11.0777    4.2772   25.6418 C   0  0  0  0  0  0  0  0  0  0  0  0
   -9.9463    5.8095   27.1423 C   0  0  0  0  0  0  0  0  0  0  0  0
  -10.9642    3.9876   24.3396 C   0  0  0  0  0  0  0  0  0  0  0  0
  -11.8274    3.6290   23.4968 C   0  0  0  0  0  0  0  0  0  0  0  0
  -13.2004    3.6847   23.9048 C   0  0  0  0  0  0  0  0  0  0  0  0
  -12.4247    4.1767   26.1003 C   0  0  0  0  0  0  0  0  0  0  0  0
  -13.4525    3.9508   25.3068 C   0  0  0  0  0  0  0  0  0  0  0  0
   -8.7960    2.6449   25.5006 C   0  0  0  0  0  0  0  0  0  0  0  0
   -8.1564    1.5745   26.0923 N   0  0  0  0  0  0  0  0  0  0  0  0
   -7.8790    1.4602   27.3428 C   0  0  0  0  0  0  0  0  0  0  0  0
   -8.3378    0.3026   25.3516 C   0  0  0  0  0  0  0  0  0  0  0  0
   -9.2702   -0.0445   24.8131 C   0  0  0  0  0  0  0  0  0  0  0  0
  -10.5235    0.0095   25.2967 C   0  0  0  0  0  0  0  0  0  0  0  0
  -11.7344   -0.3634   24.6397 C   0  0  0  0  0  0  0  0  0  0  0  0
  -11.6016   -0.7110   23.3260 C   0  0  0  0  0  0  0  0  0  0  0  0
  -10.3552   -0.7719   22.7048 C   0  0  0  0  0  0  0  0  0  0  0  0
   -9.1902   -0.4179   23.3520 C   0  0  0  0  0  0  0  0  0  0  0  0
   -7.3124   -0.4628   25.7385 O   0  0  0  0  0  0  0  0  0  0  0  0
  4  6  1  0
  3 13  1  0
 13 14  1  0
 14 15  1  0
 14 16  1  0
 16 17  1  0
 16 23  2  0
 17 18  2  0
 18 19  1  0
 19 20  2  0
 20 21  1  0
 21 22  2  0
 22 17  1  0
  6  8  2  0
  8  9  1  0
  9 10  2  0
 10 12  1  0
 12 11  2  0
 11  6  1  0
  1  2  2  0
  2  5  1  0
  5  7  2  0
  7  4  1  0
  4  3  2  0
  3  1  1  0
M  END
$$$$
