No_9134-complexes_sdf/6BKW-FPZ/2024-09-17-14-21-01/
     RDKit          3D

 18 19  0  0  0  0  0  0  0  0999 V2000
   -7.9040    3.9820   27.1177 C   0  0  0  0  0  0  0  0  0  0  0  0
   -9.0711    4.3164   27.0630 C   0  0  0  0  0  0  0  0  0  0  0  0
   -9.5294    5.4517   27.7215 C   0  0  0  0  0  0  0  0  0  0  0  0
   -7.4336    2.7132   26.5681 C   0  0  0  0  0  0  0  0  0  0  0  0
   -8.3353    1.8569   26.0442 C   0  0  0  0  0  0  0  0  0  0  0  0
   -9.6477    2.2853   25.9146 C   0  0  0  0  0  0  0  0  0  0  0  0
  -10.0346    3.4497   26.4483 C   0  0  0  0  0  0  0  0  0  0  0  0
   -7.8608    0.5626   25.5840 C   0  0  0  0  0  0  0  0  0  0  0  0
   -6.9522   -0.0148   26.1481 O   0  0  0  0  0  0  0  0  0  0  0  0
   -8.5661   -0.0658   24.7261 O   0  0  0  0  0  0  0  0  0  0  0  0
   -6.8832    4.6155   27.8051 F   0  0  0  0  0  0  0  0  0  0  0  0
   -7.9800   -0.9225   23.8249 C   0  0  0  0  0  0  0  0  0  0  0  0
   -8.7542   -2.0194   23.4582 C   0  0  0  0  0  0  0  0  0  0  0  0
  -10.0083   -1.9068   23.3874 C   0  0  0  0  0  0  0  0  0  0  0  0
  -10.7865   -2.9875   23.0080 C   0  0  0  0  0  0  0  0  0  0  0  0
  -10.1510   -4.1792   22.6538 C   0  0  0  0  0  0  0  0  0  0  0  0
   -8.8211   -4.2994   22.6518 C   0  0  0  0  0  0  0  0  0  0  0  0
   -7.9841   -3.1826   23.0296 C   0  0  0  0  0  0  0  0  0  0  0  0
  5  8  1  0
  8  9  2  0
  8 10  1  0
  1 11  1  0
 10 12  1  0
 12 13  1  0
  3  2  1  0
 13 14  2  0
 14 15  1  0
 15 16  2  0
 16 17  1  0
 17 18  2  0
 18 13  1  0
  1  2  2  0
  2  7  1  0
  7  6  2  0
  6  5  1  0
  5  4  2  0
  4  1  1  0
M  END
$$$$
