No_9141-complexes_sdf/6BKW-FPZ/2024-09-17-14-21-01/
     RDKit          3D

 35 39  0  0  0  0  0  0  0  0999 V2000
   -7.9040    3.9820   27.1177 C   0  0  0  0  0  0  0  0  0  0  0  0
   -8.2057    2.8231   26.8733 C   0  0  0  0  0  0  0  0  0  0  0  0
   -8.7695    5.0740   26.7916 C   0  0  0  0  0  0  0  0  0  0  0  0
   -9.9618    4.7598   26.1630 C   0  0  0  0  0  0  0  0  0  0  0  0
   -9.4200    2.4524   26.2849 C   0  0  0  0  0  0  0  0  0  0  0  0
  -10.2590    3.4815   25.9250 C   0  0  0  0  0  0  0  0  0  0  0  0
   -8.3837    6.4702   27.0872 C   0  0  0  0  0  0  0  0  0  0  0  0
   -7.9910    7.5367   27.0318 N   0  0  0  0  0  0  0  0  0  0  0  0
   -7.0125    1.3799   27.4297 Br  0  0  0  0  0  0  0  0  0  0  0  0
  -11.5345    3.1541   25.2223 C   0  0  0  0  0  0  0  0  0  0  0  0
  -11.5807    3.1856   23.9064 C   0  0  0  0  0  0  0  0  0  0  0  0
  -10.3870    3.5187   23.1211 C   0  0  0  0  0  0  0  0  0  0  0  0
  -10.4770    3.6802   21.8857 C   0  0  0  0  0  0  0  0  0  0  0  0
  -11.6339    3.4698   21.0901 C   0  0  0  0  0  0  0  0  0  0  0  0
  -12.7998    3.1148   21.8153 C   0  0  0  0  0  0  0  0  0  0  0  0
  -12.7449    3.0718   23.1262 C   0  0  0  0  0  0  0  0  0  0  0  0
  -12.6340    2.8621   26.0724 C   0  0  0  0  0  0  0  0  0  0  0  0
  -13.4983    3.8781   26.5162 C   0  0  0  0  0  0  0  0  0  0  0  0
  -14.5746    3.6603   27.4095 C   0  0  0  0  0  0  0  0  0  0  0  0
  -14.7923    2.3503   27.7346 C   0  0  0  0  0  0  0  0  0  0  0  0
  -12.6805    1.6182   26.6274 C   0  0  0  0  0  0  0  0  0  0  0  0
  -13.8611    1.3237   27.4348 C   0  0  0  0  0  0  0  0  0  0  0  0
  -15.5083    4.7446   27.7350 C   0  0  0  0  0  0  0  0  0  0  0  0
  -15.9801    5.5225   26.8782 C   0  0  0  0  0  0  0  0  0  0  0  0
  -15.8151    4.9139   29.1656 C   0  0  0  0  0  0  0  0  0  0  0  0
  -14.9795    4.6179   30.0985 C   0  0  0  0  0  0  0  0  0  0  0  0
  -15.1846    3.9449   31.1974 C   0  0  0  0  0  0  0  0  0  0  0  0
  -14.1332    3.6185   32.1661 C   0  0  0  0  0  0  0  0  0  0  0  0
  -14.3112    3.4863   33.5081 C   0  0  0  0  0  0  0  0  0  0  0  0
  -15.3796    2.9909   33.9362 C   0  0  0  0  0  0  0  0  0  0  0  0
  -16.5258    3.0854   33.0776 C   0  0  0  0  0  0  0  0  0  0  0  0
  -16.4484    3.6245   31.8141 C   0  0  0  0  0  0  0  0  0  0  0  0
  -17.1725    5.2055   29.4127 C   0  0  0  0  0  0  0  0  0  0  0  0
  -17.6964    6.2361   28.6044 C   0  0  0  0  0  0  0  0  0  0  0  0
  -17.2611    6.1738   27.1717 C   0  0  0  0  0  0  0  0  0  0  0  0
  3  7  1  0
  7  8  3  0
  2  9  1  0
  6 10  1  0
 10 17  1  0
 19 23  1  0
 25 26  1  0
 10 11  1  0
 26 27  1  0
 17 18  2  0
 18 19  1  0
 19 20  2  0
 20 22  1  0
 22 21  2  0
 21 17  1  0
 11 12  2  0
 12 13  1  0
 13 14  2  0
 14 15  1  0
 15 16  2  0
 16 11  1  0
 27 28  2  0
 28 29  1  0
 29 30  2  0
 30 31  1  0
 31 32  2  0
 32 27  1  0
  1  2  2  0
  2  5  1  0
  5  6  2  0
  6  4  1  0
  4  3  2  0
  3  1  1  0
 23 24  2  0
 24 35  1  0
 35 34  2  0
 34 33  1  0
 33 25  2  0
 25 23  1  0
M  END
$$$$
