No_9591-complexes_sdf/6BKW-FPZ/2024-09-17-14-21-01/
     RDKit          3D

  7  7  0  0  0  0  0  0  0  0999 V2000
   -7.9040    3.9820   27.1177 C   0  0  0  0  0  0  0  0  0  0  0  0
   -9.0711    4.3164   27.0630 C   0  0  0  0  0  0  0  0  0  0  0  0
  -10.0395    3.8218   27.1938 C   0  0  0  0  0  0  0  0  0  0  0  0
   -6.6709    4.8255   27.1572 C   0  0  0  0  0  0  0  0  0  0  0  0
  -10.0466    2.3582   27.5904 C   0  0  0  0  0  0  0  0  0  0  0  0
   -8.7400    1.8381   27.6946 C   0  0  0  0  0  0  0  0  0  0  0  0
   -7.6392    2.6739   27.5295 C   0  0  0  0  0  0  0  0  0  0  0  0
  1  4  1  0
  1  2  2  0
  2  3  1  0
  3  5  2  0
  5  6  1  0
  6  7  2  0
  7  1  1  0
M  END
$$$$
