No_904-complexes_sdf/6BKW-FPZ/2024-09-17-14-21-01/
     RDKit          3D

 13 14  0  0  0  0  0  0  0  0999 V2000
   -7.9040    3.9820   27.1177 C   0  0  0  0  0  0  0  0  0  0  0  0
   -7.8663    4.8694   27.9238 C   0  0  0  0  0  0  0  0  0  0  0  0
   -7.4698    2.6989   27.4277 C   0  0  0  0  0  0  0  0  0  0  0  0
   -7.9683    1.5964   26.8266 C   0  0  0  0  0  0  0  0  0  0  0  0
   -8.9447    1.7923   25.8533 C   0  0  0  0  0  0  0  0  0  0  0  0
   -9.4219    0.6008   25.2035 C   0  0  0  0  0  0  0  0  0  0  0  0
   -9.0172    4.0242   26.1966 C   0  0  0  0  0  0  0  0  0  0  0  0
   -9.4716    2.9861   25.5632 C   0  0  0  0  0  0  0  0  0  0  0  0
   -8.2479    6.3037   27.6687 C   0  0  0  0  0  0  0  0  0  0  0  0
   -9.1836    6.5684   26.6272 C   0  0  0  0  0  0  0  0  0  0  0  0
   -9.5692    5.3762   25.8828 C   0  0  0  0  0  0  0  0  0  0  0  0
  -10.6486    0.1891   25.5278 C   0  0  0  0  0  0  0  0  0  0  0  0
  -11.1948   -0.9859   25.0039 C   0  0  0  0  0  0  0  0  0  0  0  0
  6 12  1  0
 12 13  2  0
  6  5  1  0
  1  2  2  0
  2  9  1  0
  9 10  2  0
 10 11  1  0
 11  7  2  0
  1  3  1  0
  3  4  2  0
  4  5  1  0
  5  8  2  0
  8  7  1  0
  7  1  1  0
M  END
$$$$
