No_9093-complexes_sdf/6BKW-FPZ/2024-09-17-14-21-01/
     RDKit          3D

 13 13  0  0  0  0  0  0  0  0999 V2000
   -7.7129    4.2099   27.0854 C   0  0  0  0  0  0  0  0  0  0  0  0
   -7.7814    5.1722   27.8972 C   0  0  0  0  0  0  0  0  0  0  0  0
   -8.8998    3.8713   26.3707 C   0  0  0  0  0  0  0  0  0  0  0  0
   -8.9563    2.6796   25.5490 C   0  0  0  0  0  0  0  0  0  0  0  0
   -8.8131    6.1334   27.9344 C   0  0  0  0  0  0  0  0  0  0  0  0
   -9.9804    5.8121   27.1929 C   0  0  0  0  0  0  0  0  0  0  0  0
   -9.9861    4.6836   26.4532 C   0  0  0  0  0  0  0  0  0  0  0  0
   -9.3866    2.7674   24.4023 F   0  0  0  0  0  0  0  0  0  0  0  0
   -7.6206    2.1789   25.4913 F   0  0  0  0  0  0  0  0  0  0  0  0
   -9.7846    1.8694   26.2278 F   0  0  0  0  0  0  0  0  0  0  0  0
   -6.6649    5.5497   28.6167 O   0  0  0  0  0  0  0  0  0  0  0  0
  -11.0368    4.4072   25.6920 O   0  0  0  0  0  0  0  0  0  0  0  0
  -11.0144    4.4462   24.2858 C   0  0  0  0  0  0  0  0  0  0  0  0
  3  4  1  0
  4  8  1  0
  4  9  1  0
  4 10  1  0
  2 11  1  0
  7 12  1  0
 12 13  1  0
  1  2  2  0
  2  5  1  0
  5  6  2  0
  6  7  1  0
  7  3  2  0
  3  1  1  0
M  END
$$$$
