No_9175-complexes_sdf/6BKW-FPZ/2024-09-17-14-21-01/
     RDKit          3D

 16 17  0  0  0  0  0  0  0  0999 V2000
   -7.7129    4.2099   27.0854 C   0  0  0  0  0  0  0  0  0  0  0  0
   -7.7814    5.1722   27.8972 C   0  0  0  0  0  0  0  0  0  0  0  0
   -8.8998    3.8713   26.3707 C   0  0  0  0  0  0  0  0  0  0  0  0
   -9.9938    4.6774   26.5446 C   0  0  0  0  0  0  0  0  0  0  0  0
   -8.7789    6.1536   27.9256 C   0  0  0  0  0  0  0  0  0  0  0  0
   -9.9428    5.8398   27.2296 C   0  0  0  0  0  0  0  0  0  0  0  0
   -8.9208    2.6404   25.5721 C   0  0  0  0  0  0  0  0  0  0  0  0
   -8.3287    1.4696   26.1305 C   0  0  0  0  0  0  0  0  0  0  0  0
   -8.3547    0.2800   25.4520 C   0  0  0  0  0  0  0  0  0  0  0  0
   -7.6652   -0.7856   25.9841 C   0  0  0  0  0  0  0  0  0  0  0  0
   -7.0134   -0.7100   27.2419 C   0  0  0  0  0  0  0  0  0  0  0  0
   -6.9383    0.5324   27.8659 C   0  0  0  0  0  0  0  0  0  0  0  0
   -7.5378    1.6017   27.3813 C   0  0  0  0  0  0  0  0  0  0  0  0
  -11.2022    4.3607   25.7610 C   0  0  0  0  0  0  0  0  0  0  0  0
  -11.2010    4.4039   24.4009 C   0  0  0  0  0  0  0  0  0  0  0  0
  -12.2078    4.1013   23.6091 C   0  0  0  0  0  0  0  0  0  0  0  0
  3  7  1  0
  4 14  1  0
 14 15  2  3
 15 16  1  0
  7  8  1  0
  8  9  2  0
  9 10  1  0
 10 11  2  0
 11 12  1  0
 12 13  2  0
 13  8  1  0
  1  2  2  0
  2  5  1  0
  5  6  2  0
  6  4  1  0
  4  3  2  0
  3  1  1  0
M  END
$$$$
