No_9074-complexes_sdf/6BKW-FPZ/2024-09-17-14-21-01/
     RDKit          3D

 33 36  0  0  0  0  0  0  0  0999 V2000
   -7.2496    3.8871   27.4508 C   0  0  0  0  0  0  0  0  0  0  0  0
   -7.9379    4.9063   27.8518 C   0  0  0  0  0  0  0  0  0  0  0  0
   -9.3460    4.8223   27.8695 C   0  0  0  0  0  0  0  0  0  0  0  0
   -7.8628    2.6163   27.1065 C   0  0  0  0  0  0  0  0  0  0  0  0
   -9.2787    2.5744   27.1970 C   0  0  0  0  0  0  0  0  0  0  0  0
  -10.0108    3.6770   27.6340 C   0  0  0  0  0  0  0  0  0  0  0  0
  -11.4855    3.5731   27.7420 C   0  0  1  0  0  0  0  0  0  0  0  0
  -11.9114    2.9401   28.7847 N   0  0  0  0  0  0  0  0  0  0  0  0
  -11.4551    1.9476   29.3276 C   0  0  0  0  0  0  0  0  0  0  0  0
  -13.0857    3.5151   29.5067 C   0  0  0  0  0  0  0  0  0  0  0  0
  -13.7105    2.9026   30.5374 C   0  0  0  0  0  0  0  0  0  0  0  0
  -12.2192    0.7534   29.0463 C   0  0  2  0  0  0  0  0  0  0  0  0
  -14.7746    2.3550   30.2417 C   0  0  1  0  0  0  0  0  0  0  0  0
  -14.6067    0.9795   29.5719 C   0  0  0  0  0  0  0  0  0  0  0  0
  -13.6590    0.5169   28.8013 C   0  0  0  0  0  0  0  0  0  0  0  0
   -7.3275    6.0549   28.0904 F   0  0  0  0  0  0  0  0  0  0  0  0
   -6.9855    1.2612   26.7061 Cl  0  0  0  0  0  0  0  0  0  0  0  0
  -12.1073    4.1799   26.9099 F   0  0  0  0  0  0  0  0  0  0  0  0
  -16.0944    2.7580   30.5462 C   0  0  0  0  0  0  0  0  0  0  0  0
  -16.2103    3.9391   31.2437 C   0  0  0  0  0  0  0  0  0  0  0  0
  -17.5096    4.4363   31.4555 C   0  0  0  0  0  0  0  0  0  0  0  0
  -17.6171    5.6841   32.1870 C   0  0  0  0  0  0  0  0  0  0  0  0
  -16.9326    6.2981   32.7361 C   0  0  0  0  0  0  0  0  0  0  0  0
  -15.4814    5.7962   32.6299 C   0  0  0  0  0  0  0  0  0  0  0  0
  -15.1822    4.6580   31.8840 C   0  0  0  0  0  0  0  0  0  0  0  0
  -17.0394    2.4505   29.8378 O   0  0  0  0  0  0  0  0  0  0  0  0
  -11.4587   -0.5562   29.0510 C   0  0  0  0  0  0  0  0  0  0  0  0
  -11.1968   -1.3827   29.7371 C   0  0  0  0  0  0  0  0  0  0  0  0
  -11.9363   -1.7689   30.9526 C   0  0  0  0  0  0  0  0  0  0  0  0
  -11.8213   -2.7205   31.4906 C   0  0  0  0  0  0  0  0  0  0  0  0
  -10.6470   -3.6006   31.2710 C   0  0  0  0  0  0  0  0  0  0  0  0
   -9.8510   -3.3655   30.1957 C   0  0  0  0  0  0  0  0  0  0  0  0
  -10.1068   -2.2481   29.4113 C   0  0  0  0  0  0  0  0  0  0  0  0
  6  7  1  0
  7  8  1  0
  8  9  1  0
  8 10  1  0
 10 11  2  3
  9 12  1  0
 11 13  1  0
 13 14  1  0
 12 15  1  0
 14 15  2  3
  2 16  1  0
  4 17  1  0
  7 18  1  1
 13 19  1  1
 19 20  1  0
 19 26  2  0
 12 27  1  1
 27 28  1  0
 28 29  2  0
 29 30  1  0
 30 31  2  0
 31 32  1  0
 32 33  2  0
 33 28  1  0
  1  2  2  0
  2  3  1  0
  3  6  2  0
  6  5  1  0
  5  4  2  0
  4  1  1  0
 20 21  2  0
 21 22  1  0
 22 23  2  0
 23 24  1  0
 24 25  2  0
 25 20  1  0
M  END
$$$$
