No_9246-complexes_sdf/6BKW-FPZ/2024-09-17-14-21-01/
     RDKit          3D

 35 40  0  0  0  0  0  0  0  0999 V2000
   -7.7129    4.2099   27.0854 C   0  0  0  0  0  0  0  0  0  0  0  0
   -7.7814    5.1722   27.8972 C   0  0  0  0  0  0  0  0  0  0  0  0
   -8.8998    3.8713   26.3707 C   0  0  0  0  0  0  0  0  0  0  0  0
   -9.9938    4.6774   26.5446 C   0  0  0  0  0  0  0  0  0  0  0  0
   -8.7789    6.1536   27.9256 C   0  0  0  0  0  0  0  0  0  0  0  0
   -9.9428    5.8398   27.2296 C   0  0  0  0  0  0  0  0  0  0  0  0
   -8.9119    2.6447   25.5685 C   0  0  0  0  0  0  0  0  0  0  0  0
   -9.7965    2.5353   24.5160 C   0  0  0  0  0  0  0  0  0  0  0  0
  -10.6100    3.6509   24.2901 C   0  0  0  0  0  0  0  0  0  0  0  0
  -10.9557    4.5807   25.3846 C   0  0  0  0  0  0  0  0  0  0  0  0
  -11.6593    3.5177   23.2434 C   0  0  1  0  0  0  0  0  0  0  0  0
  -11.1679    3.5375   22.0693 C   0  0  0  0  0  0  0  0  0  0  0  0
   -9.7041    3.5782   21.8280 C   0  0  0  0  0  0  0  0  0  0  0  0
   -9.3338    3.3968   20.4082 C   0  0  0  0  0  0  0  0  0  0  0  0
  -10.2677    3.5474   19.4177 C   0  0  0  0  0  0  0  0  0  0  0  0
  -11.6190    3.6453   19.6224 C   0  0  0  0  0  0  0  0  0  0  0  0
  -12.0919    3.6932   20.9388 C   0  0  0  0  0  0  0  0  0  0  0  0
  -12.7781    2.5810   23.4589 C   0  0  1  0  0  0  0  0  0  0  0  0
  -13.9646    3.3638   23.5419 C   0  0  0  0  0  0  0  0  0  0  0  0
  -14.1833    4.3511   24.2497 C   0  0  0  0  0  0  0  0  0  0  0  0
  -15.4618    5.0633   24.3558 C   0  0  0  0  0  0  0  0  0  0  0  0
  -16.4774    4.6225   23.5848 C   0  0  0  0  0  0  0  0  0  0  0  0
  -15.1766    2.9224   22.8255 C   0  0  0  0  0  0  0  0  0  0  0  0
  -16.3328    3.5592   22.8146 C   0  0  0  0  0  0  0  0  0  0  0  0
  -12.8801    1.3603   22.7426 C   0  0  0  0  0  0  0  0  0  0  0  0
  -12.7641    0.1613   23.4236 C   0  0  0  0  0  0  0  0  0  0  0  0
  -12.6609    0.1849   24.8378 C   0  0  0  0  0  0  0  0  0  0  0  0
  -12.5610   -0.5002   25.5711 C   0  0  0  0  0  0  0  0  0  0  0  0
  -12.5053   -0.2629   27.0228 C   0  0  0  0  0  0  0  0  0  0  0  0
  -12.5371    1.0583   27.5225 C   0  0  0  0  0  0  0  0  0  0  0  0
  -12.6751    2.0409   26.5368 C   0  0  0  0  0  0  0  0  0  0  0  0
  -12.7026    1.7130   25.2469 C   0  0  0  0  0  0  0  0  0  0  0  0
  -12.7407    2.5592   24.5143 C   0  0  2  0  0  0  0  0  0  0  0  0
  -12.9119    3.4776   25.3372 O   0  0  0  0  0  0  0  0  0  0  0  0
  -12.9130    3.2669   27.3559 C   0  0  0  0  0  0  0  0  0  0  0  0
 11  9  1  1
 11 18  1  0
 18 19  1  1
 18 25  1  0
 26 27  1  0
 18 33  1  0
 32 33  1  0
 33 34  1  1
 31 35  1  0
 11 12  1  0
 25 26  1  0
 12 13  2  0
 13 14  1  0
 14 15  2  0
 15 16  1  0
 16 17  2  0
 17 12  1  0
  4 10  2  0
 10  9  1  0
  9  8  2  0
  8  7  1  0
  7  3  2  0
 19 20  2  0
 20 21  1  0
 21 22  2  0
 22 24  1  0
 24 23  2  0
 23 19  1  0
 27 28  2  0
 28 29  1  0
 29 30  2  0
 30 31  1  0
 31 32  2  0
 32 27  1  0
  1  2  2  0
  2  5  1  0
  5  6  2  0
  6  4  1  0
  4  3  1  0
  3  1  1  0
M  END
$$$$
