No_9899-complexes_sdf/6BKW-FPZ/2024-09-17-14-21-01/
     RDKit          3D

 37 42  0  0  0  0  0  0  0  0999 V2000
   -7.2496    3.8871   27.4508 C   0  0  0  0  0  0  0  0  0  0  0  0
   -8.5096    4.0291   27.2770 C   0  0  0  0  0  0  0  0  0  0  0  0
   -9.2677    5.1714   27.5773 C   0  0  0  0  0  0  0  0  0  0  0  0
   -6.4075    2.4161   27.2162 Cl  0  0  0  0  0  0  0  0  0  0  0  0
   -8.4644    6.3280   27.8287 C   0  0  0  0  0  0  0  0  0  0  0  0
   -7.0954    6.2022   27.8684 C   0  0  0  0  0  0  0  0  0  0  0  0
   -6.4428    5.0356   27.7510 C   0  0  0  0  0  0  0  0  0  0  0  0
   -9.5218    2.9123   27.0299 C   0  0  0  0  0  0  0  0  0  0  0  0
  -10.4515    2.6274   27.6843 C   0  0  0  0  0  0  0  0  0  0  0  0
  -11.2360    1.4279   27.5990 C   0  0  0  0  0  0  0  0  0  0  0  0
  -10.7919    0.5288   26.6362 C   0  0  0  0  0  0  0  0  0  0  0  0
   -9.1853    1.9696   25.9090 C   0  0  0  0  0  0  0  0  0  0  0  0
   -9.7898    0.8567   25.7654 C   0  0  0  0  0  0  0  0  0  0  0  0
  -11.6170   -0.7196   26.4391 C   0  0  0  0  0  0  0  0  0  0  0  0
  -11.3688   -1.7876   27.1530 C   0  0  0  0  0  0  0  0  0  0  0  0
  -12.1570   -2.9974   26.9746 C   0  0  0  0  0  0  0  0  0  0  0  0
  -13.1187   -2.9494   25.9592 C   0  0  0  0  0  0  0  0  0  0  0  0
  -13.3038   -1.8403   25.2329 C   0  0  0  0  0  0  0  0  0  0  0  0
  -12.5662   -0.6590   25.4634 C   0  0  0  0  0  0  0  0  0  0  0  0
  -14.3257   -1.7977   24.1776 C   0  0  0  0  0  0  0  0  0  0  0  0
  -14.9402   -2.6647   23.7492 C   0  0  0  0  0  0  0  0  0  0  0  0
  -14.7242   -3.9602   24.3579 C   0  0  1  0  0  0  0  0  0  0  0  0
  -13.8476   -4.0904   25.5512 C   0  0  2  0  0  0  0  0  0  0  0  0
  -15.5092   -5.1414   24.0055 C   0  0  0  0  0  0  0  0  0  0  0  0
  -15.7707   -6.0154   24.8240 N   0  0  0  0  0  0  0  0  0  0  0  0
  -15.6579   -5.3680   22.7748 O   0  0  0  0  0  0  0  0  0  0  0  0
  -16.4686   -7.2412   24.5547 C   0  0  0  0  0  0  0  0  0  0  0  0
  -17.1066   -7.8635   25.2803 C   0  0  0  0  0  0  0  0  0  0  0  0
  -17.2378   -7.4180   26.6703 C   0  0  0  0  0  0  0  0  0  0  0  0
  -16.5302   -6.2699   27.0843 C   0  0  0  0  0  0  0  0  0  0  0  0
  -15.9673   -5.5435   26.2281 C   0  0  1  0  0  0  0  0  0  0  0  0
  -15.1597   -4.4493   26.7895 C   0  0  0  0  0  0  0  0  0  0  0  0
  -17.0864   -4.8097   26.2413 C   0  0  0  0  0  0  0  0  0  0  0  0
  -12.8787   -5.2459   25.3912 C   0  0  0  0  0  0  0  0  0  0  0  0
  -16.1698   -6.2640   28.5243 C   0  0  0  0  0  0  0  0  0  0  0  0
  -16.5837   -6.9193   29.3465 N   0  0  0  0  0  0  0  0  0  0  0  0
  -16.1478   -6.8652   30.6428 C   0  0  0  0  0  0  0  0  0  0  0  0
  1  4  1  0
  2  8  1  0
 11 14  1  0
 18 20  1  0
 22 21  1  1
 17 23  1  0
 22 23  1  0
 22 24  1  0
 24 25  1  0
 24 26  2  0
 25 27  1  0
 27 28  2  0
 28 29  1  0
 29 30  2  0
 25 31  1  0
 23 32  1  0
 31 32  1  6
 30 33  1  0
 31 33  1  0
 23 34  1  6
 30 35  1  0
 35 36  2  3
 36 37  1  0
 20 21  1  0
  1  2  2  0
  2  3  1  0
  3  5  2  0
  5  6  1  0
  6  7  2  0
  7  1  1  0
 14 15  2  0
 15 16  1  0
 16 17  2  0
 17 18  1  0
 18 19  2  0
 19 14  1  0
  8  9  2  0
  9 10  1  0
 10 11  2  0
 11 13  1  0
 13 12  2  0
 12  8  1  0
M  END
$$$$
