No_9524-complexes_sdf/6BKW-FPZ/2024-09-17-14-21-01/
     RDKit          3D

  9  9  0  0  0  0  0  0  0  0999 V2000
   -7.9040    3.9820   27.1177 C   0  0  0  0  0  0  0  0  0  0  0  0
   -7.8663    4.8694   27.9238 C   0  0  0  0  0  0  0  0  0  0  0  0
   -9.0491    3.8523   26.2542 C   0  0  0  0  0  0  0  0  0  0  0  0
   -9.4067    2.6808   25.6532 C   0  0  0  0  0  0  0  0  0  0  0  0
   -8.5275    6.1191   27.7061 C   0  0  0  0  0  0  0  0  0  0  0  0
  -10.3221    2.7328   24.5970 C   0  0  0  0  0  0  0  0  0  0  0  0
   -9.8044    5.0259   26.3544 C   0  0  0  0  0  0  0  0  0  0  0  0
   -9.5343    6.1177   26.9641 C   0  0  0  0  0  0  0  0  0  0  0  0
  -10.5495    1.5589   23.8236 C   0  0  0  0  0  0  0  0  0  0  0  0
  3  4  1  0
  4  6  2  3
  6  9  1  0
  1  2  2  0
  2  5  1  0
  5  8  2  0
  8  7  1  0
  7  3  2  0
  3  1  1  0
M  END
$$$$
