No_9172-complexes_sdf/6BKW-FPZ/2024-09-17-14-21-01/
     RDKit          3D

 25 27  0  0  0  0  0  0  0  0999 V2000
   -7.9040    3.9820   27.1177 C   0  0  0  0  0  0  0  0  0  0  0  0
   -9.0711    4.3164   27.0630 C   0  0  0  0  0  0  0  0  0  0  0  0
   -9.5182    5.5541   27.5777 C   0  0  0  0  0  0  0  0  0  0  0  0
   -7.2287    4.2491   28.0277 C   0  0  0  0  0  0  0  0  0  0  0  0
   -7.3877    5.6095   28.6280 C   0  0  0  0  0  0  0  0  0  0  0  0
   -8.5739    6.1998   28.3635 C   0  0  0  0  0  0  0  0  0  0  0  0
  -10.0408    3.6659   26.0379 C   0  0  0  0  0  0  0  0  0  0  0  0
  -10.4946    4.1909   25.0983 C   0  0  0  0  0  0  0  0  0  0  0  0
  -11.2878    3.6453   24.0741 C   0  0  0  0  0  0  0  0  0  0  0  0
  -11.5275    2.3069   24.1717 C   0  0  0  0  0  0  0  0  0  0  0  0
  -10.2399    2.2160   26.1294 C   0  0  0  0  0  0  0  0  0  0  0  0
  -10.9770    1.5798   25.2189 C   0  0  0  0  0  0  0  0  0  0  0  0
  -12.3832    1.6735   23.1227 C   0  0  0  0  0  0  0  0  0  0  0  0
  -12.7179    0.6906   22.8596 C   0  0  0  0  0  0  0  0  0  0  0  0
  -13.5733    0.2402   21.7825 C   0  0  0  0  0  0  0  0  0  0  0  0
  -14.0455    1.2442   20.9654 C   0  0  0  0  0  0  0  0  0  0  0  0
  -13.0139    2.7219   22.0387 C   0  0  0  0  0  0  0  0  0  0  0  0
  -13.7614    2.4531   21.1003 C   0  0  0  0  0  0  0  0  0  0  0  0
   -9.6104    1.4079   27.2450 C   0  0  0  0  0  0  0  0  0  0  0  0
   -9.8768    0.1869   27.5077 C   0  0  0  0  0  0  0  0  0  0  0  0
  -11.1618   -0.1863   27.5273 C   0  0  0  0  0  0  0  0  0  0  0  0
  -11.5295   -1.2992   28.1713 C   0  0  0  0  0  0  0  0  0  0  0  0
  -12.9270   -1.6899   28.1705 C   0  0  0  0  0  0  0  0  0  0  0  0
  -13.7844   -0.9381   27.4098 C   0  0  0  0  0  0  0  0  0  0  0  0
  -13.4392    0.1405   26.7210 C   0  0  0  0  0  0  0  0  0  0  0  0
  2  7  1  0
 10 13  1  0
 11 19  1  0
 19 20  2  3
 20 21  1  0
 21 22  2  3
 22 23  1  0
 23 24  2  3
 24 25  1  0
  7  8  2  0
  8  9  1  0
  9 10  2  0
 10 12  1  0
 12 11  2  0
 11  7  1  0
  1  2  2  0
  2  3  1  0
  3  6  2  0
  6  5  1  0
  5  4  2  0
  4  1  1  0
 13 14  2  0
 14 15  1  0
 15 16  2  0
 16 18  1  0
 18 17  2  0
 17 13  1  0
M  END
$$$$
