No_9705-complexes_sdf/6BKW-FPZ/2024-09-17-14-21-01/
     RDKit          3D

 24 26  0  0  0  0  0  0  0  0999 V2000
   -7.9040    3.9820   27.1177 C   0  0  0  0  0  0  0  0  0  0  0  0
   -8.2057    2.8231   26.8733 C   0  0  0  0  0  0  0  0  0  0  0  0
   -8.7695    5.0740   26.7916 C   0  0  0  0  0  0  0  0  0  0  0  0
   -8.4337    6.4678   27.0913 C   0  0  0  0  0  0  0  0  0  0  0  0
   -9.3742    2.4311   26.2346 C   0  0  0  0  0  0  0  0  0  0  0  0
  -10.2395    3.4267   25.8887 C   0  0  0  0  0  0  0  0  0  0  0  0
   -9.9567    4.7548   26.1374 C   0  0  0  0  0  0  0  0  0  0  0  0
   -7.3600    6.6951   26.9116 F   0  0  0  0  0  0  0  0  0  0  0  0
   -8.9217    6.7108   28.4432 F   0  0  0  0  0  0  0  0  0  0  0  0
   -9.1638    7.3010   26.2815 F   0  0  0  0  0  0  0  0  0  0  0  0
   -7.0795    1.5335   27.4020 Cl  0  0  0  0  0  0  0  0  0  0  0  0
  -11.4469    3.1584   25.1053 C   0  0  0  0  0  0  0  0  0  0  0  0
  -12.5656    2.6395   25.7269 C   0  0  0  0  0  0  0  0  0  0  0  0
  -11.4929    3.4019   23.7055 C   0  0  0  0  0  0  0  0  0  0  0  0
  -12.6128    3.2249   22.9649 C   0  0  0  0  0  0  0  0  0  0  0  0
  -12.6057    2.4040   27.1267 C   0  0  0  0  0  0  0  0  0  0  0  0
  -13.6867    1.7814   27.7033 C   0  0  0  0  0  0  0  0  0  0  0  0
  -13.7614    2.7663   23.6052 C   0  0  0  0  0  0  0  0  0  0  0  0
  -13.7364    2.5132   24.9735 C   0  0  0  0  0  0  0  0  0  0  0  0
  -13.6353    1.5080   29.1116 C   0  0  0  0  0  0  0  0  0  0  0  0
  -12.5841    1.9344   29.8879 C   0  0  0  0  0  0  0  0  0  0  0  0
  -11.5004    2.6299   29.2636 C   0  0  0  0  0  0  0  0  0  0  0  0
  -11.5338    2.8654   28.0311 C   0  0  0  0  0  0  0  0  0  0  0  0
  -10.2393    3.9522   23.0715 C   0  0  0  0  0  0  0  0  0  0  0  0
  3  4  1  0
  4  8  1  0
  4  9  1  0
  4 10  1  0
  2 11  1  0
  6 12  1  0
 13 16  1  0
 14 24  1  0
 12 13  2  0
 13 19  1  0
 19 18  2  0
 18 15  1  0
 15 14  2  0
 14 12  1  0
  1  2  2  0
  2  5  1  0
  5  6  2  0
  6  7  1  0
  7  3  2  0
  3  1  1  0
 16 17  2  0
 17 20  1  0
 20 21  2  0
 21 22  1  0
 22 23  2  0
 23 16  1  0
M  END
$$$$
