No_9469-complexes_sdf/6BKW-FPZ/2024-09-17-14-21-01/
     RDKit          3D

 20 22  0  0  0  0  0  0  0  0999 V2000
   -7.7129    4.2099   27.0854 C   0  0  0  0  0  0  0  0  0  0  0  0
   -8.9133    4.4736   27.0998 C   0  0  0  0  0  0  0  0  0  0  0  0
   -9.7135    3.9633   26.0300 C   0  0  0  0  0  0  0  0  0  0  0  0
   -7.1708    2.9509   26.6517 C   0  0  0  0  0  0  0  0  0  0  0  0
   -8.1422    2.1350   26.0104 C   0  0  0  0  0  0  0  0  0  0  0  0
   -9.3363    2.7131   25.6563 C   0  0  0  0  0  0  0  0  0  0  0  0
   -9.3070    6.1746   27.4791 Cl  0  0  0  0  0  0  0  0  0  0  0  0
   -7.7598    0.7895   25.6453 C   0  0  0  0  0  0  0  0  0  0  0  0
   -8.2572   -0.0047   26.2134 N   0  0  0  0  0  0  0  0  0  0  0  0
   -9.0586   -0.0353   27.0868 C   0  0  0  0  0  0  0  0  0  0  0  0
   -9.8977    0.4384   27.4883 C   0  0  0  0  0  0  0  0  0  0  0  0
  -10.8742   -0.0175   28.5887 C   0  0  0  0  0  0  0  0  0  0  0  0
  -10.6129   -1.2315   29.0698 C   0  0  0  0  0  0  0  0  0  0  0  0
   -8.9469   -1.5368   27.8306 C   0  0  0  0  0  0  0  0  0  0  0  0
   -9.6883   -1.9401   28.7374 C   0  0  0  0  0  0  0  0  0  0  0  0
   -7.5383   -1.4321   25.9265 C   0  0  0  0  0  0  0  0  0  0  0  0
   -6.8127   -1.6094   24.9989 C   0  0  0  0  0  0  0  0  0  0  0  0
   -8.0020   -2.3097   26.9452 C   0  0  0  0  0  0  0  0  0  0  0  0
   -6.7394    4.9228   28.1218 C   0  0  0  0  0  0  0  0  0  0  0  0
   -5.4550   -1.7997   25.1805 C   0  0  0  0  0  0  0  0  0  0  0  0
  2  7  1  0
  5  8  1  0
  8  9  1  0
  9 10  1  0
  9 16  1  0
 16 17  2  3
 14 18  1  0
 16 18  1  0
  1 19  1  0
 17 20  1  0
  1  2  2  0
  2  3  1  0
  3  6  2  0
  6  5  1  0
  5  4  2  0
  4  1  1  0
 10 11  2  0
 11 12  1  0
 12 13  2  0
 13 15  1  0
 15 14  2  0
 14 10  1  0
M  END
$$$$
