No_9562-complexes_sdf/6BKW-FPZ/2024-09-17-14-21-01/
     RDKit          3D

 12 12  0  0  0  0  0  0  0  0999 V2000
   -7.2496    3.8871   27.4508 C   0  0  0  0  0  0  0  0  0  0  0  0
   -7.6161    2.7143   27.1523 C   0  0  0  0  0  0  0  0  0  0  0  0
   -7.1618    1.8631   27.5232 C   0  0  0  0  0  0  0  0  0  0  0  0
   -8.0036    5.1085   27.2100 C   0  0  2  0  0  0  0  0  0  0  0  0
   -7.6739    6.3858   27.8565 C   0  0  0  0  0  0  0  0  0  0  0  0
   -9.3177    4.9356   26.7048 C   0  0  0  0  0  0  0  0  0  0  0  0
   -9.7218    3.7664   26.1480 C   0  0  0  0  0  0  0  0  0  0  0  0
   -8.9576    2.6365   26.4867 C   0  0  0  0  0  0  0  0  0  0  0  0
   -7.4912    0.4193   27.2251 C   0  0  0  0  0  0  0  0  0  0  0  0
   -6.6143   -0.6340   27.5278 C   0  0  0  0  0  0  0  0  0  0  0  0
   -5.4495   -0.3248   28.2445 C   0  0  0  0  0  0  0  0  0  0  0  0
   -4.9892    0.9404   28.4785 C   0  0  0  0  0  0  0  0  0  0  0  0
  1  2  1  0
  2  3  2  3
  1  4  1  0
  4  5  1  1
  4  6  1  0
  6  7  1  0
  2  8  1  0
  7  8  1  0
  3  9  1  0
  9 10  2  3
 10 11  1  0
 11 12  2  0
M  END
$$$$
