No_9679-complexes_sdf/6BKW-FPZ/2024-09-17-14-21-01/
     RDKit          3D

 15 16  0  0  0  0  0  0  0  0999 V2000
   -7.7129    4.2099   27.0854 C   0  0  0  0  0  0  0  0  0  0  0  0
   -8.2112    3.0637   26.9225 C   0  0  0  0  0  0  0  0  0  0  0  0
   -8.5108    5.3904   26.9436 C   0  0  0  0  0  0  0  0  0  0  0  0
   -7.9752    6.6981   27.2112 C   0  0  0  0  0  0  0  0  0  0  0  0
   -9.5213    2.8208   26.4688 C   0  0  0  0  0  0  0  0  0  0  0  0
  -10.2979    3.9327   26.2378 C   0  0  0  0  0  0  0  0  0  0  0  0
   -9.7894    5.2123   26.4395 C   0  0  0  0  0  0  0  0  0  0  0  0
   -7.3451    1.8185   27.1796 C   0  0  0  0  0  0  0  0  0  0  0  0
   -6.1581    1.9961   27.7424 N   0  0  0  0  0  0  0  0  0  0  0  0
   -5.4007    0.8419   28.0047 C   0  0  0  0  0  0  0  0  0  0  0  0
   -4.0760    0.9806   28.6411 C   0  0  0  0  0  0  0  0  0  0  0  0
   -3.5198   -0.2445   28.9555 C   0  0  0  0  0  0  0  0  0  0  0  0
   -5.8779   -0.3635   27.7305 C   0  0  0  0  0  0  0  0  0  0  0  0
   -5.2286   -1.5154   28.1067 C   0  0  0  0  0  0  0  0  0  0  0  0
   -4.0017   -1.4335   28.7456 C   0  0  0  0  0  0  0  0  0  0  0  0
  3  4  1  0
  2  8  1  0
  8  9  2  3
  9 10  1  0
  1  2  2  0
  2  5  1  0
  5  6  2  0
  6  7  1  0
  7  3  2  0
  3  1  1  0
 10 11  2  0
 11 12  1  0
 12 15  2  0
 15 14  1  0
 14 13  2  0
 13 10  1  0
M  END
$$$$
