No_9692-complexes_sdf/6BKW-FPZ/2024-09-17-14-21-01/
     RDKit          3D

 21 23  0  0  0  0  0  0  0  0999 V2000
   -7.9040    3.9820   27.1177 C   0  0  0  0  0  0  0  0  0  0  0  0
   -7.8663    4.8694   27.9238 C   0  0  1  0  0  0  0  0  0  0  0  0
   -7.4547    2.7080   27.4594 C   0  0  0  0  0  0  0  0  0  0  0  0
   -7.9337    1.5946   26.8372 C   0  0  0  0  0  0  0  0  0  0  0  0
   -8.9032    1.7881   25.8510 C   0  0  0  0  0  0  0  0  0  0  0  0
   -9.3787    2.9871   25.5530 C   0  0  0  0  0  0  0  0  0  0  0  0
   -8.9781    4.0300   26.2200 C   0  0  0  0  0  0  0  0  0  0  0  0
   -7.0280    5.0006   28.9409 N   0  0  0  0  0  0  0  0  0  0  0  0
   -8.5902    6.2403   27.6437 C   0  0  1  0  0  0  0  0  0  0  0  0
  -10.3688    2.8914   24.4552 C   0  0  0  0  0  0  0  0  0  0  0  0
  -10.9919    4.0802   24.0870 C   0  0  0  0  0  0  0  0  0  0  0  0
  -11.9211    4.1805   23.0472 C   0  0  0  0  0  0  0  0  0  0  0  0
  -12.1207    3.1003   22.2463 C   0  0  0  0  0  0  0  0  0  0  0  0
  -11.4447    1.9149   22.5775 C   0  0  0  0  0  0  0  0  0  0  0  0
  -10.5631    1.8335   23.6189 C   0  0  0  0  0  0  0  0  0  0  0  0
   -7.3948    0.4156   27.0909 F   0  0  0  0  0  0  0  0  0  0  0  0
   -7.9171    7.2298   26.8836 C   0  0  0  0  0  0  0  0  0  0  0  0
   -8.1013    8.2241   26.7034 C   0  0  0  0  0  0  0  0  0  0  0  0
   -7.0827    8.9346   26.5948 N   0  0  0  0  0  0  0  0  0  0  0  0
   -6.5398    7.4292   27.3802 N   0  0  0  0  0  0  0  0  0  0  0  0
   -9.8079    6.2250   27.7219 F   0  0  0  0  0  0  0  0  0  0  0  0
  1  2  1  0
  2  8  1  6
  2  9  1  0
  6 10  1  0
  4 16  1  0
  9 17  1  0
 17 18  2  0
 18 19  1  0
 17 20  1  0
 19 20  1  0
  9 21  1  6
 10 11  2  0
 11 12  1  0
 12 13  2  0
 13 14  1  0
 14 15  2  0
 15 10  1  0
  1  3  2  0
  3  4  1  0
  4  5  2  0
  5  6  1  0
  6  7  2  0
  7  1  1  0
M  END
$$$$
