No_9064-complexes_sdf/6BKW-FPZ/2024-09-17-14-21-01/
     RDKit          3D

 18 20  0  0  0  0  0  0  0  0999 V2000
   -7.7129    4.2099   27.0854 C   0  0  1  0  0  0  0  0  0  0  0  0
   -8.9133    4.4736   27.0998 C   0  0  2  0  0  0  0  0  0  0  0  0
   -9.7937    3.7367   26.2091 C   0  0  0  0  0  0  0  0  0  0  0  0
   -6.8266    5.0441   28.0594 C   0  0  0  0  0  0  0  0  0  0  0  0
   -9.2322    2.6276   25.6126 C   0  0  1  0  0  0  0  0  0  0  0  0
   -7.9794    2.1924   25.9863 C   0  0  0  0  0  0  0  0  0  0  0  0
   -7.2411    2.9387   26.9009 C   0  0  0  0  0  0  0  0  0  0  0  0
  -10.1716    1.9182   24.7707 C   0  0  0  0  0  0  0  0  0  0  0  0
  -10.0066    1.6944   23.7266 C   0  0  0  0  0  0  0  0  0  0  0  0
  -10.4800    1.2427   22.6435 C   0  0  0  0  0  0  0  0  0  0  0  0
  -11.8217    0.9474   22.7399 C   0  0  0  0  0  0  0  0  0  0  0  0
  -12.3318    1.1347   24.0221 C   0  0  0  0  0  0  0  0  0  0  0  0
  -11.5915    1.7423   25.0525 C   0  0  0  0  0  0  0  0  0  0  0  0
   -9.4810    5.8277   27.5196 C   0  0  0  0  0  0  0  0  0  0  0  0
  -14.1845    0.7821   24.2904 Br  0  0  0  0  0  0  0  0  0  0  0  0
   -8.6463    6.9454   27.1236 C   0  0  0  0  0  0  0  0  0  0  0  0
   -7.1796    6.6155   27.5677 C   0  0  0  0  0  0  0  0  0  0  0  0
   -6.0970    2.4282   27.3849 O   0  0  0  0  0  0  0  0  0  0  0  0
  2  3  1  6
  1  4  1  1
  5  6  1  0
  1  7  1  0
  6  7  1  0
  5  8  1  1
  2 14  1  0
 12 15  1  0
 14 16  1  0
  4 17  1  0
 16 17  1  0
  7 18  2  0
  1  2  1  0
  3  5  1  0
  8  9  2  0
  9 10  1  0
 10 11  2  0
 11 12  1  0
 12 13  2  0
 13  8  1  0
M  END
$$$$
