No_9447-complexes_sdf/6BKW-FPZ/2024-09-17-14-21-01/
     RDKit          3D

 15 14  0  0  0  0  0  0  0  0999 V2000
   -7.9040    3.9820   27.1177 C   0  0  0  0  0  0  0  0  0  0  0  0
   -7.8663    4.8694   27.9238 C   0  0  0  0  0  0  0  0  0  0  0  0
   -9.0491    3.8523   26.2542 C   0  0  0  0  0  0  0  0  0  0  0  0
   -8.7661    5.9491   27.9690 C   0  0  0  0  0  0  0  0  0  0  0  0
   -9.9295    4.8502   26.2323 C   0  0  2  0  0  0  0  0  0  0  0  0
   -9.8077    5.9288   27.0933 C   0  0  1  0  0  0  0  0  0  0  0  0
  -10.9223    4.7540   25.3223 O   0  0  0  0  0  0  0  0  0  0  0  0
   -9.4072    5.5424   25.6936 Cl  0  0  0  0  0  0  0  0  0  0  0  0
  -11.1366    6.2852   28.0945 Cl  0  0  0  0  0  0  0  0  0  0  0  0
   -9.5609    6.9798   26.6867 F   0  0  0  0  0  0  0  0  0  0  0  0
  -11.0223    4.4488   23.9998 C   0  0  0  0  0  0  0  0  0  0  0  0
   -9.2004    2.5737   25.6593 C   0  0  0  0  0  0  0  0  0  0  0  0
   -8.8162    1.5245   26.3237 N   0  0  0  0  0  0  0  0  0  0  0  0
   -8.3721    0.3454   25.8754 C   0  0  0  0  0  0  0  0  0  0  0  0
   -7.8781   -0.6156   26.8129 C   0  0  0  0  0  0  0  0  0  0  0  0
  1  2  1  0
  1  3  2  3
  2  4  2  3
  3  5  1  0
  4  6  1  0
  5  7  1  0
  5  8  1  6
  6  9  1  0
  6 10  1  6
  7 11  1  0
  3 12  1  0
 12 13  1  0
 13 14  1  0
 14 15  2  0
M  END
$$$$
