No_9643-complexes_sdf/6BKW-FPZ/2024-09-17-14-21-01/
     RDKit          3D

 14 15  0  0  0  0  0  0  0  0999 V2000
   -7.2496    3.8871   27.4508 C   0  0  0  0  0  0  0  0  0  0  0  0
   -7.9379    4.9063   27.8518 C   0  0  0  0  0  0  0  0  0  0  0  0
   -9.3376    4.8647   27.7795 C   0  0  0  0  0  0  0  0  0  0  0  0
   -7.8544    2.6294   27.0414 C   0  0  0  0  0  0  0  0  0  0  0  0
   -9.2665    2.6175   27.0340 C   0  0  0  0  0  0  0  0  0  0  0  0
   -9.9836    3.7042   27.4150 C   0  0  0  0  0  0  0  0  0  0  0  0
   -6.9315    1.6982   26.8364 N   0  0  0  0  0  0  0  0  0  0  0  0
   -6.0330    1.2944   27.8176 C   0  0  0  0  0  0  0  0  0  0  0  0
   -5.1827    0.1309   27.5651 C   0  0  0  0  0  0  0  0  0  0  0  0
   -4.1563   -0.0164   28.5074 C   0  0  0  0  0  0  0  0  0  0  0  0
   -3.3896   -1.1909   28.5639 C   0  0  0  0  0  0  0  0  0  0  0  0
   -3.6786   -2.1329   27.5892 C   0  0  0  0  0  0  0  0  0  0  0  0
   -4.6770   -1.9267   26.6775 C   0  0  0  0  0  0  0  0  0  0  0  0
   -5.4808   -0.7920   26.6900 C   0  0  0  0  0  0  0  0  0  0  0  0
  4  7  1  0
  7  8  1  0
  8  9  1  0
  1  2  2  0
  2  3  1  0
  3  6  2  0
  6  5  1  0
  5  4  2  0
  4  1  1  0
  9 10  2  0
 10 11  1  0
 11 12  2  0
 12 13  1  0
 13 14  2  0
 14  9  1  0
M  END
$$$$
