No_9371-complexes_sdf/6BKW-FPZ/2024-09-17-14-21-01/
     RDKit          3D

 21 23  0  0  0  0  0  0  0  0999 V2000
   -7.9040    3.9820   27.1177 C   0  0  0  0  0  0  0  0  0  0  0  0
   -8.2057    2.8231   26.8733 C   0  0  0  0  0  0  0  0  0  0  0  0
   -7.0130    4.3706   28.1140 C   0  0  0  0  0  0  0  0  0  0  0  0
   -9.3829    2.4374   26.1668 C   0  0  0  0  0  0  0  0  0  0  0  0
  -10.0975    3.4171   25.5988 C   0  0  0  0  0  0  0  0  0  0  0  0
   -9.7335    4.7745   25.7705 C   0  0  0  0  0  0  0  0  0  0  0  0
   -8.7317    5.1107   26.5933 C   0  0  0  0  0  0  0  0  0  0  0  0
   -8.2050    6.4063   26.9956 C   0  0  0  0  0  0  0  0  0  0  0  0
   -8.8712    7.5514   26.5994 N   0  0  0  0  0  0  0  0  0  0  0  0
   -7.1689    6.4590   27.9564 C   0  0  0  0  0  0  0  0  0  0  0  0
   -6.6624    5.5689   28.4627 N   0  0  0  0  0  0  0  0  0  0  0  0
   -9.6654    1.0247   25.8180 C   0  0  0  0  0  0  0  0  0  0  0  0
  -10.3544    0.3029   26.7368 C   0  0  0  0  0  0  0  0  0  0  0  0
  -10.5979   -1.0588   26.6640 C   0  0  0  0  0  0  0  0  0  0  0  0
  -10.1259   -1.6960   25.5589 C   0  0  0  0  0  0  0  0  0  0  0  0
   -8.8920    0.3237   24.8729 C   0  0  0  0  0  0  0  0  0  0  0  0
   -8.9784   -0.6854   24.6613 C   0  0  0  0  0  0  0  0  0  0  0  0
  -11.1146    3.1847   24.7805 O   0  0  0  0  0  0  0  0  0  0  0  0
  -12.3368    3.2374   25.2084 C   0  0  0  0  0  0  0  0  0  0  0  0
  -13.2104    2.4984   24.6081 C   0  0  0  0  0  0  0  0  0  0  0  0
  -14.5146    2.4376   25.1234 C   0  0  0  0  0  0  0  0  0  0  0  0
  8  9  1  0
  4 12  1  0
  5 18  1  0
 18 19  1  0
 19 20  2  3
 20 21  1  0
 12 13  2  0
 13 14  1  0
 14 15  2  0
 15 17  1  0
 17 16  2  0
 16 12  1  0
  1  3  1  0
  3 11  2  0
 11 10  1  0
 10  8  2  0
  8  7  1  0
  1  2  2  0
  2  4  1  0
  4  5  2  0
  5  6  1  0
  6  7  2  0
  7  1  1  0
M  END
$$$$
