No_9460-complexes_sdf/6BKW-FPZ/2024-09-17-14-21-01/
     RDKit          3D

 33 36  0  0  0  0  0  0  0  0999 V2000
   -7.7129    4.2099   27.0854 C   0  0  0  0  0  0  0  0  0  0  0  0
   -7.7814    5.1722   27.8972 C   0  0  0  0  0  0  0  0  0  0  0  0
   -8.8998    3.8713   26.3707 C   0  0  0  0  0  0  0  0  0  0  0  0
   -9.7416    3.2213   26.9591 C   0  0  0  0  0  0  0  0  0  0  0  0
  -10.9346    2.8300   26.3222 C   0  0  0  0  0  0  0  0  0  0  0  0
   -6.5920    5.6266   28.4281 N   0  0  0  0  0  0  0  0  0  0  0  0
  -11.1378    3.1727   25.0698 C   0  0  0  0  0  0  0  0  0  0  0  0
  -10.1768    3.9296   24.3428 C   0  0  0  0  0  0  0  0  0  0  0  0
   -9.0940    4.3166   25.0095 C   0  0  0  0  0  0  0  0  0  0  0  0
   -8.8492    5.8150   28.2755 O   0  0  0  0  0  0  0  0  0  0  0  0
  -10.4722    4.4174   23.0107 C   0  0  0  0  0  0  0  0  0  0  0  0
  -10.7842    3.6925   21.9918 C   0  0  0  0  0  0  0  0  0  0  0  0
  -10.7502    2.2642   22.1017 C   0  0  0  0  0  0  0  0  0  0  0  0
  -10.9847    1.4583   20.9175 C   0  0  0  0  0  0  0  0  0  0  0  0
  -11.4330    2.1339   19.7979 C   0  0  0  0  0  0  0  0  0  0  0  0
  -11.1580    4.1659   20.6938 C   0  0  0  0  0  0  0  0  0  0  0  0
  -11.4515    3.4560   19.6490 C   0  0  0  0  0  0  0  0  0  0  0  0
  -10.3426    5.7796   22.8550 C   0  0  0  0  0  0  0  0  0  0  0  0
  -11.9840    1.9902   27.0387 C   0  0  0  0  0  0  0  0  0  0  0  0
  -12.0418    1.9460   28.0815 C   0  0  0  0  0  0  0  0  0  0  0  0
  -12.9708    1.0506   28.9385 C   0  0  0  0  0  0  0  0  0  0  0  0
  -13.6502    0.1551   28.2156 C   0  0  0  0  0  0  0  0  0  0  0  0
  -13.5156    0.1739   26.8324 C   0  0  0  0  0  0  0  0  0  0  0  0
  -12.6681    1.0233   26.2289 C   0  0  0  0  0  0  0  0  0  0  0  0
  -14.5204   -0.6795   28.7974 F   0  0  0  0  0  0  0  0  0  0  0  0
  -10.9451   -0.0014   21.0111 C   0  0  0  0  0  0  0  0  0  0  0  0
  -11.0264   -0.7189   19.9656 C   0  0  0  0  0  0  0  0  0  0  0  0
  -10.8290   -2.1038   20.0117 C   0  0  0  0  0  0  0  0  0  0  0  0
  -10.9210   -2.8921   18.8295 C   0  0  0  0  0  0  0  0  0  0  0  0
  -11.1663   -2.2233   17.6031 C   0  0  0  0  0  0  0  0  0  0  0  0
  -11.3112   -0.8781   17.5419 C   0  0  0  0  0  0  0  0  0  0  0  0
  -11.1970   -0.1053   18.7179 C   0  0  0  0  0  0  0  0  0  0  0  0
  -11.4098    1.3091   18.5749 C   0  0  0  0  0  0  0  0  0  0  0  0
  1  2  1  0
  1  3  1  0
  2  6  1  0
  2 10  2  0
  8 11  1  0
 11 18  1  0
  5 19  1  0
 22 25  1  0
 14 26  1  0
 32 33  1  0
 26 27  1  0
 11 12  1  0
 12 13  2  0
 13 14  1  0
 14 15  2  0
 15 17  1  0
 17 16  2  0
 16 12  1  0
  3  4  2  0
  4  5  1  0
  5  7  2  0
  7  8  1  0
  8  9  2  0
  9  3  1  0
 27 28  2  0
 28 29  1  0
 29 30  2  0
 30 31  1  0
 31 32  2  0
 32 27  1  0
 19 20  2  0
 20 21  1  0
 21 22  2  0
 22 23  1  0
 23 24  2  0
 24 19  1  0
M  END
$$$$
