No_9772-complexes_sdf/6BKW-FPZ/2024-09-17-14-21-01/
     RDKit          3D

 13 14  0  0  0  0  0  0  0  0999 V2000
   -7.9040    3.9820   27.1177 C   0  0  0  0  0  0  0  0  0  0  0  0
   -9.0711    4.3164   27.0630 C   0  0  0  0  0  0  0  0  0  0  0  0
   -9.8698    3.9665   25.9495 C   0  0  0  0  0  0  0  0  0  0  0  0
   -7.0332    4.5030   28.2025 C   0  0  0  0  0  0  0  0  0  0  0  0
  -10.9909    4.7237   25.5958 C   0  0  0  0  0  0  0  0  0  0  0  0
   -7.5840    5.4918   28.9036 N   0  0  0  0  0  0  0  0  0  0  0  0
  -11.7865    4.4111   26.2861 C   0  0  0  0  0  0  0  0  0  0  0  0
  -13.1489    5.0358   26.1540 C   0  0  0  0  0  0  0  0  0  0  0  0
   -9.2791    5.4226   27.9491 N   0  0  0  0  0  0  0  0  0  0  0  0
   -8.6162    5.9053   28.8280 C   0  0  0  0  0  0  0  0  0  0  0  0
  -13.7510    4.9710   24.9380 C   0  0  0  0  0  0  0  0  0  0  0  0
  -12.7677    4.7825   23.8055 C   0  0  0  0  0  0  0  0  0  0  0  0
  -11.2793    4.5658   24.1203 C   0  0  0  0  0  0  0  0  0  0  0  0
  3  5  1  0
  3  2  1  0
  5  7  2  0
  7  8  1  0
  8 11  2  0
 11 12  1  0
 12 13  2  0
 13  5  1  0
  1  2  2  0
  2  9  1  0
  9 10  2  0
 10  6  1  0
  6  4  2  0
  4  1  1  0
M  END
$$$$
