No_9321-complexes_sdf/6BKW-FPZ/2024-09-17-14-21-01/
     RDKit          3D

 25 28  0  0  0  0  0  0  0  0999 V2000
   -7.9040    3.9820   27.1177 C   0  0  0  0  0  0  0  0  0  0  0  0
   -7.8663    4.8694   27.9238 C   0  0  0  0  0  0  0  0  0  0  0  0
   -7.4547    2.7080   27.4594 C   0  0  0  0  0  0  0  0  0  0  0  0
   -7.9337    1.5946   26.8372 C   0  0  0  0  0  0  0  0  0  0  0  0
   -8.9032    1.7881   25.8510 C   0  0  0  0  0  0  0  0  0  0  0  0
   -9.3649    0.5983   25.1884 C   0  0  0  0  0  0  0  0  0  0  0  0
   -8.9636    3.9443   26.1629 C   0  0  0  0  0  0  0  0  0  0  0  0
   -9.3683    2.9288   25.4866 C   0  0  0  0  0  0  0  0  0  0  0  0
   -7.0985    4.8620   28.9895 F   0  0  0  0  0  0  0  0  0  0  0  0
   -8.9343    5.8964   28.1370 C   0  0  0  0  0  0  0  0  0  0  0  0
   -9.5471    0.4614   24.0247 C   0  0  0  0  0  0  0  0  0  0  0  0
   -9.2908    1.6634   23.1328 C   0  0  0  0  0  0  0  0  0  0  0  0
   -9.5972    2.9166   23.8991 C   0  0  0  0  0  0  0  0  0  0  0  0
   -9.8002    6.2394   26.9672 C   0  0  0  0  0  0  0  0  0  0  0  0
   -9.9341    5.0678   26.1209 C   0  0  0  0  0  0  0  0  0  0  0  0
   -7.2671    0.2843   27.1746 C   0  0  0  0  0  0  0  0  0  0  0  0
   -6.0059   -0.0104   26.9373 C   0  0  0  0  0  0  0  0  0  0  0  0
   -5.2463   -0.7896   27.2398 C   0  0  0  0  0  0  0  0  0  0  0  0
   -3.7902   -0.8436   26.8797 C   0  0  0  0  0  0  0  0  0  0  0  0
   -3.2375    0.3527   26.4344 C   0  0  0  0  0  0  0  0  0  0  0  0
   -4.0348    1.4520   26.3745 C   0  0  0  0  0  0  0  0  0  0  0  0
   -5.3271    1.3936   26.7051 C   0  0  0  0  0  0  0  0  0  0  0  0
   -8.1415   -0.6985   27.8161 C   0  0  0  0  0  0  0  0  0  0  0  0
   -7.6391   -1.6794   28.3541 N   0  0  0  0  0  0  0  0  0  0  0  0
   -8.3727   -2.6279   29.1039 C   0  0  0  0  0  0  0  0  0  0  0  0
  2  9  1  0
  4 16  1  0
 16 23  1  0
 23 24  2  3
 24 25  1  0
 16 17  1  0
 17 18  2  0
 18 19  1  0
 19 20  2  0
 20 21  1  0
 21 22  2  0
 22 17  1  0
  1  2  2  0
  2 10  1  0
 10 14  2  0
 14 15  1  0
 15  7  2  0
  1  3  1  0
  3  4  2  0
  4  5  1  0
  8  7  1  0
  7  1  1  0
  5  6  2  0
  6 11  1  0
 11 12  2  0
 12 13  1  0
 13  8  2  0
  8  5  1  0
M  END
$$$$
