No_9887-complexes_sdf/6BKW-FPZ/2024-09-17-14-21-01/
     RDKit          3D

 15 17  0  0  0  0  0  0  0  0999 V2000
   -7.2496    3.8871   27.4508 C   0  0  0  0  0  0  0  0  0  0  0  0
   -7.6161    2.7143   27.1523 C   0  0  0  0  0  0  0  0  0  0  0  0
   -6.9719    1.5838   27.5324 C   0  0  0  0  0  0  0  0  0  0  0  0
   -7.4590    0.2827   27.2615 C   0  0  0  0  0  0  0  0  0  0  0  0
   -8.8629    2.3938   26.5063 C   0  0  0  0  0  0  0  0  0  0  0  0
   -9.3223    1.1948   26.1623 C   0  0  0  0  0  0  0  0  0  0  0  0
   -8.5899    0.0959   26.5930 C   0  0  0  0  0  0  0  0  0  0  0  0
   -8.1780    4.9102   27.6255 C   0  0  0  0  0  0  0  0  0  0  0  0
   -7.7210    6.2602   28.0513 C   0  0  0  0  0  0  0  0  0  0  0  0
   -9.5508    4.7917   27.4719 C   0  0  0  0  0  0  0  0  0  0  0  0
  -10.1108    3.8831   27.3075 C   0  0  0  0  0  0  0  0  0  0  0  0
   -9.8794    2.7719   26.6387 C   0  0  0  0  0  0  0  0  0  0  0  0
  -10.0422    0.9334   24.8587 C   0  0  0  0  0  0  0  0  0  0  0  0
  -11.0348    1.3682   24.5155 C   0  0  0  0  0  0  0  0  0  0  0  0
  -11.0282    2.6851   25.6500 N   0  0  0  0  0  0  0  0  0  0  0  0
  1  8  1  0
  8  9  1  0
  8 10  1  0
 10 11  2  0
 11 12  1  0
  1  2  1  0
  6 13  1  0
 13 14  2  0
 14 15  1  0
 15 12  2  0
 12  5  1  0
  2  3  2  0
  3  4  1  0
  4  7  2  0
  7  6  1  0
  6  5  2  0
  5  2  1  0
M  END
$$$$
