No_9514-complexes_sdf/6BKW-FPZ/2024-09-17-14-21-01/
     RDKit          3D

 17 20  0  0  0  0  0  0  0  0999 V2000
   -7.7129    4.2099   27.0854 C   0  0  0  0  0  0  0  0  0  0  0  0
   -8.2112    3.0637   26.9225 C   0  0  0  0  0  0  0  0  0  0  0  0
   -8.4224    5.2106   27.8516 C   0  0  0  0  0  0  0  0  0  0  0  0
   -9.5628    2.7160   27.4089 C   0  0  0  0  0  0  0  0  0  0  0  0
  -10.2428    3.7496   28.1155 C   0  0  0  0  0  0  0  0  0  0  0  0
   -9.6677    4.9738   28.3232 C   0  0  0  0  0  0  0  0  0  0  0  0
  -11.6117    3.4528   28.6312 C   0  0  0  0  0  0  0  0  0  0  0  0
  -11.9551    2.1392   28.8412 C   0  0  0  0  0  0  0  0  0  0  0  0
  -13.2412    1.8455   29.3369 C   0  0  0  0  0  0  0  0  0  0  0  0
  -13.6007    0.4929   29.4744 C   0  0  0  0  0  0  0  0  0  0  0  0
  -12.6606   -0.4934   29.0694 C   0  0  0  0  0  0  0  0  0  0  0  0
  -11.4324   -0.1879   28.5288 C   0  0  0  0  0  0  0  0  0  0  0  0
  -11.0620    1.1214   28.4018 C   0  0  1  0  0  0  0  0  0  0  0  0
   -9.8448    1.4138   27.7676 C   0  0  1  0  0  0  0  0  0  0  0  0
   -9.0349    0.3252   27.2431 C   0  0  0  0  0  0  0  0  0  0  0  0
   -8.3168    0.5160   26.3214 C   0  0  0  0  0  0  0  0  0  0  0  0
   -7.9532    1.7072   25.7489 C   0  0  0  0  0  0  0  0  0  0  0  0
  1  2  1  0
  1  3  2  0
  2  4  2  0
  4  5  1  0
  3  6  1  0
  5  6  1  0
  5  7  1  0
  7  8  2  0
  8  9  1  0
  9 10  2  0
 10 11  1  0
 11 12  2  0
  8 13  1  0
 13 12  1  6
  4 14  1  0
 13 14  1  0
 14 15  1  6
 15 16  2  0
  2 17  1  0
 16 17  1  0
M  END
$$$$
