No_91-complexes_sdf/6BKW-FPZ/2024-09-17-14-21-01/
     RDKit          3D

 39 44  0  0  0  0  0  0  0  0999 V2000
   -7.7129    4.2099   27.0854 C   0  0  0  0  0  0  0  0  0  0  0  0
   -7.7814    5.1722   27.8972 C   0  0  0  0  0  0  0  0  0  0  0  0
   -8.8255    3.2789   27.1191 C   0  0  0  0  0  0  0  0  0  0  0  0
   -8.7530    2.0643   26.3119 C   0  0  1  0  0  0  0  0  0  0  0  0
   -7.6193    1.3092   26.4290 C   0  0  0  0  0  0  0  0  0  0  0  0
   -7.2532    0.7983   27.4182 C   0  0  0  0  0  0  0  0  0  0  0  0
   -9.9515    3.5964   27.9081 C   0  0  0  0  0  0  0  0  0  0  0  0
   -6.0205   -0.0401   27.5420 C   0  0  2  0  0  0  0  0  0  0  0  0
   -5.2032    0.1079   28.6531 C   0  0  0  0  0  0  0  0  0  0  0  0
  -11.0981    2.7585   28.0643 C   0  0  0  0  0  0  0  0  0  0  0  0
  -12.0886    3.1126   28.9543 C   0  0  0  0  0  0  0  0  0  0  0  0
   -9.6880    4.7769   28.6735 C   0  0  0  0  0  0  0  0  0  0  0  0
   -8.7001    5.6136   28.5976 C   0  0  0  0  0  0  0  0  0  0  0  0
  -13.2302    2.3069   29.1528 C   0  0  0  0  0  0  0  0  0  0  0  0
   -5.0161   -0.8878   29.5781 C   0  0  0  0  0  0  0  0  0  0  0  0
   -4.1107   -0.6362   30.7307 C   0  0  0  0  0  0  0  0  0  0  0  0
   -3.4357    0.5844   30.6962 C   0  0  0  0  0  0  0  0  0  0  0  0
   -4.3618    1.2953   28.8391 C   0  0  0  0  0  0  0  0  0  0  0  0
   -3.4961    1.3850   29.8582 N   0  0  0  0  0  0  0  0  0  0  0  0
  -13.2452    1.0751   28.4877 C   0  0  0  0  0  0  0  0  0  0  0  0
  -12.2344    0.6707   27.6250 C   0  0  0  0  0  0  0  0  0  0  0  0
  -11.1473    1.4938   27.4679 C   0  0  0  0  0  0  0  0  0  0  0  0
  -10.0040    1.2127   26.7985 C   0  0  0  0  0  0  0  0  0  0  0  0
   -9.2616    2.5311   24.8939 C   0  0  0  0  0  0  0  0  0  0  0  0
   -9.6489   -0.1205   26.7982 O   0  0  0  0  0  0  0  0  0  0  0  0
   -5.3035   -0.1603   26.3053 C   0  0  0  0  0  0  0  0  0  0  0  0
   -4.2067   -1.0386   26.4004 C   0  0  0  0  0  0  0  0  0  0  0  0
   -4.2864   -2.2761   25.6317 C   0  0  0  0  0  0  0  0  0  0  0  0
   -4.6529   -3.2457   26.4741 C   0  0  0  0  0  0  0  0  0  0  0  0
   -5.2532   -4.3560   25.8800 C   0  0  0  0  0  0  0  0  0  0  0  0
   -5.2346   -4.5118   24.4903 C   0  0  0  0  0  0  0  0  0  0  0  0
   -4.8254   -3.4366   23.6959 C   0  0  0  0  0  0  0  0  0  0  0  0
   -4.4146   -2.2653   24.3048 C   0  0  0  0  0  0  0  0  0  0  0  0
   -5.8641   -2.0357   29.5973 C   0  0  0  0  0  0  0  0  0  0  0  0
   -6.8607   -2.1574   30.6049 C   0  0  0  0  0  0  0  0  0  0  0  0
   -7.8030   -3.1777   30.5658 C   0  0  0  0  0  0  0  0  0  0  0  0
   -7.7351   -4.0835   29.5180 C   0  0  0  0  0  0  0  0  0  0  0  0
   -6.7541   -3.9798   28.5408 C   0  0  0  0  0  0  0  0  0  0  0  0
   -5.8252   -2.9075   28.5689 C   0  0  0  0  0  0  0  0  0  0  0  0
  3  4  1  0
  4  5  1  0
  5  6  2  3
  6  8  1  0
  8  9  1  0
  7 10  1  0
  4 23  1  0
 22 23  1  0
  4 24  1  6
 23 25  2  0
  8 26  1  6
 26 27  1  0
 27 28  1  0
 15 34  1  0
 28 29  2  0
 29 30  1  0
 30 31  2  0
 31 32  1  0
 32 33  2  0
 33 28  1  0
  1  2  2  0
  2 13  1  0
 13 12  2  0
 12  7  1  0
  7  3  2  0
  3  1  1  0
 34 35  2  0
 35 36  1  0
 36 37  2  0
 37 38  1  0
 38 39  2  0
 39 34  1  0
  9 15  1  0
 15 16  2  0
 16 17  1  0
 17 19  2  0
 19 18  1  0
 18  9  2  0
 10 11  2  0
 11 14  1  0
 14 20  2  0
 20 21  1  0
 21 22  2  0
 22 10  1  0
M  END
$$$$
