No_9615-complexes_sdf/6BKW-FPZ/2024-09-17-14-21-01/
     RDKit          3D

 18 20  0  0  0  0  0  0  0  0999 V2000
   -7.7129    4.2099   27.0854 C   0  0  0  0  0  0  0  0  0  0  0  0
   -7.7814    5.1722   27.8972 C   0  0  0  0  0  0  0  0  0  0  0  0
   -8.8776    3.8408   26.3416 C   0  0  0  0  0  0  0  0  0  0  0  0
   -8.9136    2.6330   25.5655 C   0  0  0  0  0  0  0  0  0  0  0  0
   -8.8361    6.1389   27.9032 C   0  0  0  0  0  0  0  0  0  0  0  0
   -9.9718    4.7048   26.3433 C   0  0  0  0  0  0  0  0  0  0  0  0
   -9.9205    5.8499   27.1013 C   0  0  0  0  0  0  0  0  0  0  0  0
   -8.2973    1.5704   26.1311 N   0  0  0  0  0  0  0  0  0  0  0  0
   -8.1005    0.3900   25.5392 C   0  0  0  0  0  0  0  0  0  0  0  0
   -8.7251    0.1503   24.4537 C   0  0  0  0  0  0  0  0  0  0  0  0
   -9.5268    2.4861   24.3786 C   0  0  0  0  0  0  0  0  0  0  0  0
   -9.3704    1.2459   23.7420 C   0  0  0  0  0  0  0  0  0  0  0  0
   -7.4127   -0.6630   26.3145 C   0  0  0  0  0  0  0  0  0  0  0  0
   -7.4908   -0.6625   27.6821 C   0  0  0  0  0  0  0  0  0  0  0  0
   -6.7660   -1.5605   28.5064 C   0  0  0  0  0  0  0  0  0  0  0  0
   -5.9616   -2.4499   27.8561 C   0  0  0  0  0  0  0  0  0  0  0  0
   -5.8110   -2.4294   26.5151 C   0  0  0  0  0  0  0  0  0  0  0  0
   -6.4912   -1.5027   25.7499 C   0  0  0  0  0  0  0  0  0  0  0  0
  3  4  1  0
  9 13  1  0
 13 14  2  0
 14 15  1  0
 15 16  2  0
 16 17  1  0
 17 18  2  0
 18 13  1  0
  4  8  2  0
  8  9  1  0
  9 10  2  0
 10 12  1  0
 12 11  2  0
 11  4  1  0
  1  2  2  0
  2  5  1  0
  5  7  2  0
  7  6  1  0
  6  3  2  0
  3  1  1  0
M  END
$$$$
