No_9471-complexes_sdf/6BKW-FPZ/2024-09-17-14-21-01/
     RDKit          3D

 29 32  0  0  0  0  0  0  0  0999 V2000
   -7.7129    4.2099   27.0854 C   0  0  0  0  0  0  0  0  0  0  0  0
   -7.7814    5.1722   27.8972 C   0  0  0  0  0  0  0  0  0  0  0  0
   -8.8776    3.8408   26.3416 C   0  0  0  0  0  0  0  0  0  0  0  0
   -9.9844    4.6492   26.4743 C   0  0  0  0  0  0  0  0  0  0  0  0
   -8.8033    6.1375   27.8728 C   0  0  0  0  0  0  0  0  0  0  0  0
   -9.9554    5.8281   27.1736 C   0  0  0  0  0  0  0  0  0  0  0  0
   -8.8740    2.6184   25.5584 C   0  0  0  0  0  0  0  0  0  0  0  0
   -9.7481    2.4811   24.4970 C   0  0  0  0  0  0  0  0  0  0  0  0
   -9.6701    1.3916   23.6450 C   0  0  0  0  0  0  0  0  0  0  0  0
   -8.7260    0.3541   23.9503 C   0  0  0  0  0  0  0  0  0  0  0  0
   -7.9281    0.4430   25.0698 C   0  0  0  0  0  0  0  0  0  0  0  0
   -7.9501    1.5953   25.8782 C   0  0  0  0  0  0  0  0  0  0  0  0
  -10.5018    1.2602   22.4654 C   0  0  0  0  0  0  0  0  0  0  0  0
  -10.7585    2.3609   21.7850 C   0  0  0  0  0  0  0  0  0  0  0  0
  -11.5400    2.3820   20.6057 C   0  0  0  0  0  0  0  0  0  0  0  0
  -11.9316    1.1309   20.0650 C   0  0  0  0  0  0  0  0  0  0  0  0
  -10.8197    0.0376   21.9111 C   0  0  0  0  0  0  0  0  0  0  0  0
  -11.3247    0.0010   20.9507 C   0  0  0  0  0  0  0  0  0  0  0  0
   -6.6595    5.6101   28.6098 O   0  0  0  0  0  0  0  0  0  0  0  0
   -6.9489   -0.5798   25.3807 C   0  0  0  0  0  0  0  0  0  0  0  0
   -6.1888   -0.5084   26.2147 O   0  0  0  0  0  0  0  0  0  0  0  0
   -6.9456   -1.6133   24.5688 O   0  0  0  0  0  0  0  0  0  0  0  0
   -5.8128   -1.5074   27.1201 C   0  0  0  0  0  0  0  0  0  0  0  0
   -6.3222   -2.0490   27.9199 C   0  0  0  0  0  0  0  0  0  0  0  0
   -7.6684   -1.3963   28.3948 C   0  0  0  0  0  0  0  0  0  0  0  0
   -8.5023   -2.0813   29.3780 C   0  0  0  0  0  0  0  0  0  0  0  0
   -7.9004   -3.1414   30.1046 C   0  0  0  0  0  0  0  0  0  0  0  0
   -6.6816   -3.6373   29.8156 C   0  0  0  0  0  0  0  0  0  0  0  0
   -5.9371   -3.0972   28.8216 C   0  0  0  0  0  0  0  0  0  0  0  0
  3  7  1  0
  9 13  1  0
  2 19  1  0
 11 20  1  0
 20 21  1  0
 20 22  2  0
 21 23  1  0
 23 24  1  0
 24 25  2  0
 25 26  1  0
 26 27  2  0
 27 28  1  0
 28 29  2  0
 29 24  1  0
 13 14  2  0
 14 15  1  0
 15 16  2  0
 16 18  1  0
 18 17  2  0
 17 13  1  0
  1  2  2  0
  2  5  1  0
  5  6  2  0
  6  4  1  0
  4  3  2  0
  3  1  1  0
  7  8  2  0
  8  9  1  0
  9 10  2  0
 10 11  1  0
 11 12  2  0
 12  7  1  0
M  END
$$$$
