No_96-complexes_sdf/6BKW-FPZ/2024-09-17-14-21-01/
     RDKit          3D

 23 25  0  0  0  0  0  0  0  0999 V2000
   -7.2496    3.8871   27.4508 C   0  0  0  0  0  0  0  0  0  0  0  0
   -7.6161    2.7143   27.1523 C   0  0  0  0  0  0  0  0  0  0  0  0
   -8.8302    2.4659   26.5056 C   0  0  0  0  0  0  0  0  0  0  0  0
   -8.1584    5.0090   27.3234 C   0  0  0  0  0  0  0  0  0  0  0  0
   -9.3788    4.7965   26.7695 C   0  0  0  0  0  0  0  0  0  0  0  0
   -9.7028    3.5649   26.3276 C   0  0  0  0  0  0  0  0  0  0  0  0
   -6.7190    1.5585   27.3667 C   0  0  0  0  0  0  0  0  0  0  0  0
   -5.5646    1.7458   28.0273 N   0  0  0  0  0  0  0  0  0  0  0  0
   -7.0023    0.2454   26.9871 C   0  0  0  0  0  0  0  0  0  0  0  0
   -6.0684   -0.7015   27.2935 C   0  0  0  0  0  0  0  0  0  0  0  0
   -4.6315    0.8522   28.3117 C   0  0  0  0  0  0  0  0  0  0  0  0
   -4.8919   -0.4300   27.9865 C   0  0  0  0  0  0  0  0  0  0  0  0
   -7.6954    6.3533   27.7841 C   0  0  0  0  0  0  0  0  0  0  0  0
   -3.5224    1.2240   28.9797 N   0  0  0  0  0  0  0  0  0  0  0  0
   -8.3347    7.4902   27.0872 C   0  0  0  0  0  0  0  0  0  0  0  0
  -10.9911    3.3738   25.6250 C   0  0  0  0  0  0  0  0  0  0  0  0
  -11.0414    3.6133   24.2680 C   0  0  0  0  0  0  0  0  0  0  0  0
  -10.2045    4.0774   23.5766 C   0  0  0  0  0  0  0  0  0  0  0  0
  -10.3329    4.4652   22.1464 C   0  0  0  0  0  0  0  0  0  0  0  0
  -11.5961    4.3247   21.6431 C   0  0  0  0  0  0  0  0  0  0  0  0
  -12.6452    3.8805   22.4040 C   0  0  0  0  0  0  0  0  0  0  0  0
  -12.4227    3.5946   23.7406 C   0  0  0  0  0  0  0  0  0  0  0  0
  -12.0547    2.9087   26.4750 C   0  0  0  0  0  0  0  0  0  0  0  0
  2  7  1  0
  4 13  1  0
 11 14  1  0
 13 15  1  0
  6 16  1  0
 16 17  1  0
 16 23  1  0
 17 18  2  0
 18 19  1  0
 19 20  2  0
 20 21  1  0
 21 22  2  0
 22 17  1  0
  7  8  2  0
  8 11  1  0
 11 12  2  0
 12 10  1  0
 10  9  2  0
  9  7  1  0
  1  2  2  0
  2  3  1  0
  3  6  2  0
  6  5  1  0
  5  4  2  0
  4  1  1  0
M  END
$$$$
