No_9995-complexes_sdf/6BKW-FPZ/2024-09-17-14-21-01/
     RDKit          3D

 29 32  0  0  0  0  0  0  0  0999 V2000
   -7.9040    3.9820   27.1177 C   0  0  0  0  0  0  0  0  0  0  0  0
   -8.2057    2.8231   26.8733 C   0  0  0  0  0  0  0  0  0  0  0  0
   -8.7695    5.0740   26.7916 C   0  0  0  0  0  0  0  0  0  0  0  0
   -9.9618    4.7598   26.1630 C   0  0  0  0  0  0  0  0  0  0  0  0
   -7.3763    1.7038   27.3414 C   0  0  0  0  0  0  0  0  0  0  0  0
   -9.4134    2.4504   26.3004 C   0  0  0  0  0  0  0  0  0  0  0  0
  -10.2558    3.4522   25.9218 C   0  0  0  0  0  0  0  0  0  0  0  0
   -6.0833    1.9495   27.8845 C   0  0  0  0  0  0  0  0  0  0  0  0
   -5.2208    0.8744   28.2646 C   0  0  0  0  0  0  0  0  0  0  0  0
   -5.6605   -0.4094   28.1899 C   0  0  0  0  0  0  0  0  0  0  0  0
   -7.8062    0.3380   27.3171 C   0  0  0  0  0  0  0  0  0  0  0  0
   -6.9521   -0.6353   27.7945 C   0  0  0  0  0  0  0  0  0  0  0  0
   -8.2050    6.4519   27.0807 C   0  0  0  0  0  0  0  0  0  0  0  0
   -8.8086    6.9547   28.1157 F   0  0  0  0  0  0  0  0  0  0  0  0
   -8.2991    7.3217   26.0617 F   0  0  0  0  0  0  0  0  0  0  0  0
   -6.9294    6.4851   27.4436 F   0  0  0  0  0  0  0  0  0  0  0  0
   -3.8627    1.2387   28.7567 C   0  0  0  0  0  0  0  0  0  0  0  0
   -3.3127    0.4904   29.6336 O   0  0  0  0  0  0  0  0  0  0  0  0
   -3.7988    0.0680   30.7281 C   0  0  2  0  0  0  0  0  0  0  0  0
   -2.8151   -0.5793   31.6209 C   0  0  0  0  0  0  0  0  0  0  0  0
   -2.2665   -1.5874   31.4774 C   0  0  0  0  0  0  0  0  0  0  0  0
   -2.6484   -2.4370   30.4447 C   0  0  0  0  0  0  0  0  0  0  0  0
   -3.6317   -2.9542   30.2520 C   0  0  0  0  0  0  0  0  0  0  0  0
   -3.9788   -3.8726   29.1741 C   0  0  0  0  0  0  0  0  0  0  0  0
   -5.2552   -4.4674   29.1302 C   0  0  0  0  0  0  0  0  0  0  0  0
   -6.2553   -4.0564   30.0379 C   0  0  0  0  0  0  0  0  0  0  0  0
   -6.0150   -3.1374   31.0241 C   0  0  0  0  0  0  0  0  0  0  0  0
   -4.7164   -2.5237   31.1272 C   0  0  0  0  0  0  0  0  0  0  0  0
   -4.8221   -0.9498   30.5963 O   0  0  0  0  0  0  0  0  0  0  0  0
  2  5  1  0
  3 13  1  0
 13 14  1  0
 13 15  1  0
 13 16  1  0
  9 17  1  0
 17 18  1  0
 19 18  1  6
 19 20  1  0
 20 21  2  0
 21 22  1  0
 19 29  1  0
 28 29  1  0
 22 23  1  0
 23 24  2  0
 24 25  1  0
 25 26  2  0
 26 27  1  0
 27 28  2  0
 28 23  1  0
  1  2  2  0
  2  6  1  0
  6  7  2  0
  7  4  1  0
  4  3  2  0
  3  1  1  0
  5  8  2  0
  8  9  1  0
  9 10  2  0
 10 12  1  0
 12 11  2  0
 11  5  1  0
M  END
$$$$
