No_9879-complexes_sdf/6BKW-FPZ/2024-09-17-14-21-01/
     RDKit          3D

 15 16  0  0  0  0  0  0  0  0999 V2000
   -7.9040    3.9820   27.1177 C   0  0  0  0  0  0  0  0  0  0  0  0
   -8.2057    2.8231   26.8733 C   0  0  0  0  0  0  0  0  0  0  0  0
   -8.7695    5.0740   26.7916 C   0  0  0  0  0  0  0  0  0  0  0  0
   -9.7106    4.8936   25.8755 C   0  0  0  0  0  0  0  0  0  0  0  0
   -9.2219    2.4558   25.9830 C   0  0  0  0  0  0  0  0  0  0  0  0
   -9.9766    3.5921   25.5076 C   0  0  0  0  0  0  0  0  0  0  0  0
   -8.3582    6.4873   27.1330 C   0  0  0  0  0  0  0  0  0  0  0  0
   -7.6767    6.6451   28.1529 O   0  0  0  0  0  0  0  0  0  0  0  0
   -8.9208    7.5132   26.5618 O   0  0  0  0  0  0  0  0  0  0  0  0
   -7.2063    1.7488   27.4206 C   0  0  0  0  0  0  0  0  0  0  0  0
   -5.8934    2.0334   27.7090 C   0  0  0  0  0  0  0  0  0  0  0  0
   -5.0884    0.9891   28.2693 C   0  0  0  0  0  0  0  0  0  0  0  0
   -5.5315   -0.2940   28.3502 C   0  0  0  0  0  0  0  0  0  0  0  0
   -7.5650    0.3670   27.4997 C   0  0  0  0  0  0  0  0  0  0  0  0
   -6.8004   -0.5704   28.0241 C   0  0  0  0  0  0  0  0  0  0  0  0
  3  7  1  0
  7  8  2  0
  7  9  1  0
  2 10  1  0
 10 11  2  0
 11 12  1  0
 12 13  2  0
 13 15  1  0
 15 14  2  0
 14 10  1  0
  1  2  2  0
  2  5  1  0
  5  6  2  0
  6  4  1  0
  4  3  2  0
  3  1  1  0
M  END
$$$$
