No_9320-complexes_sdf/6BKW-FPZ/2024-09-17-14-21-01/
     RDKit          3D

 31 35  0  0  0  0  0  0  0  0999 V2000
   -7.9040    3.9820   27.1177 C   0  0  0  0  0  0  0  0  0  0  0  0
   -7.8663    4.8694   27.9238 C   0  0  0  0  0  0  0  0  0  0  0  0
   -7.4547    2.7080   27.4594 C   0  0  0  0  0  0  0  0  0  0  0  0
   -8.7044    6.0412   27.8492 C   0  0  0  0  0  0  0  0  0  0  0  0
   -6.0327    2.6839   27.7677 C   0  0  0  0  0  0  0  0  0  0  0  0
   -5.4461    1.4337   28.1200 C   0  0  0  0  0  0  0  0  0  0  0  0
   -6.1237    0.2685   27.9529 C   0  0  0  0  0  0  0  0  0  0  0  0
   -8.0296    1.4823   27.2081 C   0  0  0  0  0  0  0  0  0  0  0  0
   -7.4425    0.2979   27.4502 C   0  0  0  0  0  0  0  0  0  0  0  0
   -9.0486    4.1049   26.2074 C   0  0  0  0  0  0  0  0  0  0  0  0
   -9.5405    3.0068   25.3789 C   0  0  0  0  0  0  0  0  0  0  0  0
   -9.0985    1.6383   25.9168 C   0  0  0  0  0  0  0  0  0  0  0  0
   -9.6771    5.3090   26.1309 C   0  0  0  0  0  0  0  0  0  0  0  0
   -9.4393    6.3453   26.8827 C   0  0  0  0  0  0  0  0  0  0  0  0
   -5.4965   -0.9789   28.3516 C   0  0  0  0  0  0  0  0  0  0  0  0
   -6.0715   -1.9861   28.4957 C   0  0  0  0  0  0  0  0  0  0  0  0
   -5.4874   -3.2327   28.9254 C   0  0  0  0  0  0  0  0  0  0  0  0
   -4.1310   -3.2213   29.2066 C   0  0  0  0  0  0  0  0  0  0  0  0
   -4.0304   -0.8829   28.7039 C   0  0  0  0  0  0  0  0  0  0  0  0
   -3.3770   -2.0140   29.1109 C   0  0  0  0  0  0  0  0  0  0  0  0
   -9.6076    0.4339   25.4092 C   0  0  0  0  0  0  0  0  0  0  0  0
  -10.1525    0.4274   24.2574 N   0  0  0  0  0  0  0  0  0  0  0  0
  -11.1391    0.9849   23.9187 C   0  0  0  0  0  0  0  0  0  0  0  0
   -9.4535   -0.3082   23.1378 C   0  0  0  0  0  0  0  0  0  0  0  0
  -11.8382    0.8025   23.0672 C   0  0  0  0  0  0  0  0  0  0  0  0
  -10.1811   -0.6277   22.0409 C   0  0  0  0  0  0  0  0  0  0  0  0
  -11.3787    0.1000   21.8367 C   0  0  0  0  0  0  0  0  0  0  0  0
   -1.9465   -1.9313   29.4379 C   0  0  0  0  0  0  0  0  0  0  0  0
   -1.3135   -1.1202   28.7273 O   0  0  0  0  0  0  0  0  0  0  0  0
   -1.4345   -2.6106   30.3568 O   0  0  0  0  0  0  0  0  0  0  0  0
  -10.0006   -0.4651   26.2179 O   0  0  0  0  0  0  0  0  0  0  0  0
  7 15  1  0
 12 21  1  0
 21 22  1  0
 22 23  1  0
 22 24  1  0
 25 27  1  0
 26 27  1  0
 20 28  1  0
 28 29  2  0
 28 30  1  0
 21 31  2  0
 23 25  1  0
 26 24  1  0
  3  5  2  0
  5  6  1  0
  6  7  2  0
  7  9  1  0
  9  8  2  0
  1  3  1  0
  3  8  1  0
  8 12  1  0
 12 11  2  0
 11 10  1  0
 15 16  2  0
 16 17  1  0
 17 18  2  0
 18 20  1  0
 20 19  2  0
 19 15  1  0
  1  2  2  0
  2  4  1  0
  4 14  2  0
 14 13  1  0
 13 10  2  0
 10  1  1  0
M  END
$$$$
