No_9623-complexes_sdf/6BKW-FPZ/2024-09-17-14-21-01/
     RDKit          3D

 16 18  0  0  0  0  0  0  0  0999 V2000
   -7.9040    3.9820   27.1177 C   0  0  0  0  0  0  0  0  0  0  0  0
   -7.8663    4.8694   27.9238 C   0  0  0  0  0  0  0  0  0  0  0  0
   -9.0953    3.1697   27.0532 C   0  0  0  0  0  0  0  0  0  0  0  0
  -10.1313    3.4052   27.8871 C   0  0  0  0  0  0  0  0  0  0  0  0
   -8.9489    5.3814   28.6671 C   0  0  0  0  0  0  0  0  0  0  0  0
  -10.1039    4.5714   28.7102 C   0  0  0  0  0  0  0  0  0  0  0  0
   -9.0505    1.9437   26.1963 C   0  0  0  0  0  0  0  0  0  0  0  0
   -8.3625    0.8150   26.4195 C   0  0  0  0  0  0  0  0  0  0  0  0
   -8.3440   -0.2455   25.5435 C   0  0  0  0  0  0  0  0  0  0  0  0
   -9.7341    2.0949   24.9641 C   0  0  0  0  0  0  0  0  0  0  0  0
  -10.3839    3.3063   24.5942 C   0  0  0  0  0  0  0  0  0  0  0  0
  -10.9253    3.4743   23.3309 C   0  0  0  0  0  0  0  0  0  0  0  0
   -9.0331   -0.0947   24.3439 C   0  0  0  0  0  0  0  0  0  0  0  0
   -9.6724    1.0942   24.0016 C   0  0  0  0  0  0  0  0  0  0  0  0
  -10.8453    2.4461   22.4253 C   0  0  0  0  0  0  0  0  0  0  0  0
  -10.1719    1.2313   22.7086 C   0  0  0  0  0  0  0  0  0  0  0  0
  3  7  1  0
 10 11  2  0
 11 12  1  0
 12 15  2  0
 15 16  1  0
 16 14  2  0
  1  2  2  0
  2  5  1  0
  5  6  2  0
  6  4  1  0
  4  3  2  0
  3  1  1  0
  7  8  2  0
  8  9  1  0
  9 13  2  0
 13 14  1  0
 14 10  1  0
 10  7  1  0
M  END
$$$$
