No_9318-complexes_sdf/6BKW-FPZ/2024-09-17-14-21-01/
     RDKit          3D

 23 26  0  0  0  0  0  0  0  0999 V2000
   -7.7129    4.2099   27.0854 C   0  0  0  0  0  0  0  0  0  0  0  0
   -8.2112    3.0637   26.9225 C   0  0  0  0  0  0  0  0  0  0  0  0
   -7.5138    1.9223   27.4249 C   0  0  0  0  0  0  0  0  0  0  0  0
   -6.5434    4.4363   27.9024 C   0  0  0  0  0  0  0  0  0  0  0  0
   -6.2005    2.1121   27.9323 C   0  0  0  0  0  0  0  0  0  0  0  0
   -5.7560    3.3924   28.1795 C   0  0  0  0  0  0  0  0  0  0  0  0
   -8.5326    5.4191   26.7935 C   0  0  0  0  0  0  0  0  0  0  0  0
   -9.4099    5.3414   25.7483 N   0  0  0  0  0  0  0  0  0  0  0  0
   -7.9675    6.7660   26.9081 C   0  0  0  0  0  0  0  0  0  0  0  0
   -8.6667    7.8954   26.4878 C   0  0  0  0  0  0  0  0  0  0  0  0
   -5.4331    0.9194   28.3494 C   0  0  2  0  0  0  0  0  0  0  0  0
   -4.2285    1.0507   28.8802 N   0  0  0  0  0  0  0  0  0  0  0  0
   -5.8889   -0.4320   28.0444 C   0  0  0  0  0  0  0  0  0  0  0  0
   -6.9823   -0.7628   27.3730 C   0  0  0  0  0  0  0  0  0  0  0  0
   -7.8818    0.4760   27.0546 C   0  0  0  0  0  0  0  0  0  0  0  0
   -9.9446    4.1786   25.4296 C   0  0  0  0  0  0  0  0  0  0  0  0
   -9.3603    2.9162   26.0124 C   0  0  0  0  0  0  0  0  0  0  0  0
  -11.0370    4.0345   24.5630 C   0  0  0  0  0  0  0  0  0  0  0  0
  -12.2302    4.2062   24.8153 C   0  0  0  0  0  0  0  0  0  0  0  0
  -10.6803    3.5175   23.1937 C   0  0  0  0  0  0  0  0  0  0  0  0
  -11.6156    3.4898   22.2239 C   0  0  0  0  0  0  0  0  0  0  0  0
  -13.3205    4.2311   23.8467 C   0  0  0  0  0  0  0  0  0  0  0  0
  -12.9573    3.8517   22.5436 C   0  0  0  0  0  0  0  0  0  0  0  0
  7  9  1  0
  9 10  2  0
  5 11  1  0
 11 13  1  0
 13 14  1  0
  3 15  1  0
 14 15  1  0
 16 18  1  0
 11 12  1  6
 18 19  2  0
 19 22  1  0
 22 23  2  0
 23 21  1  0
 21 20  2  0
 20 18  1  0
  2  3  1  0
  3  5  2  0
  5  6  1  0
  6  4  2  0
  4  1  1  0
  1  2  2  0
  2 17  1  0
 17 16  2  0
 16  8  1  0
  8  7  2  0
  7  1  1  0
M  END
$$$$
