No_9482-complexes_sdf/6BKW-FPZ/2024-09-17-14-21-01/
     RDKit          3D

  8  8  0  0  0  0  0  0  0  0999 V2000
   -7.7129    4.2099   27.0854 C   0  0  0  0  0  0  0  0  0  0  0  0
   -8.9133    4.4736   27.0998 C   0  0  0  0  0  0  0  0  0  0  0  0
   -9.7135    3.9633   26.0300 C   0  0  0  0  0  0  0  0  0  0  0  0
   -7.2585    2.8371   26.9278 C   0  0  0  0  0  0  0  0  0  0  0  0
   -9.4798    2.6045   25.7571 C   0  0  0  0  0  0  0  0  0  0  0  0
   -8.2172    2.0710   26.1388 C   0  0  0  0  0  0  0  0  0  0  0  0
  -10.3227    1.8657   24.8762 C   0  0  0  0  0  0  0  0  0  0  0  0
  -10.6434    0.7303   25.0780 C   0  0  0  0  0  0  0  0  0  0  0  0
  1  2  1  0
  2  3  1  0
  1  4  1  0
  3  5  1  0
  4  6  1  0
  5  6  1  0
  5  7  1  0
  7  8  2  0
M  END
$$$$
