No_987-complexes_sdf/6BKW-FPZ/2024-09-17-14-21-01/
     RDKit          3D

 20 22  0  0  0  0  0  0  0  0999 V2000
   -7.7129    4.2099   27.0854 C   0  0  0  0  0  0  0  0  0  0  0  0
   -8.9133    4.4736   27.0998 C   0  0  0  0  0  0  0  0  0  0  0  0
   -9.7937    3.7367   26.2091 C   0  0  0  0  0  0  0  0  0  0  0  0
   -7.2496    2.8647   26.8496 C   0  0  0  0  0  0  0  0  0  0  0  0
   -8.1891    1.9790   26.3454 C   0  0  0  0  0  0  0  0  0  0  0  0
   -9.4252    2.4603   26.0121 C   0  0  0  0  0  0  0  0  0  0  0  0
   -9.3199    5.9662   27.2512 C   0  0  0  0  0  0  0  0  0  0  0  0
   -7.7626    0.5908   26.1375 C   0  0  0  0  0  0  0  0  0  0  0  0
   -7.1393   -0.1043   26.8619 O   0  0  0  0  0  0  0  0  0  0  0  0
   -8.1210    0.0768   24.9515 O   0  0  0  0  0  0  0  0  0  0  0  0
   -8.1838    6.9165   27.3448 C   0  0  0  0  0  0  0  0  0  0  0  0
   -8.0959    7.7912   26.2670 C   0  0  0  0  0  0  0  0  0  0  0  0
   -9.1248    0.0106   24.3896 C   0  0  0  0  0  0  0  0  0  0  0  0
   -9.2996   -1.1026   23.5987 C   0  0  0  0  0  0  0  0  0  0  0  0
  -10.4958   -1.3238   22.7788 C   0  0  0  0  0  0  0  0  0  0  0  0
  -11.1125   -0.5124   22.6234 C   0  0  0  0  0  0  0  0  0  0  0  0
  -11.0981    0.8441   23.1967 C   0  0  0  0  0  0  0  0  0  0  0  0
  -10.0568    1.0916   24.0526 C   0  0  0  0  0  0  0  0  0  0  0  0
  -10.1338    2.2066   24.8962 N   0  0  0  0  0  0  0  0  0  0  0  0
  -10.9481    3.4027   24.8969 C   0  0  0  0  0  0  0  0  0  0  0  0
  2  7  1  0
  5  8  1  0
  8  9  2  0
  8 10  1  0
  7 11  2  3
 11 12  1  0
 10 13  1  0
  6 19  1  0
  3 20  1  0
 19 20  1  0
 13 14  2  0
 14 15  1  0
 15 16  2  0
 16 17  1  0
 17 18  2  0
 18 13  1  0
  1  2  2  0
  2  3  1  0
  3  6  2  0
  6  5  1  0
  5  4  2  0
  4  1  1  0
M  END
$$$$
