No_94-complexes_sdf/6BKW-FPZ/2024-09-17-14-21-01/
     RDKit          3D

 29 32  0  0  0  0  0  0  0  0999 V2000
   -7.9040    3.9820   27.1177 C   0  0  0  0  0  0  0  0  0  0  0  0
   -9.0711    4.3164   27.0630 C   0  0  0  0  0  0  0  0  0  0  0  0
   -9.5182    5.5541   27.5777 C   0  0  0  0  0  0  0  0  0  0  0  0
   -7.4468    2.6843   26.6499 C   0  0  0  0  0  0  0  0  0  0  0  0
   -8.3856    1.7878   26.2216 C   0  0  0  0  0  0  0  0  0  0  0  0
   -9.6812    2.2328   26.0889 C   0  0  0  0  0  0  0  0  0  0  0  0
  -10.0147    3.4312   26.5259 C   0  0  0  0  0  0  0  0  0  0  0  0
   -7.9143    0.4677   25.8109 C   0  0  0  0  0  0  0  0  0  0  0  0
   -7.9163    0.1471   24.6808 O   0  0  0  0  0  0  0  0  0  0  0  0
   -7.4978   -0.3883   26.7373 O   0  0  0  0  0  0  0  0  0  0  0  0
   -8.5533    6.6628   27.4953 C   0  0  0  0  0  0  0  0  0  0  0  0
   -6.8312    4.8799   27.6451 C   0  0  0  0  0  0  0  0  0  0  0  0
   -7.2300    6.2122   27.8592 C   0  0  0  0  0  0  0  0  0  0  0  0
   -7.0505   -1.5747   26.5718 C   0  0  0  0  0  0  0  0  0  0  0  0
   -7.6608   -2.6656   26.6616 C   0  0  0  0  0  0  0  0  0  0  0  0
   -7.2012   -3.7887   26.3654 C   0  0  0  0  0  0  0  0  0  0  0  0
   -5.6520   -1.6148   26.1631 C   0  0  0  0  0  0  0  0  0  0  0  0
   -5.0419   -2.7865   25.8014 C   0  0  0  0  0  0  0  0  0  0  0  0
   -3.6370   -2.8190   25.3867 C   0  0  0  0  0  0  0  0  0  0  0  0
   -5.8184   -3.9265   25.9630 C   0  0  0  0  0  0  0  0  0  0  0  0
   -3.2418   -3.7775   24.8118 O   0  0  0  0  0  0  0  0  0  0  0  0
   -2.8234   -1.9468   25.9785 O   0  0  0  0  0  0  0  0  0  0  0  0
  -11.4545    3.8423   26.2793 C   0  0  0  0  0  0  0  0  0  0  0  0
  -12.2572    2.9064   26.7749 C   0  0  0  0  0  0  0  0  0  0  0  0
  -12.3709    2.2226   27.5898 C   0  0  0  0  0  0  0  0  0  0  0  0
  -12.9408    1.4744   28.2752 C   0  0  0  0  0  0  0  0  0  0  0  0
  -14.3590    1.4887   28.1921 C   0  0  0  0  0  0  0  0  0  0  0  0
  -14.7262    2.3965   27.1255 C   0  0  0  0  0  0  0  0  0  0  0  0
  -13.8592    3.2826   26.4954 C   0  0  0  0  0  0  0  0  0  0  0  0
  5  8  1  0
  8  9  2  0
  8 10  1  0
 10 14  1  0
 18 19  1  0
 19 21  2  0
 19 22  1  0
  7 23  1  0
 23 24  1  0
 24 25  2  0
 25 26  1  0
 26 27  2  0
 27 28  1  0
 28 29  2  0
 29 24  1  0
  2  3  2  0
  3 11  1  0
 11 13  2  0
 13 12  1  0
 12  1  2  0
  1  2  1  0
  2  7  1  0
  7  6  2  0
  6  5  1  0
  5  4  2  0
  4  1  1  0
 14 15  2  0
 15 16  1  0
 16 20  2  0
 20 18  1  0
 18 17  2  0
 17 14  1  0
M  END
$$$$
