No_9881-complexes_sdf/6BKW-FPZ/2024-09-17-14-21-01/
     RDKit          3D

 13 14  0  0  0  0  0  0  0  0999 V2000
   -7.2496    3.8871   27.4508 C   0  0  0  0  0  0  0  0  0  0  0  0
   -7.6161    2.7143   27.1523 C   0  0  0  0  0  0  0  0  0  0  0  0
   -8.8302    2.4659   26.5056 C   0  0  0  0  0  0  0  0  0  0  0  0
   -8.1584    5.0090   27.3234 C   0  0  0  0  0  0  0  0  0  0  0  0
   -9.3788    4.7965   26.7695 C   0  0  0  0  0  0  0  0  0  0  0  0
   -9.7028    3.5649   26.3276 C   0  0  0  0  0  0  0  0  0  0  0  0
   -6.7182    1.5519   27.3631 C   0  0  0  0  0  0  0  0  0  0  0  0
   -5.5596    1.7410   28.0262 N   0  0  0  0  0  0  0  0  0  0  0  0
   -4.7111    0.6605   28.2263 C   0  0  0  0  0  0  0  0  0  0  0  0
   -5.1315   -0.5738   27.9428 C   0  0  0  0  0  0  0  0  0  0  0  0
   -7.1538    0.2663   26.9891 C   0  0  0  0  0  0  0  0  0  0  0  0
   -8.3811    0.1028   26.3972 C   0  0  0  0  0  0  0  0  0  0  0  0
   -9.2196    1.1644   26.1570 C   0  0  0  0  0  0  0  0  0  0  0  0
  7  8  1  0
  8  9  2  3
  9 10  1  0
  3 13  1  0
 13 12  2  0
 12 11  1  0
 11  7  2  0
  7  2  1  0
  1  2  2  0
  2  3  1  0
  3  6  2  0
  6  5  1  0
  5  4  2  0
  4  1  1  0
M  END
$$$$
