No_9925-complexes_sdf/6BKW-FPZ/2024-09-17-14-21-01/
     RDKit          3D

 30 34  0  0  0  0  0  0  0  0999 V2000
   -7.9040    3.9820   27.1177 C   0  0  0  0  0  0  0  0  0  0  0  0
   -9.0711    4.3164   27.0630 C   0  0  0  0  0  0  0  0  0  0  0  0
   -9.5294    5.4517   27.7215 C   0  0  0  0  0  0  0  0  0  0  0  0
   -7.4336    2.7132   26.5681 C   0  0  0  0  0  0  0  0  0  0  0  0
   -8.3353    1.8569   26.0442 C   0  0  0  0  0  0  0  0  0  0  0  0
   -9.6477    2.2853   25.9146 C   0  0  0  0  0  0  0  0  0  0  0  0
  -10.0346    3.4497   26.4483 C   0  0  0  0  0  0  0  0  0  0  0  0
   -7.8608    0.5626   25.5840 C   0  0  0  0  0  0  0  0  0  0  0  0
   -8.2927    0.2179   24.4936 O   0  0  0  0  0  0  0  0  0  0  0  0
   -7.1034   -0.1513   26.3488 O   0  0  0  0  0  0  0  0  0  0  0  0
   -6.9118    4.7037   27.8587 N   0  0  0  0  0  0  0  0  0  0  0  0
   -7.2602    5.8783   28.4516 C   0  0  0  0  0  0  0  0  0  0  0  0
   -8.5720    6.2514   28.3314 N   0  0  0  0  0  0  0  0  0  0  0  0
   -7.3366   -1.3303   26.7157 C   0  0  0  0  0  0  0  0  0  0  0  0
   -6.9127   -1.6419   27.9375 C   0  0  0  0  0  0  0  0  0  0  0  0
   -5.9157   -0.9792   28.6236 C   0  0  0  0  0  0  0  0  0  0  0  0
   -5.4411   -1.2739   29.9315 C   0  0  0  0  0  0  0  0  0  0  0  0
   -4.4166   -0.5246   30.6057 C   0  0  0  0  0  0  0  0  0  0  0  0
   -3.9730   -0.7780   31.9049 C   0  0  0  0  0  0  0  0  0  0  0  0
   -4.7235   -1.6028   32.7116 C   0  0  0  0  0  0  0  0  0  0  0  0
   -6.1360   -2.1183   30.8532 C   0  0  0  0  0  0  0  0  0  0  0  0
   -5.7783   -2.2749   32.1768 C   0  0  0  0  0  0  0  0  0  0  0  0
   -3.8283    0.3336   29.6426 N   0  0  0  0  0  0  0  0  0  0  0  0
   -4.1451    0.6515   28.4675 C   0  0  0  0  0  0  0  0  0  0  0  0
   -5.1250   -0.0174   27.8975 C   0  0  0  0  0  0  0  0  0  0  0  0
   -6.6151   -3.1599   33.0457 C   0  0  0  0  0  0  0  0  0  0  0  0
   -6.7446   -3.2466   34.1228 O   0  0  0  0  0  0  0  0  0  0  0  0
   -7.6336   -3.7734   32.1948 N   0  0  0  0  0  0  0  0  0  0  0  0
   -7.8553   -3.6381   30.9268 C   0  0  0  0  0  0  0  0  0  0  0  0
   -7.1228   -2.8303   30.2551 C   0  0  0  0  0  0  0  0  0  0  0  0
  5  8  1  0
  8  9  2  0
  8 10  1  0
 10 14  1  0
 14 15  2  3
 15 16  1  0
 22 26  1  0
 26 27  2  0
 26 28  1  0
 21 30  1  0
 29 30  1  0
 29 28  1  0
 18 19  2  0
 19 20  1  0
 20 22  2  0
 22 21  1  0
 21 17  2  0
 16 17  1  0
 17 18  1  0
 18 23  1  0
 23 24  2  0
 24 25  1  0
 25 16  2  0
  2  7  1  0
  7  6  2  0
  6  5  1  0
  5  4  2  0
  4  1  1  0
  1  2  1  0
  2  3  2  0
  3 13  1  0
 13 12  2  0
 12 11  1  0
 11  1  2  0
M  END
$$$$
