No_9183-complexes_sdf/6BKW-FPZ/2024-09-17-14-21-01/
     RDKit          3D

 31 34  0  0  0  0  0  0  0  0999 V2000
   -7.7129    4.2099   27.0854 C   0  0  0  0  0  0  0  0  0  0  0  0
   -8.9133    4.4736   27.0998 C   0  0  0  0  0  0  0  0  0  0  0  0
   -9.4643    5.5426   27.7628 C   0  0  0  0  0  0  0  0  0  0  0  0
   -6.8373    4.9942   27.9785 C   0  0  0  0  0  0  0  0  0  0  0  0
   -7.3932    6.0303   28.6784 C   0  0  0  0  0  0  0  0  0  0  0  0
   -8.7122    6.3429   28.5485 C   0  0  0  0  0  0  0  0  0  0  0  0
   -9.7990    3.6123   26.2052 C   0  0  0  0  0  0  0  0  0  0  0  0
   -9.3449    2.6421   25.5836 C   0  0  0  0  0  0  0  0  0  0  0  0
   -8.4797    1.7847   26.2078 C   0  0  0  0  0  0  0  0  0  0  0  0
   -7.9846    1.9089   27.4404 C   0  0  2  0  0  0  0  0  0  0  0  0
   -7.6659    3.0142   27.9378 C   0  0  0  0  0  0  0  0  0  0  0  0
  -10.0681    2.2259   24.3663 C   0  0  0  0  0  0  0  0  0  0  0  0
   -9.8117    1.1028   23.7361 C   0  0  0  0  0  0  0  0  0  0  0  0
  -10.4004    0.8349   22.5010 C   0  0  0  0  0  0  0  0  0  0  0  0
  -11.1786    1.7902   21.8525 C   0  0  0  0  0  0  0  0  0  0  0  0
  -10.6988    3.1703   23.5794 C   0  0  0  0  0  0  0  0  0  0  0  0
  -11.2728    3.0142   22.4359 C   0  0  0  0  0  0  0  0  0  0  0  0
   -7.3170    0.5864   27.8683 C   0  0  0  0  0  0  0  0  0  0  0  0
   -6.4747   -0.0982   27.1476 C   0  0  0  0  0  0  0  0  0  0  0  0
   -5.9216   -1.1251   27.6562 C   0  0  2  0  0  0  0  0  0  0  0  0
   -4.5695   -1.2898   27.4372 C   0  0  0  0  0  0  0  0  0  0  0  0
   -3.9957   -0.7507   26.1966 C   0  0  0  0  0  0  0  0  0  0  0  0
   -2.6143   -0.7521   26.1131 C   0  0  0  0  0  0  0  0  0  0  0  0
   -1.9314   -1.1055   27.1890 C   0  0  0  0  0  0  0  0  0  0  0  0
   -2.3110   -1.6233   28.3640 C   0  0  0  0  0  0  0  0  0  0  0  0
   -3.7217   -1.6231   28.4997 C   0  0  0  0  0  0  0  0  0  0  0  0
   -6.6572   -2.4105   27.2936 C   0  0  0  0  0  0  0  0  0  0  0  0
   -7.5157   -2.9189   28.2337 C   0  0  0  0  0  0  0  0  0  0  0  0
   -8.5251   -3.7295   27.8763 C   0  0  0  0  0  0  0  0  0  0  0  0
   -9.5413   -4.0999   28.8082 C   0  0  0  0  0  0  0  0  0  0  0  0
  -10.6810   -4.7289   28.4629 C   0  0  0  0  0  0  0  0  0  0  0  0
  2  7  1  0
  7  8  1  0
  8  9  2  0
  9 10  1  0
  1 11  1  0
 10 11  1  0
  8 12  1  0
 10 18  1  6
 18 19  1  0
 20 19  1  6
 20 27  1  0
 27 28  1  0
 28 29  2  3
 29 30  1  0
 30 31  2  0
 20 21  1  0
 12 13  2  0
 13 14  1  0
 14 15  2  0
 15 17  1  0
 17 16  2  0
 16 12  1  0
  1  2  1  0
  2  3  2  0
  3  6  1  0
  6  5  2  0
  5  4  1  0
  4  1  2  0
 21 22  2  0
 22 23  1  0
 23 24  2  0
 24 25  1  0
 25 26  2  0
 26 21  1  0
M  END
$$$$
