No_911-complexes_sdf/6BKW-FPZ/2024-09-17-14-21-01/
     RDKit          3D

 12 13  0  0  0  0  0  0  0  0999 V2000
   -7.2496    3.8871   27.4508 C   0  0  0  0  0  0  0  0  0  0  0  0
   -7.6161    2.7143   27.1523 C   0  0  0  0  0  0  0  0  0  0  0  0
   -6.9719    1.5838   27.5324 C   0  0  0  0  0  0  0  0  0  0  0  0
   -7.4590    0.2827   27.2615 C   0  0  0  0  0  0  0  0  0  0  0  0
   -8.7521    2.5117   26.3068 C   0  0  0  0  0  0  0  0  0  0  0  0
   -9.5643    3.6334   25.9825 C   0  0  0  0  0  0  0  0  0  0  0  0
   -8.0314    5.1004   27.2112 C   0  0  0  0  0  0  0  0  0  0  0  0
   -9.1347    4.9790   26.3962 C   0  0  0  0  0  0  0  0  0  0  0  0
   -6.7286   -0.8228   27.6827 C   0  0  0  0  0  0  0  0  0  0  0  0
   -5.4748   -0.6158   28.2788 C   0  0  0  0  0  0  0  0  0  0  0  0
   -4.9102    0.6316   28.4390 C   0  0  0  0  0  0  0  0  0  0  0  0
   -5.6225    1.6663   28.0909 C   0  0  0  0  0  0  0  0  0  0  0  0
  2  3  1  0
  3  4  2  0
  4  9  1  0
  9 10  2  0
 10 11  1  0
 11 12  2  0
 12  3  1  0
  1  2  2  0
  2  5  1  0
  5  6  2  0
  6  8  1  0
  8  7  2  0
  7  1  1  0
M  END
$$$$
