No_9243-complexes_sdf/6BKW-FPZ/2024-09-17-14-21-01/
     RDKit          3D

 40 46  0  0  0  0  0  0  0  0999 V2000
   -7.2496    3.8871   27.4508 C   0  0  0  0  0  0  0  0  0  0  0  0
   -8.5096    4.0291   27.2770 C   0  0  0  0  0  0  0  0  0  0  0  0
   -9.2669    5.1645   27.5845 C   0  0  0  0  0  0  0  0  0  0  0  0
   -8.4566    6.3212   27.8001 C   0  0  0  0  0  0  0  0  0  0  0  0
   -6.4921    5.0197   27.7961 C   0  0  0  0  0  0  0  0  0  0  0  0
   -7.1702    6.2351   27.9936 C   0  0  0  0  0  0  0  0  0  0  0  0
   -9.4921    2.9050   27.0139 C   0  0  0  0  0  0  0  0  0  0  0  0
   -9.7622    2.6174   26.0808 C   0  0  0  0  0  0  0  0  0  0  0  0
   -9.9789    3.3623   25.0169 C   0  0  0  0  0  0  0  0  0  0  0  0
  -10.3606    3.0441   23.6591 C   0  0  0  0  0  0  0  0  0  0  0  0
  -10.6330    3.9913   22.6810 C   0  0  0  0  0  0  0  0  0  0  0  0
  -10.5819    5.4107   23.0471 C   0  0  0  0  0  0  0  0  0  0  0  0
  -10.0665    5.6974   24.3177 C   0  0  0  0  0  0  0  0  0  0  0  0
   -9.8579    4.8897   25.2277 C   0  0  0  0  0  0  0  0  0  0  0  0
   -6.4876    2.3664   27.3819 Cl  0  0  0  0  0  0  0  0  0  0  0  0
  -10.0170    1.1139   25.6985 C   0  0  1  0  0  0  0  0  0  0  0  0
   -9.4286    0.1625   26.3831 C   0  0  0  0  0  0  0  0  0  0  0  0
   -8.8170   -0.6538   26.2842 C   0  0  0  0  0  0  0  0  0  0  0  0
   -8.3210   -1.6908   27.2942 C   0  0  0  0  0  0  0  0  0  0  0  0
   -8.9794   -1.6153   28.4996 C   0  0  0  0  0  0  0  0  0  0  0  0
   -9.9350   -0.6211   28.7340 C   0  0  0  0  0  0  0  0  0  0  0  0
  -10.2264    0.2399   27.8101 C   0  0  0  0  0  0  0  0  0  0  0  0
  -11.3955    0.8107   25.2797 C   0  0  0  0  0  0  0  0  0  0  0  0
  -11.4698    0.0232   24.1361 C   0  0  0  0  0  0  0  0  0  0  0  0
  -12.7640   -0.2914   23.6651 C   0  0  0  0  0  0  0  0  0  0  0  0
  -13.8542    0.2780   24.2754 C   0  0  0  0  0  0  0  0  0  0  0  0
  -13.7444    1.1295   25.3443 C   0  0  0  0  0  0  0  0  0  0  0  0
  -12.4939    1.4602   25.8475 C   0  0  0  0  0  0  0  0  0  0  0  0
   -7.9800   -0.9192   24.9696 C   0  0  0  0  0  0  0  0  0  0  0  0
   -7.1700   -1.7823   24.7838 C   0  0  0  0  0  0  0  0  0  0  0  0
   -6.7743   -2.6945   25.8696 C   0  0  0  0  0  0  0  0  0  0  0  0
   -7.3220   -2.6816   27.0576 C   0  0  0  0  0  0  0  0  0  0  0  0
  -14.9858    1.7049   25.9577 C   0  0  0  0  0  0  0  0  0  0  0  0
  -14.9100    2.5364   27.0193 C   0  0  0  0  0  0  0  0  0  0  0  0
  -16.0876    3.0874   27.5896 C   0  0  0  0  0  0  0  0  0  0  0  0
  -15.9040    3.9537   28.7436 C   0  0  0  0  0  0  0  0  0  0  0  0
  -14.8653    4.2863   29.1186 C   0  0  0  0  0  0  0  0  0  0  0  0
  -13.5839    3.8999   28.6001 C   0  0  0  0  0  0  0  0  0  0  0  0
  -13.6560    3.0039   27.5241 C   0  0  0  0  0  0  0  0  0  0  0  0
  -12.4222    2.4290   26.9243 C   0  0  0  0  0  0  0  0  0  0  0  0
  2  7  1  0
  7  8  1  0
  1 15  1  0
 16  8  1  1
 16 17  1  0
 16 23  1  0
  8  9  1  0
 23 24  2  0
 24 25  1  0
 25 26  2  0
 26 27  1  0
 28 23  1  0
  1  2  2  0
  2  3  1  0
  3  4  2  0
  4  6  1  0
  6  5  2  0
  5  1  1  0
  9 10  2  0
 10 11  1  0
 11 12  2  0
 12 13  1  0
 13 14  2  0
 14  9  1  0
 34 35  1  0
 35 36  2  0
 36 37  1  0
 37 38  2  0
 38 39  1  0
 27 28  2  0
 28 40  1  0
 40 39  2  0
 39 34  1  0
 34 33  2  0
 33 27  1  0
 17 18  2  0
 19 20  2  0
 20 21  1  0
 21 22  2  0
 22 17  1  0
 18 19  1  0
 19 32  1  0
 32 31  2  0
 31 30  1  0
 30 29  2  0
 29 18  1  0
M  END
$$$$
