No_9197-complexes_sdf/6BKW-FPZ/2024-09-17-14-21-01/
     RDKit          3D

 13 13  0  0  0  0  0  0  0  0999 V2000
   -7.2496    3.8871   27.4508 C   0  0  0  0  0  0  0  0  0  0  0  0
   -7.9379    4.9063   27.8518 C   0  0  0  0  0  0  0  0  0  0  0  0
   -7.5112    6.1898   27.6280 C   0  0  0  0  0  0  0  0  0  0  0  0
   -9.3085    4.6933   28.2930 C   0  0  0  0  0  0  0  0  0  0  0  0
   -7.7804    2.5137   27.6844 C   0  0  0  0  0  0  0  0  0  0  0  0
   -7.0500    1.4112   27.1569 C   0  0  0  0  0  0  0  0  0  0  0  0
   -7.2198    0.1763   27.6297 C   0  0  0  0  0  0  0  0  0  0  0  0
   -6.1691   -0.5748   28.1017 C   0  0  0  0  0  0  0  0  0  0  0  0
   -4.8314   -0.0999   27.9270 C   0  0  0  0  0  0  0  0  0  0  0  0
   -3.7964   -0.9347   28.0230 C   0  0  0  0  0  0  0  0  0  0  0  0
   -9.8924    3.4544   28.4202 C   0  0  0  0  0  0  0  0  0  0  0  0
   -9.1022    2.3950   28.0359 C   0  0  0  0  0  0  0  0  0  0  0  0
   -3.8949   -2.1685   28.5478 C   0  0  0  0  0  0  0  0  0  0  0  0
  2  3  1  0
  5  6  1  0
  6  7  1  0
  7  8  2  3
  8  9  1  0
  9 10  2  3
 10 13  1  0
  1  2  2  0
  2  4  1  0
  4 11  2  0
 11 12  1  0
 12  5  2  0
  5  1  1  0
M  END
$$$$
