No_9120-complexes_sdf/6BKW-FPZ/2024-09-17-14-21-01/
     RDKit          3D

 17 19  0  0  0  0  0  0  0  0999 V2000
   -7.2496    3.8871   27.4508 C   0  0  0  0  0  0  0  0  0  0  0  0
   -8.5096    4.0291   27.2770 C   0  0  0  0  0  0  0  0  0  0  0  0
   -9.2677    5.1714   27.5773 C   0  0  2  0  0  0  0  0  0  0  0  0
   -9.2765    2.8248   26.8371 C   0  0  0  0  0  0  0  0  0  0  0  0
  -10.4623    3.0171   26.3236 C   0  0  2  0  0  0  0  0  0  0  0  0
  -10.8972    2.6250   25.3350 C   0  0  0  0  0  0  0  0  0  0  0  0
  -12.2133    2.9588   24.7026 C   0  0  0  0  0  0  0  0  0  0  0  0
   -8.5061    6.3501   27.9961 C   0  0  0  0  0  0  0  0  0  0  0  0
  -12.4866    2.7830   23.4226 C   0  0  0  0  0  0  0  0  0  0  0  0
  -10.0987    2.3386   24.0911 C   0  0  0  0  0  0  0  0  0  0  0  0
  -10.3472    2.1388   22.8141 C   0  0  0  0  0  0  0  0  0  0  0  0
  -11.6344    2.3937   22.4423 C   0  0  0  0  0  0  0  0  0  0  0  0
   -6.5069    2.6658   27.3405 C   0  0  0  0  0  0  0  0  0  0  0  0
   -7.2262    1.5666   26.9863 C   0  0  0  0  0  0  0  0  0  0  0  0
   -8.5869    1.6541   26.6456 C   0  0  0  0  0  0  0  0  0  0  0  0
  -10.6620    5.2337   27.6591 C   0  0  0  0  0  0  0  0  0  0  0  0
  -10.8855    4.6646   26.5304 C   0  0  0  0  0  0  0  0  0  0  0  0
  2  3  1  0
  4  5  1  0
  3  8  1  1
  3 16  1  0
  5 17  1  0
 16 17  1  0
  5  6  1  6
  1  2  2  0
  2  4  1  0
  4 15  2  0
 15 14  1  0
 14 13  2  0
 13  1  1  0
  6  7  2  0
  7  9  1  0
  9 12  2  0
 12 11  1  0
 11 10  2  0
 10  6  1  0
M  END
$$$$
