No_9744-complexes_sdf/6BKW-FPZ/2024-09-17-14-21-01/
     RDKit          3D

 11 11  0  0  0  0  0  0  0  0999 V2000
   -7.9040    3.9820   27.1177 C   0  0  0  0  0  0  0  0  0  0  0  0
   -9.0711    4.3164   27.0630 C   0  0  0  0  0  0  0  0  0  0  0  0
   -9.8698    3.9665   25.9494 C   0  0  0  0  0  0  0  0  0  0  0  0
   -7.4046    2.7946   26.4568 C   0  0  0  0  0  0  0  0  0  0  0  0
   -8.3659    2.1310   25.6816 C   0  0  0  0  0  0  0  0  0  0  0  0
   -9.5390    2.7825   25.4030 C   0  0  0  0  0  0  0  0  0  0  0  0
   -6.8849    4.8404   28.2734 Cl  0  0  0  0  0  0  0  0  0  0  0  0
  -10.5695    2.3408   24.3573 C   0  0  0  0  0  0  0  0  0  0  0  0
  -11.2887    1.5427   24.3503 N   0  0  0  0  0  0  0  0  0  0  0  0
  -10.5480    3.1942   23.2148 C   0  0  0  0  0  0  0  0  0  0  0  0
  -11.3045    2.8356   22.1483 C   0  0  0  0  0  0  0  0  0  0  0  0
  1  7  1  0
  6  8  1  0
  8  9  2  0
  8 10  1  0
 10 11  1  0
  1  2  2  0
  2  3  1  0
  3  6  2  0
  6  5  1  0
  5  4  2  0
  4  1  1  0
M  END
$$$$
