No_9622-complexes_sdf/6BKW-FPZ/2024-09-17-14-21-01/
     RDKit          3D

 15 16  0  0  0  0  0  0  0  0999 V2000
   -7.7129    4.2099   27.0854 C   0  0  0  0  0  0  0  0  0  0  0  0
   -7.7814    5.1722   27.8972 C   0  0  0  0  0  0  0  0  0  0  0  0
   -8.8776    3.8408   26.3416 C   0  0  0  0  0  0  0  0  0  0  0  0
   -8.9136    2.6330   25.5655 C   0  0  0  0  0  0  0  0  0  0  0  0
   -8.8361    6.1389   27.9032 C   0  0  0  0  0  0  0  0  0  0  0  0
   -9.8295    4.8219   26.2725 C   0  0  0  0  0  0  0  0  0  0  0  0
   -9.8494    5.9177   27.0428 C   0  0  0  0  0  0  0  0  0  0  0  0
   -9.8408    2.4045   24.6028 C   0  0  0  0  0  0  0  0  0  0  0  0
   -9.9258    1.2029   23.9641 C   0  0  0  0  0  0  0  0  0  0  0  0
   -8.9338    0.1989   24.2501 C   0  0  0  0  0  0  0  0  0  0  0  0
   -8.0460    1.4706   25.8536 C   0  0  0  0  0  0  0  0  0  0  0  0
   -8.0694    0.3481   25.2542 C   0  0  0  0  0  0  0  0  0  0  0  0
   -7.1341   -0.7083   25.6140 C   0  0  0  0  0  0  0  0  0  0  0  0
   -7.5404   -1.6050   26.2527 O   0  0  0  0  0  0  0  0  0  0  0  0
   -5.8662   -0.6213   25.2106 O   0  0  0  0  0  0  0  0  0  0  0  0
  3  4  1  0
 12 13  1  0
 13 14  2  0
 13 15  1  0
  4  8  2  0
  8  9  1  0
  9 10  2  0
 10 12  1  0
 12 11  2  0
 11  4  1  0
  1  2  2  0
  2  5  1  0
  5  7  2  0
  7  6  1  0
  6  3  2  0
  3  1  1  0
M  END
$$$$
