No_9479-complexes_sdf/6BKW-FPZ/2024-09-17-14-21-01/
     RDKit          3D

 14 15  0  0  0  0  0  0  0  0999 V2000
   -7.7129    4.2099   27.0854 C   0  0  0  0  0  0  0  0  0  0  0  0
   -8.9133    4.4736   27.0998 C   0  0  0  0  0  0  0  0  0  0  0  0
   -9.8363    3.8127   27.2418 C   0  0  0  0  0  0  0  0  0  0  0  0
   -7.2995    2.8520   27.3808 C   0  0  0  0  0  0  0  0  0  0  0  0
   -8.3226    1.9328   27.4680 C   0  0  0  0  0  0  0  0  0  0  0  0
   -9.5955    2.3639   27.4416 C   0  0  0  0  0  0  0  0  0  0  0  0
   -9.1681    6.0379   26.9266 C   0  0  0  0  0  0  0  0  0  0  0  0
   -8.4863    6.8216   25.9752 C   0  0  0  0  0  0  0  0  0  0  0  0
   -8.0012    0.5064   27.6855 C   0  0  0  0  0  0  0  0  0  0  0  0
   -8.9970   -0.4809   27.6615 C   0  0  0  0  0  0  0  0  0  0  0  0
   -6.6322    0.1239   27.8333 C   0  0  0  0  0  0  0  0  0  0  0  0
   -6.2984   -1.2103   28.1051 C   0  0  0  0  0  0  0  0  0  0  0  0
   -8.6401   -1.8103   27.9624 C   0  0  0  0  0  0  0  0  0  0  0  0
   -7.3135   -2.1311   28.1658 C   0  0  0  0  0  0  0  0  0  0  0  0
  2  7  1  0
  7  8  1  0
  5  9  1  0
  9 10  2  0
 10 13  1  0
 13 14  2  0
 14 12  1  0
 12 11  2  0
 11  9  1  0
  1  2  2  0
  2  3  1  0
  3  6  2  0
  6  5  1  0
  5  4  2  0
  4  1  1  0
M  END
$$$$
