No_9547-complexes_sdf/6BKW-FPZ/2024-09-17-14-21-01/
     RDKit          3D

 25 28  0  0  0  0  0  0  0  0999 V2000
   -7.7129    4.2099   27.0854 C   0  0  0  0  0  0  0  0  0  0  0  0
   -8.2112    3.0637   26.9225 C   0  0  0  0  0  0  0  0  0  0  0  0
   -9.5629    2.7997   27.0678 C   0  0  0  0  0  0  0  0  0  0  0  0
   -8.5911    5.3704   27.2036 C   0  0  0  0  0  0  0  0  0  0  0  0
   -9.9544    5.1489   27.1401 C   0  0  0  0  0  0  0  0  0  0  0  0
  -10.4577    3.9280   27.0818 C   0  0  0  0  0  0  0  0  0  0  0  0
   -8.0445    6.6298   27.2942 N   0  0  0  0  0  0  0  0  0  0  0  0
  -10.0636    1.4089   26.9501 C   0  0  0  0  0  0  0  0  0  0  0  0
  -10.1878    0.8178   25.8716 N   0  0  0  0  0  0  0  0  0  0  0  0
   -9.9479   -0.2503   25.5611 C   0  0  0  0  0  0  0  0  0  0  0  0
   -9.9972   -0.7089   24.1945 C   0  0  0  0  0  0  0  0  0  0  0  0
  -10.2401    0.4220   23.3386 C   0  0  0  0  0  0  0  0  0  0  0  0
  -10.3522    1.6798   23.5995 C   0  0  0  0  0  0  0  0  0  0  0  0
  -10.2259    1.9370   25.0142 C   0  0  0  0  0  0  0  0  0  0  0  0
   -8.8173    7.7342   27.3001 C   0  0  0  0  0  0  0  0  0  0  0  0
  -10.4665    0.8966   28.1241 O   0  0  0  0  0  0  0  0  0  0  0  0
  -10.4523    2.7097   22.5580 C   0  0  0  0  0  0  0  0  0  0  0  0
  -10.6141    4.0799   22.9608 C   0  0  0  0  0  0  0  0  0  0  0  0
  -11.1934    4.8627   22.4789 C   0  0  0  0  0  0  0  0  0  0  0  0
  -11.3884    6.2115   23.1138 C   0  0  0  0  0  0  0  0  0  0  0  0
  -11.8375    4.7069   21.2028 C   0  0  0  0  0  0  0  0  0  0  0  0
  -10.7537    2.3815   21.3047 C   0  0  0  0  0  0  0  0  0  0  0  0
  -10.5889    1.1486   20.6802 C   0  0  0  0  0  0  0  0  0  0  0  0
  -11.3594    3.4413   20.4363 C   0  0  0  0  0  0  0  0  0  0  0  0
  -10.3533    0.0693   21.7654 C   0  0  0  0  0  0  0  0  0  0  0  0
  4  7  1  0
  3  8  1  0
  8  9  1  0
  9 10  1  0
 11 12  1  0
  9 14  1  0
 13 14  1  0
  7 15  1  0
  8 16  2  0
 19 20  1  0
 10 11  1  0
  1  2  2  0
  2  3  1  0
  3  6  2  0
  6  5  1  0
  5  4  2  0
  4  1  1  0
 12 25  2  0
 25 23  1  0
 23 22  2  0
 17 13  2  0
 13 12  1  0
 17 18  1  0
 18 19  2  0
 19 21  1  0
 21 24  2  0
 24 22  1  0
 22 17  1  0
M  END
$$$$
