No_965-complexes_sdf/6BKW-FPZ/2024-09-17-14-21-01/
     RDKit          3D

 27 31  0  0  0  0  0  0  0  0999 V2000
   -7.7129    4.2099   27.0854 C   0  0  0  0  0  0  0  0  0  0  0  0
   -8.9133    4.4736   27.0998 C   0  0  0  0  0  0  0  0  0  0  0  0
   -9.7937    3.7367   26.2091 C   0  0  0  0  0  0  0  0  0  0  0  0
   -7.2496    2.8647   26.8496 C   0  0  0  0  0  0  0  0  0  0  0  0
   -6.0209    2.3600   27.3869 C   0  0  0  0  0  0  0  0  0  0  0  0
   -9.3613    2.4975   25.8288 C   0  0  0  0  0  0  0  0  0  0  0  0
   -8.1226    2.0042   26.2755 C   0  0  0  0  0  0  0  0  0  0  0  0
   -5.7041    0.9998   27.4776 C   0  0  0  0  0  0  0  0  0  0  0  0
   -6.7000    0.1059   26.9744 C   0  0  0  0  0  0  0  0  0  0  0  0
   -7.8878    0.5995   26.3049 C   0  0  0  0  0  0  0  0  0  0  0  0
   -4.5282    0.5395   28.1119 C   0  0  0  0  0  0  0  0  0  0  0  0
   -3.9677   -0.5000   28.0091 C   0  0  0  0  0  0  0  0  0  0  0  0
   -2.7602   -0.9012   28.7191 C   0  0  0  0  0  0  0  0  0  0  0  0
   -2.5288   -1.2667   29.6734 C   0  0  0  0  0  0  0  0  0  0  0  0
   -1.1712   -1.5534   30.2719 C   0  0  0  0  0  0  0  0  0  0  0  0
   -0.1592   -1.4761   29.3658 C   0  0  0  0  0  0  0  0  0  0  0  0
   -1.5034   -0.7742   27.7695 C   0  0  0  0  0  0  0  0  0  0  0  0
   -0.3048   -1.0548   28.1811 C   0  0  0  0  0  0  0  0  0  0  0  0
   -4.4605   -1.5409   27.1515 C   0  0  0  0  0  0  0  0  0  0  0  0
   -9.3722    5.9469   27.3239 C   0  0  0  0  0  0  0  0  0  0  0  0
   -3.7951   -2.5832   27.0863 C   0  0  0  0  0  0  0  0  0  0  0  0
   -4.2616   -3.7203   26.3310 C   0  0  0  0  0  0  0  0  0  0  0  0
   -6.1615   -1.2777   26.7772 C   0  0  0  0  0  0  0  0  0  0  0  0
   -3.4382   -4.8304   26.0926 C   0  0  0  0  0  0  0  0  0  0  0  0
   -2.4546   -4.7919   26.4379 C   0  0  0  0  0  0  0  0  0  0  0  0
   -1.6554   -3.8358   27.1160 C   0  0  0  0  0  0  0  0  0  0  0  0
   -2.4089   -2.6988   27.3899 C   0  0  0  0  0  0  0  0  0  0  0  0
 12 13  1  0
  2 20  1  0
 21 19  1  0
  9 23  2  0
 23 19  1  0
 19 12  2  0
 12 11  1  0
 11  8  2  0
  1  2  2  0
  2  3  1  0
  3  6  2  0
  6  7  1  0
  4  1  1  0
 13 14  2  0
 14 15  1  0
 15 16  2  0
 16 18  1  0
 18 17  2  0
 17 13  1  0
 21 22  2  0
 22 24  1  0
 24 25  2  0
 25 26  1  0
 26 27  2  0
 27 21  1  0
  4  5  2  0
  5  8  1  0
  8  9  1  0
  9 10  1  0
 10  7  2  0
  7  4  1  0
M  END
$$$$
