No_9382-complexes_sdf/6BKW-FPZ/2024-09-17-14-21-01/
     RDKit          3D

 18 19  0  0  0  0  0  0  0  0999 V2000
   -7.9040    3.9820   27.1177 C   0  0  0  0  0  0  0  0  0  0  0  0
   -9.0711    4.3164   27.0630 C   0  0  0  0  0  0  0  0  0  0  0  0
   -9.9692    3.7224   26.1073 C   0  0  0  0  0  0  0  0  0  0  0  0
   -7.4776    2.6994   26.6283 C   0  0  0  0  0  0  0  0  0  0  0  0
   -8.4406    1.9440   25.9776 C   0  0  0  0  0  0  0  0  0  0  0  0
  -11.2305    4.2815   25.8232 C   0  0  0  0  0  0  0  0  0  0  0  0
   -9.6637    2.4907   25.6078 C   0  0  0  0  0  0  0  0  0  0  0  0
   -6.9112    4.6915   28.0471 C   0  0  0  0  0  0  0  0  0  0  0  0
  -11.5327    4.1798   24.3583 C   0  0  0  0  0  0  0  0  0  0  0  0
  -12.5226    3.4889   23.9177 C   0  0  0  0  0  0  0  0  0  0  0  0
  -13.4359    2.9527   24.8810 C   0  0  0  0  0  0  0  0  0  0  0  0
  -13.3720    3.4700   26.1706 C   0  0  0  0  0  0  0  0  0  0  0  0
  -12.0555    3.9470   26.6540 C   0  0  0  0  0  0  0  0  0  0  0  0
   -7.3905    5.8557   28.5517 N   0  0  0  0  0  0  0  0  0  0  0  0
   -5.7190    4.2481   28.2316 N   0  0  0  0  0  0  0  0  0  0  0  0
  -11.9462    4.1800   28.1485 C   0  0  0  0  0  0  0  0  0  0  0  0
  -13.0815    4.0202   28.9976 C   0  0  0  0  0  0  0  0  0  0  0  0
  -12.8097    3.9552   30.3896 C   0  0  0  0  0  0  0  0  0  0  0  0
  3  6  1  0
  1  8  1  0
  8 14  2  0
  8 15  1  0
 13 16  1  0
 16 17  2  3
 17 18  1  0
  1  2  2  0
  2  3  1  0
  3  7  2  0
  7  5  1  0
  5  4  2  0
  4  1  1  0
  6  9  2  0
  9 10  1  0
 10 11  2  0
 11 12  1  0
 12 13  2  0
 13  6  1  0
M  END
$$$$
