No_9144-complexes_sdf/6BKW-FPZ/2024-09-17-14-21-01/
     RDKit          3D

 24 25  0  0  0  0  0  0  0  0999 V2000
   -7.7129    4.2099   27.0854 C   0  0  0  0  0  0  0  0  0  0  0  0
   -8.2112    3.0637   26.9225 C   0  0  0  0  0  0  0  0  0  0  0  0
   -7.5138    1.9223   27.4249 C   0  0  0  0  0  0  0  0  0  0  0  0
   -6.5434    4.4363   27.9024 C   0  0  0  0  0  0  0  0  0  0  0  0
   -6.2005    2.1121   27.9323 C   0  0  0  0  0  0  0  0  0  0  0  0
   -5.7560    3.3924   28.1795 C   0  0  0  0  0  0  0  0  0  0  0  0
   -8.5371    5.4268   26.8066 C   0  0  1  0  0  0  0  0  0  0  0  0
   -8.4422    6.6262   27.5846 C   0  0  0  0  0  0  0  0  0  0  0  0
   -9.3833    5.3297   25.6600 C   0  0  0  0  0  0  0  0  0  0  0  0
   -5.5341    0.8244   28.2286 C   0  0  0  0  0  0  0  0  0  0  0  0
   -4.2816    0.9273   28.7793 N   0  0  0  0  0  0  0  0  0  0  0  0
   -3.5837   -0.1491   29.2845 C   0  0  0  0  0  0  0  0  0  0  0  0
   -2.3968   -0.0357   29.8253 C   0  0  0  0  0  0  0  0  0  0  0  0
   -3.9835   -1.3623   28.6006 C   0  0  0  0  0  0  0  0  0  0  0  0
   -6.1789   -0.2156   28.1861 O   0  0  0  0  0  0  0  0  0  0  0  0
   -3.1436   -2.5267   28.9764 C   0  0  0  0  0  0  0  0  0  0  0  0
   -1.5953   -1.1441   30.2097 C   0  0  0  0  0  0  0  0  0  0  0  0
   -1.9973   -2.3678   29.7322 C   0  0  0  0  0  0  0  0  0  0  0  0
  -10.2519    4.4506   25.5568 N   0  0  0  0  0  0  0  0  0  0  0  0
  -10.8606    4.1778   24.3399 C   0  0  0  0  0  0  0  0  0  0  0  0
  -11.8389    3.2541   24.1849 C   0  0  0  0  0  0  0  0  0  0  0  0
  -12.1543    2.5462   25.2469 C   0  0  0  0  0  0  0  0  0  0  0  0
  -11.6861    2.7483   26.5100 C   0  0  0  0  0  0  0  0  0  0  0  0
  -12.1110    2.0883   27.6860 C   0  0  0  0  0  0  0  0  0  0  0  0
  1  7  1  0
  7  8  1  6
  7  9  1  0
  5 10  1  0
 10 11  1  0
 10 15  2  0
  9 19  2  3
 19 20  1  0
 20 21  2  3
 21 22  1  0
 22 23  2  3
 23 24  1  0
 11 12  1  0
  1  2  2  0
  2  3  1  0
  3  5  2  0
  5  6  1  0
  6  4  2  0
  4  1  1  0
 12 13  2  0
 13 17  1  0
 17 18  2  0
 18 16  1  0
 16 14  2  0
 14 12  1  0
M  END
$$$$
