No_9773-complexes_sdf/6BKW-FPZ/2024-09-17-14-21-01/
     RDKit          3D

 16 17  0  0  0  0  0  0  0  0999 V2000
   -7.2496    3.8871   27.4508 C   0  0  0  0  0  0  0  0  0  0  0  0
   -7.6161    2.7143   27.1523 C   0  0  0  0  0  0  0  0  0  0  0  0
   -8.6317    1.7745   26.9900 C   0  0  0  0  0  0  0  0  0  0  0  0
   -8.5139    4.6994   27.4643 C   0  0  0  0  0  0  0  0  0  0  0  0
   -9.7625    4.1089   27.3434 C   0  0  0  0  0  0  0  0  0  0  0  0
   -9.8436    2.7373   27.1429 C   0  0  0  0  0  0  0  0  0  0  0  0
   -8.3283    6.3786   27.8118 Cl  0  0  0  0  0  0  0  0  0  0  0  0
   -8.7120    0.5058   26.7984 C   0  0  0  0  0  0  0  0  0  0  0  0
   -9.6665   -0.2212   27.1805 C   0  0  0  0  0  0  0  0  0  0  0  0
   -9.7296   -1.6084   27.0513 C   0  0  0  0  0  0  0  0  0  0  0  0
   -8.6583   -2.2042   26.4299 C   0  0  0  0  0  0  0  0  0  0  0  0
   -7.5866   -0.2249   26.2272 C   0  0  0  0  0  0  0  0  0  0  0  0
   -7.5746   -1.4835   26.0323 C   0  0  0  0  0  0  0  0  0  0  0  0
  -10.9140   -2.4158   27.5152 C   0  0  0  0  0  0  0  0  0  0  0  0
  -11.8180   -2.6444   26.8583 C   0  0  0  0  0  0  0  0  0  0  0  0
  -12.9929   -3.3838   27.3848 C   0  0  0  0  0  0  0  0  0  0  0  0
  4  7  1  0
  3  8  1  0
 10 14  1  0
 14 15  2  3
 15 16  1  0
  1  2  2  0
  2  3  1  0
  3  6  2  0
  6  5  1  0
  5  4  2  0
  4  1  1  0
  8  9  2  0
  9 10  1  0
 10 11  2  0
 11 13  1  0
 13 12  2  0
 12  8  1  0
M  END
$$$$
