No_9478-complexes_sdf/6BKW-FPZ/2024-09-17-14-21-01/
     RDKit          3D

 15 16  0  0  0  0  0  0  0  0999 V2000
   -7.2496    3.8871   27.4508 C   0  0  0  0  0  0  0  0  0  0  0  0
   -7.9379    4.9063   27.8518 C   0  0  0  0  0  0  0  0  0  0  0  0
   -7.5112    6.1898   27.6280 C   0  0  0  0  0  0  0  0  0  0  0  0
   -9.3085    4.6933   28.2930 C   0  0  0  0  0  0  0  0  0  0  0  0
   -7.5788    2.7932   27.1178 C   0  0  0  0  0  0  0  0  0  0  0  0
   -9.8184    3.3904   28.2375 C   0  0  0  0  0  0  0  0  0  0  0  0
   -9.0072    2.4412   27.6218 C   0  0  0  0  0  0  0  0  0  0  0  0
   -9.4527    1.0001   27.4821 C   0  0  0  0  0  0  0  0  0  0  0  0
  -10.7395    0.8275   27.7688 C   0  0  0  0  0  0  0  0  0  0  0  0
   -8.5503   -0.0014   27.2318 C   0  0  0  0  0  0  0  0  0  0  0  0
   -8.9858   -1.3239   27.2686 C   0  0  0  0  0  0  0  0  0  0  0  0
  -11.1961   -0.5578   27.8582 C   0  0  0  0  0  0  0  0  0  0  0  0
  -10.3084   -1.5591   27.5856 C   0  0  0  0  0  0  0  0  0  0  0  0
   -8.4635    7.3077   27.6376 C   0  0  0  0  0  0  0  0  0  0  0  0
   -8.7947    7.4278   26.1639 C   0  0  0  0  0  0  0  0  0  0  0  0
  2  3  1  0
  7  8  1  0
  3 14  1  0
 14 15  1  0
  8  9  2  0
  9 12  1  0
 12 13  2  0
 13 11  1  0
 11 10  2  0
 10  8  1  0
  1  2  2  0
  2  4  1  0
  4  6  2  0
  6  7  1  0
  7  5  2  0
  5  1  1  0
M  END
$$$$
