No_9877-complexes_sdf/6BKW-FPZ/2024-09-17-14-21-01/
     RDKit          3D

 26 29  0  0  0  0  0  0  0  0999 V2000
   -7.9040    3.9820   27.1177 C   0  0  0  0  0  0  0  0  0  0  0  0
   -9.0711    4.3164   27.0630 C   0  0  0  0  0  0  0  0  0  0  0  0
   -9.5294    5.4517   27.7215 C   0  0  0  0  0  0  0  0  0  0  0  0
   -7.4336    2.7132   26.5681 C   0  0  0  0  0  0  0  0  0  0  0  0
   -8.3353    1.8569   26.0442 C   0  0  0  0  0  0  0  0  0  0  0  0
   -9.6477    2.2853   25.9146 C   0  0  0  0  0  0  0  0  0  0  0  0
  -10.0346    3.4497   26.4483 C   0  0  0  0  0  0  0  0  0  0  0  0
   -7.8608    0.5626   25.5840 C   0  0  0  0  0  0  0  0  0  0  0  0
   -6.9268   -0.1385   26.3326 C   0  0  0  0  0  0  0  0  0  0  0  0
   -6.8202    0.1333   27.6536 C   0  0  0  0  0  0  0  0  0  0  0  0
   -5.8585   -0.5685   28.4928 C   0  0  0  0  0  0  0  0  0  0  0  0
   -5.0427   -1.4670   27.8929 C   0  0  0  0  0  0  0  0  0  0  0  0
   -5.1789   -1.7127   26.5244 C   0  0  0  0  0  0  0  0  0  0  0  0
   -6.0878   -1.0281   25.7374 C   0  0  0  0  0  0  0  0  0  0  0  0
   -6.8805    4.7532   27.9522 C   0  0  0  0  0  0  0  0  0  0  0  0
   -8.2854    0.1065   24.4869 O   0  0  0  0  0  0  0  0  0  0  0  0
   -7.3290    5.9294   28.4752 N   0  0  0  0  0  0  0  0  0  0  0  0
   -8.6170    6.3354   28.2818 C   0  0  0  0  0  0  0  0  0  0  0  0
   -5.6805    4.3567   28.1046 N   0  0  0  0  0  0  0  0  0  0  0  0
  -11.1930    4.0474   25.9127 C   0  0  0  0  0  0  0  0  0  0  0  0
  -11.9741    3.3689   25.0199 C   0  0  0  0  0  0  0  0  0  0  0  0
  -13.1567    3.9651   24.5436 C   0  0  0  0  0  0  0  0  0  0  0  0
  -14.1312    3.6960   24.4060 C   0  0  0  0  0  0  0  0  0  0  0  0
  -14.6911    2.6733   25.2038 C   0  0  0  0  0  0  0  0  0  0  0  0
  -13.7081    1.7370   25.5543 C   0  0  0  0  0  0  0  0  0  0  0  0
  -12.3703    2.1847   25.6902 C   0  0  0  0  0  0  0  0  0  0  0  0
  5  8  1  0
  8  9  1  0
  8 16  2  0
 15 19  1  0
  7 20  1  0
 20 21  1  0
  2  7  1  0
  7  6  2  0
  6  5  1  0
  5  4  2  0
  4  1  1  0
  9 10  2  0
 10 11  1  0
 11 12  2  0
 12 13  1  0
 13 14  2  0
 14  9  1  0
  1  2  1  0
  2  3  2  0
  3 18  1  0
 18 17  2  0
 17 15  1  0
 15  1  2  0
 21 22  2  0
 22 23  1  0
 23 24  2  0
 24 25  1  0
 25 26  2  0
 26 21  1  0
M  END
$$$$
