No_9324-complexes_sdf/6BKW-FPZ/2024-09-17-14-21-01/
     RDKit          3D

 35 40  0  0  0  0  0  0  0  0999 V2000
   -7.2496    3.8871   27.4508 C   0  0  0  0  0  0  0  0  0  0  0  0
   -7.6161    2.7143   27.1523 C   0  0  0  0  0  0  0  0  0  0  0  0
   -8.8302    2.4659   26.5056 C   0  0  0  0  0  0  0  0  0  0  0  0
   -8.1584    5.0090   27.3234 C   0  0  0  0  0  0  0  0  0  0  0  0
   -9.3788    4.7965   26.7695 C   0  0  0  0  0  0  0  0  0  0  0  0
   -9.7028    3.5649   26.3276 C   0  0  0  0  0  0  0  0  0  0  0  0
   -6.7182    1.5519   27.3631 C   0  0  0  0  0  0  0  0  0  0  0  0
   -7.0500    0.2083   27.2450 C   0  0  0  0  0  0  0  0  0  0  0  0
   -6.2063   -0.7601   27.5521 C   0  0  0  0  0  0  0  0  0  0  0  0
   -4.9394   -0.4352   28.1041 C   0  0  0  0  0  0  0  0  0  0  0  0
   -4.5672    0.8802   28.2862 C   0  0  0  0  0  0  0  0  0  0  0  0
   -5.4068    1.8597   27.9844 C   0  0  0  0  0  0  0  0  0  0  0  0
   -7.9263    6.3069   27.7641 N   0  0  0  0  0  0  0  0  0  0  0  0
   -4.0132   -1.5631   28.5256 C   0  0  0  0  0  0  0  0  0  0  0  0
   -2.9189   -1.3416   28.7273 C   0  0  0  0  0  0  0  0  0  0  0  0
   -2.3895    0.0870   28.8940 C   0  0  0  0  0  0  0  0  0  0  0  0
   -3.1950    1.1038   28.6829 C   0  0  0  0  0  0  0  0  0  0  0  0
  -10.9795    3.1345   25.7261 C   0  0  1  0  0  0  0  0  0  0  0  0
  -11.4768    4.0369   24.7447 C   0  0  0  0  0  0  0  0  0  0  0  0
  -10.5450    4.4696   23.8170 C   0  0  0  0  0  0  0  0  0  0  0  0
  -12.8831    4.2162   24.5473 C   0  0  0  0  0  0  0  0  0  0  0  0
  -11.0014    5.0957   22.5852 C   0  0  0  0  0  0  0  0  0  0  0  0
  -13.3567    4.8355   23.3558 C   0  0  0  0  0  0  0  0  0  0  0  0
  -12.3848    5.3261   22.4424 C   0  0  0  0  0  0  0  0  0  0  0  0
  -11.1096    1.6998   25.3635 C   0  0  0  0  0  0  0  0  0  0  0  0
  -12.0196    3.3674   26.9963 C   0  0  1  0  0  0  0  0  0  0  0  0
  -10.4177    1.2004   24.4850 C   0  0  0  0  0  0  0  0  0  0  0  0
  -10.5491    0.0511   23.9363 C   0  0  0  0  0  0  0  0  0  0  0  0
  -11.5866   -0.7454   24.3794 C   0  0  0  0  0  0  0  0  0  0  0  0
  -12.4444   -0.2811   25.3554 C   0  0  0  0  0  0  0  0  0  0  0  0
  -12.2642    0.9828   25.8512 C   0  0  0  0  0  0  0  0  0  0  0  0
  -11.6710    4.4347   27.8125 C   0  0  0  0  0  0  0  0  0  0  0  0
  -13.1815    2.7248   27.0517 C   0  0  0  0  0  0  0  0  0  0  0  0
  -13.2407    1.4734   26.7110 C   0  0  0  0  0  0  0  0  0  0  0  0
   -8.0278    7.3725   26.9064 C   0  0  0  0  0  0  0  0  0  0  0  0
  2  7  1  0
  4 13  1  0
 18  6  1  1
 18 19  1  0
 18 25  1  0
 18 26  1  0
 26 33  1  0
 31 34  1  0
 13 35  1  0
 26 32  1  6
 34 33  1  0
 25 27  2  0
 27 28  1  0
 28 29  2  0
 29 30  1  0
 30 31  2  0
 31 25  1  0
 11 17  1  0
 17 16  2  0
 16 15  1  0
 15 14  2  0
 14 10  1  0
  1  2  2  0
  2  3  1  0
  3  6  2  0
  6  5  1  0
  5  4  2  0
  4  1  1  0
  7  8  2  0
  8  9  1  0
  9 10  2  0
 10 11  1  0
 11 12  2  0
 12  7  1  0
 19 20  2  0
 20 22  1  0
 22 24  2  0
 24 23  1  0
 23 21  2  0
 21 19  1  0
M  END
$$$$
