No_9119-complexes_sdf/6BKW-FPZ/2024-09-17-14-21-01/
     RDKit          3D

 17 18  0  0  0  0  0  0  0  0999 V2000
   -7.9040    3.9820   27.1177 C   0  0  0  0  0  0  0  0  0  0  0  0
   -8.2057    2.8231   26.8733 C   0  0  0  0  0  0  0  0  0  0  0  0
   -7.0130    4.3706   28.1140 C   0  0  0  0  0  0  0  0  0  0  0  0
   -7.4093    1.7370   27.3857 C   0  0  0  0  0  0  0  0  0  0  0  0
   -7.7256    0.3814   27.1250 C   0  0  0  0  0  0  0  0  0  0  0  0
   -9.0139    0.1894   26.6369 C   0  0  0  0  0  0  0  0  0  0  0  0
   -9.7651    1.1582   26.3470 C   0  0  0  0  0  0  0  0  0  0  0  0
   -9.4413    2.4907   26.3591 C   0  0  0  0  0  0  0  0  0  0  0  0
   -8.5796    5.1192   26.4330 C   0  0  0  0  0  0  0  0  0  0  0  0
   -6.8201    5.7975   28.5049 C   0  0  0  0  0  0  0  0  0  0  0  0
   -8.4264    6.4944   26.7751 C   0  0  0  0  0  0  0  0  0  0  0  0
   -7.5142    6.7520   27.8079 C   0  0  0  0  0  0  0  0  0  0  0  0
   -6.9787   -0.5611   27.6386 F   0  0  0  0  0  0  0  0  0  0  0  0
  -11.1165    0.8069   25.6228 C   0  0  0  0  0  0  0  0  0  0  0  0
  -11.6373   -0.1191   25.8115 N   0  0  0  0  0  0  0  0  0  0  0  0
  -12.8182   -0.4864   25.4782 C   0  0  0  0  0  0  0  0  0  0  0  0
  -13.4049   -1.7054   25.8091 C   0  0  0  0  0  0  0  0  0  0  0  0
  1  2  1  0
  5 13  1  0
  7 14  1  0
 14 15  1  0
 15 16  1  0
 16 17  2  0
  2  4  2  0
  4  5  1  0
  5  6  2  0
  6  7  1  0
  7  8  2  0
  8  2  1  0
  1  3  2  0
  3 10  1  0
 10 12  2  0
 12 11  1  0
 11  9  2  0
  9  1  1  0
M  END
$$$$
