No_994-complexes_sdf/6BKW-FPZ/2024-09-17-14-21-01/
     RDKit          3D

 24 26  0  0  0  0  0  0  0  0999 V2000
   -7.9040    3.9820   27.1177 C   0  0  0  0  0  0  0  0  0  0  0  0
   -7.8663    4.8694   27.9238 C   0  0  0  0  0  0  0  0  0  0  0  0
   -9.0806    3.1428   27.1220 C   0  0  0  0  0  0  0  0  0  0  0  0
   -8.9544    1.8782   26.5468 C   0  0  0  0  0  0  0  0  0  0  0  0
   -8.9992    5.6252   28.3272 C   0  0  0  0  0  0  0  0  0  0  0  0
  -10.2387    4.9629   28.1481 C   0  0  0  0  0  0  0  0  0  0  0  0
  -10.2265    3.7422   27.5150 C   0  0  0  0  0  0  0  0  0  0  0  0
   -9.3507    1.5928   25.3783 C   0  0  2  0  0  0  0  0  0  0  0  0
  -10.0345    2.5948   24.5916 C   0  0  0  0  0  0  0  0  0  0  0  0
  -10.8003    2.4517   23.8309 C   0  0  0  0  0  0  0  0  0  0  0  0
  -11.5393    3.6071   23.2115 C   0  0  0  0  0  0  0  0  0  0  0  0
  -11.0157    4.8969   23.5229 C   0  0  0  0  0  0  0  0  0  0  0  0
  -10.0562    5.0298   24.4575 C   0  0  0  0  0  0  0  0  0  0  0  0
   -9.5601    3.9944   25.0491 C   0  0  0  0  0  0  0  0  0  0  0  0
   -8.3362    0.8270   27.4565 C   0  0  0  0  0  0  0  0  0  0  0  0
   -6.9516    0.5808   27.3426 C   0  0  0  0  0  0  0  0  0  0  0  0
   -6.3132   -0.5010   27.1471 C   0  0  0  0  0  0  0  0  0  0  0  0
   -4.8808   -0.5304   27.1218 C   0  0  0  0  0  0  0  0  0  0  0  0
   -4.1702   -1.5251   26.5234 C   0  0  0  0  0  0  0  0  0  0  0  0
   -4.8894   -2.6887   26.1522 C   0  0  0  0  0  0  0  0  0  0  0  0
   -6.2554   -2.6945   26.2702 C   0  0  0  0  0  0  0  0  0  0  0  0
   -6.9891   -1.6391   26.7105 C   0  0  0  0  0  0  0  0  0  0  0  0
   -9.2470    0.2944   24.7273 C   0  0  0  0  0  0  0  0  0  0  0  0
  -10.0582   -0.7610   24.8430 C   0  0  0  0  0  0  0  0  0  0  0  0
  8  4  1  1
  8  9  1  0
  4 15  1  0
 15 16  1  0
  8 23  1  0
 23 24  2  0
  4  3  1  0
 16 17  1  0
  9 10  2  0
 10 11  1  0
 11 12  2  0
 12 13  1  0
 13 14  2  0
 14  9  1  0
 17 18  2  0
 18 19  1  0
 19 20  2  0
 20 21  1  0
 21 22  2  0
 22 17  1  0
  1  2  2  0
  2  5  1  0
  5  6  2  0
  6  7  1  0
  7  3  2  0
  3  1  1  0
M  END
$$$$
