No_9884-complexes_sdf/6BKW-FPZ/2024-09-17-14-21-01/
     RDKit          3D

 25 28  0  0  0  0  0  0  0  0999 V2000
   -7.9040    3.9820   27.1177 C   0  0  0  0  0  0  0  0  0  0  0  0
   -8.2057    2.8231   26.8733 C   0  0  0  0  0  0  0  0  0  0  0  0
   -7.0130    4.3706   28.1140 C   0  0  0  0  0  0  0  0  0  0  0  0
   -7.4093    1.7370   27.3857 C   0  0  0  0  0  0  0  0  0  0  0  0
   -6.1943    2.1490   28.0403 C   0  0  0  0  0  0  0  0  0  0  0  0
   -5.9708    3.4680   28.3199 C   0  0  0  0  0  0  0  0  0  0  0  0
   -8.9091    5.0939   26.7085 C   0  0  0  0  0  0  0  0  0  0  0  0
   -9.0401    6.2709   27.4394 C   0  0  0  0  0  0  0  0  0  0  0  0
   -9.5539    4.9214   25.4734 C   0  0  0  0  0  0  0  0  0  0  0  0
   -5.1036    1.1803   28.4905 C   0  0  0  0  0  0  0  0  0  0  0  0
   -3.8899    1.4073   28.6882 C   0  0  0  0  0  0  0  0  0  0  0  0
   -5.6294   -0.2120   28.6391 C   0  0  0  0  0  0  0  0  0  0  0  0
   -4.6997   -1.1593   29.0806 C   0  0  0  0  0  0  0  0  0  0  0  0
   -2.9404    0.4654   29.0824 C   0  0  0  0  0  0  0  0  0  0  0  0
   -3.4006   -0.8674   29.2900 C   0  0  0  0  0  0  0  0  0  0  0  0
   -2.4580   -1.9110   29.7615 C   0  0  0  0  0  0  0  0  0  0  0  0
   -1.4986   -2.0929   29.1480 O   0  0  0  0  0  0  0  0  0  0  0  0
   -2.8056   -2.5228   30.8367 O   0  0  0  0  0  0  0  0  0  0  0  0
  -10.3804    3.9080   25.1836 C   0  0  0  0  0  0  0  0  0  0  0  0
  -11.0513    3.9242   23.9112 C   0  0  0  0  0  0  0  0  0  0  0  0
  -11.9163    2.9428   23.5643 C   0  0  0  0  0  0  0  0  0  0  0  0
  -12.0761    1.8970   24.3816 C   0  0  0  0  0  0  0  0  0  0  0  0
  -11.4590    1.8038   25.5799 C   0  0  0  0  0  0  0  0  0  0  0  0
  -10.6246    2.8033   26.0240 C   0  0  0  0  0  0  0  0  0  0  0  0
   -9.4552    2.3158   26.2286 C   0  0  0  0  0  0  0  0  0  0  0  0
  1  7  1  0
  7  8  2  0
  7  9  1  0
  5 10  1  0
 15 16  1  0
 16 17  2  0
 16 18  1  0
  2 25  1  0
 24 25  1  0
  9 19  1  0
  1  2  2  0
  2  4  1  0
  4  5  2  0
  5  6  1  0
  6  3  2  0
  3  1  1  0
 10 11  2  0
 11 14  1  0
 14 15  2  0
 15 13  1  0
 13 12  2  0
 12 10  1  0
 19 20  2  0
 20 21  1  0
 21 22  2  0
 22 23  1  0
 23 24  2  0
 24 19  1  0
M  END
$$$$
