No_9769-complexes_sdf/6BKW-FPZ/2024-09-17-14-21-01/
     RDKit          3D

 25 28  0  0  0  0  0  0  0  0999 V2000
   -7.7129    4.2099   27.0854 C   0  0  1  0  0  0  0  0  0  0  0  0
   -8.9133    4.4736   27.0998 C   0  0  2  0  0  0  0  0  0  0  0  0
   -9.7135    3.9633   26.0300 C   0  0  0  0  0  0  0  0  0  0  0  0
   -6.8420    4.9760   28.0851 C   0  0  0  0  0  0  0  0  0  0  0  0
   -9.6552    4.2399   24.9004 C   0  0  0  0  0  0  0  0  0  0  0  0
  -10.3675    3.7380   23.7525 C   0  0  0  0  0  0  0  0  0  0  0  0
  -11.1614    2.6751   23.9753 C   0  0  0  0  0  0  0  0  0  0  0  0
  -10.5988    2.8333   26.2882 C   0  0  0  0  0  0  0  0  0  0  0  0
  -11.3388    2.2375   25.2782 C   0  0  0  0  0  0  0  0  0  0  0  0
   -9.5393    5.3740   28.0079 C   0  0  0  0  0  0  0  0  0  0  0  0
   -8.5297    3.4576   27.8435 C   0  0  2  0  0  0  0  0  0  0  0  0
   -8.7801    2.1381   27.5047 C   0  0  2  0  0  0  0  0  0  0  0  0
   -8.7218    3.6503   29.1717 O   0  0  0  0  0  0  0  0  0  0  0  0
  -10.9393    2.4503   27.4256 C   0  0  0  0  0  0  0  0  0  0  0  0
   -9.9493    1.6470   28.1080 C   0  0  0  0  0  0  0  0  0  0  0  0
   -7.7764    3.1577   28.7133 F   0  0  0  0  0  0  0  0  0  0  0  0
   -7.1214    3.7827   26.1000 O   0  0  0  0  0  0  0  0  0  0  0  0
   -7.6103    5.2927   27.3262 O   0  0  0  0  0  0  0  0  0  0  0  0
   -7.7265    6.6814   26.9131 C   0  0  0  0  0  0  0  0  0  0  0  0
   -7.2418    5.8146   29.1738 C   0  0  0  0  0  0  0  0  0  0  0  0
   -7.6233    1.0674   28.0683 C   0  0  0  0  0  0  0  0  0  0  0  0
   -8.9082    5.0553   28.9819 C   0  0  1  0  0  0  0  0  0  0  0  0
   -7.4350   -0.0898   27.0309 C   0  0  0  0  0  0  0  0  0  0  0  0
   -6.3096   -0.8298   27.3693 C   0  0  0  0  0  0  0  0  0  0  0  0
   -6.0960   -1.9964   26.7565 C   0  0  0  0  0  0  0  0  0  0  0  0
  1  2  1  0
  2  3  1  6
  1  4  1  0
  2 10  1  0
  2 11  1  0
 11 12  1  0
 11 13  1  0
  8 14  1  0
 12 15  1  1
 14 15  1  0
 11 16  1  1
  1 17  1  1
  1 18  1  0
 18 19  1  0
  4 20  1  0
 12 21  1  0
 10 22  1  0
 13 22  1  0
 22 20  1  6
 21 23  2  3
 23 24  1  0
 24 25  2  0
  3  5  2  0
  5  6  1  0
  6  7  2  0
  7  9  1  0
  9  8  2  0
  8  3  1  0
M  END
$$$$
