No_9886-complexes_sdf/6BKW-FPZ/2024-09-17-14-21-01/
     RDKit          3D

 18 20  0  0  0  0  0  0  0  0999 V2000
   -7.2496    3.8871   27.4508 C   0  0  0  0  0  0  0  0  0  0  0  0
   -8.5096    4.0291   27.2770 C   0  0  0  0  0  0  0  0  0  0  0  0
   -9.3502    2.8685   26.8763 C   0  0  0  0  0  0  0  0  0  0  0  0
   -6.6288    2.5513   27.4938 C   0  0  0  0  0  0  0  0  0  0  0  0
   -7.4365    1.4714   27.2032 C   0  0  0  0  0  0  0  0  0  0  0  0
   -8.7772    1.6579   26.9338 C   0  0  0  0  0  0  0  0  0  0  0  0
   -9.1119    5.3743   27.2229 C   0  0  0  0  0  0  0  0  0  0  0  0
  -10.3508    5.4296   27.6019 F   0  0  0  0  0  0  0  0  0  0  0  0
   -8.4337    6.2679   28.0732 F   0  0  0  0  0  0  0  0  0  0  0  0
   -8.9905    5.8874   25.9738 F   0  0  0  0  0  0  0  0  0  0  0  0
   -6.7900    0.1891   27.1667 C   0  0  0  0  0  0  0  0  0  0  0  0
   -5.5700   -0.0446   27.8125 C   0  0  0  0  0  0  0  0  0  0  0  0
   -4.9446   -1.3075   27.8249 C   0  0  0  0  0  0  0  0  0  0  0  0
   -3.7415   -1.4831   28.5372 C   0  0  0  0  0  0  0  0  0  0  0  0
   -3.1065   -0.3965   29.1913 C   0  0  0  0  0  0  0  0  0  0  0  0
   -3.7759    0.8943   29.1734 C   0  0  0  0  0  0  0  0  0  0  0  0
   -4.9410    1.0276   28.5487 C   0  0  0  0  0  0  0  0  0  0  0  0
   -5.5100    2.3353   28.3581 N   0  0  0  0  0  0  0  0  0  0  0  0
  2  7  1  0
  7  8  1  0
  7  9  1  0
  7 10  1  0
 12 13  1  0
 13 14  2  0
 14 15  1  0
 15 16  2  0
 16 17  1  0
  1  2  2  0
  2  3  1  0
  3  6  2  0
  6  5  1  0
  4  1  1  0
  4  5  2  0
  5 11  1  0
 11 12  2  0
 12 17  1  0
 17 18  2  0
 18  4  1  0
M  END
$$$$
