No_9023-complexes_sdf/6BKW-FPZ/2024-09-17-14-21-01/
     RDKit          3D

 23 25  0  0  0  0  0  0  0  0999 V2000
   -7.7129    4.2099   27.0854 C   0  0  0  0  0  0  0  0  0  0  0  0
   -8.2112    3.0637   26.9225 C   0  0  0  0  0  0  0  0  0  0  0  0
   -7.5138    1.9223   27.4249 C   0  0  0  0  0  0  0  0  0  0  0  0
   -8.5309    5.4147   26.8151 C   0  0  0  0  0  0  0  0  0  0  0  0
   -9.6817    5.2393   26.1100 C   0  0  0  0  0  0  0  0  0  0  0  0
  -10.1032    3.9957   25.8534 C   0  0  0  0  0  0  0  0  0  0  0  0
   -9.4034    2.8430   26.2573 C   0  0  0  0  0  0  0  0  0  0  0  0
   -6.1405    1.9750   27.8101 C   0  0  0  0  0  0  0  0  0  0  0  0
   -5.4233    0.8239   28.2180 C   0  0  0  0  0  0  0  0  0  0  0  0
   -6.0457   -0.4084   28.1509 C   0  0  0  0  0  0  0  0  0  0  0  0
   -7.9936    0.5817   27.3565 C   0  0  0  0  0  0  0  0  0  0  0  0
   -7.3459   -0.4872   27.7837 C   0  0  0  0  0  0  0  0  0  0  0  0
   -7.7993    6.6818   27.1008 C   0  0  0  0  0  0  0  0  0  0  0  0
   -3.7799    1.0552   28.7243 Cl  0  0  0  0  0  0  0  0  0  0  0  0
  -11.3678    3.8140   25.0744 C   0  0  0  0  0  0  0  0  0  0  0  0
  -11.2375    3.3738   23.7997 C   0  0  0  0  0  0  0  0  0  0  0  0
  -10.5579    2.5742   23.3017 C   0  0  0  0  0  0  0  0  0  0  0  0
  -10.4224    2.1789   21.8941 C   0  0  0  0  0  0  0  0  0  0  0  0
  -11.0142    3.0251   20.9788 C   0  0  0  0  0  0  0  0  0  0  0  0
  -11.7777    4.0824   21.4406 C   0  0  0  0  0  0  0  0  0  0  0  0
  -11.9058    4.3680   22.7700 C   0  0  0  0  0  0  0  0  0  0  0  0
   -6.9317    6.8396   27.7709 O   0  0  0  0  0  0  0  0  0  0  0  0
   -8.6344    7.8402   26.8363 N   0  0  0  0  0  0  0  0  0  0  0  0
  2  3  1  0
  4 13  1  0
  9 14  1  0
  6 15  1  0
 15 16  1  0
 13 22  2  0
 13 23  1  0
  3  8  2  0
  8  9  1  0
  9 10  2  0
 10 12  1  0
 12 11  2  0
 11  3  1  0
  1  2  2  0
  2  7  1  0
  7  6  2  0
  6  5  1  0
  5  4  2  0
  4  1  1  0
 16 17  2  0
 17 18  1  0
 18 19  2  0
 19 20  1  0
 20 21  2  0
 21 16  1  0
M  END
$$$$
