No_9285-complexes_sdf/6BKW-FPZ/2024-09-17-14-21-01/
     RDKit          3D

 19 21  0  0  0  0  0  0  0  0999 V2000
   -7.7129    4.2099   27.0854 C   0  0  0  0  0  0  0  0  0  0  0  0
   -7.7814    5.1722   27.8972 C   0  0  0  0  0  0  0  0  0  0  0  0
   -8.8776    3.8408   26.3416 C   0  0  0  0  0  0  0  0  0  0  0  0
   -9.9844    4.6492   26.4743 C   0  0  0  0  0  0  0  0  0  0  0  0
   -8.7830    6.1594   27.8870 C   0  0  0  0  0  0  0  0  0  0  0  0
   -9.9269    5.8191   27.1183 C   0  0  0  0  0  0  0  0  0  0  0  0
   -9.0902    2.6263   25.6014 C   0  0  0  0  0  0  0  0  0  0  0  0
   -8.4440    1.4620   26.1144 C   0  0  0  0  0  0  0  0  0  0  0  0
   -8.3427    0.3026   25.4211 C   0  0  0  0  0  0  0  0  0  0  0  0
   -7.7209   -0.8002   25.9664 C   0  0  0  0  0  0  0  0  0  0  0  0
   -7.1423   -0.7352   27.2608 C   0  0  0  0  0  0  0  0  0  0  0  0
   -7.1400    0.5099   27.9108 C   0  0  0  0  0  0  0  0  0  0  0  0
   -7.7366    1.5757   27.4183 C   0  0  0  0  0  0  0  0  0  0  0  0
   -9.7881    2.5640   24.4448 C   0  0  0  0  0  0  0  0  0  0  0  0
  -10.5658    3.5802   23.9735 C   0  0  0  0  0  0  0  0  0  0  0  0
  -11.3680    3.6074   22.8955 C   0  0  0  0  0  0  0  0  0  0  0  0
  -10.8833    4.5296   25.2318 C   0  0  0  0  0  0  0  0  0  0  0  0
  -10.8121    3.2036   21.8038 C   0  0  0  0  0  0  0  0  0  0  0  0
  -11.4468    3.2454   20.4791 C   0  0  0  0  0  0  0  0  0  0  0  0
  7  8  1  0
 15 16  1  0
 16 18  2  3
 18 19  1  0
  4 17  2  0
 17 15  1  0
 15 14  2  0
 14  7  1  0
  7  3  2  0
  8  9  2  0
  9 10  1  0
 10 11  2  0
 11 12  1  0
 12 13  2  0
 13  8  1  0
  1  2  2  0
  2  5  1  0
  5  6  2  0
  6  4  1  0
  4  3  1  0
  3  1  1  0
M  END
$$$$
