No_9645-complexes_sdf/6BKW-FPZ/2024-09-17-14-21-01/
     RDKit          3D

 27 29  0  0  0  0  0  0  0  0999 V2000
   -7.7129    4.2099   27.0854 C   0  0  0  0  0  0  0  0  0  0  0  0
   -8.2112    3.0637   26.9225 C   0  0  0  0  0  0  0  0  0  0  0  0
   -7.5138    1.9223   27.4249 C   0  0  0  0  0  0  0  0  0  0  0  0
   -8.5309    5.4147   26.8151 C   0  0  0  0  0  0  0  0  0  0  0  0
   -9.6817    5.2393   26.1100 C   0  0  0  0  0  0  0  0  0  0  0  0
  -10.1032    3.9957   25.8534 C   0  0  0  0  0  0  0  0  0  0  0  0
   -9.4034    2.8430   26.2573 C   0  0  0  0  0  0  0  0  0  0  0  0
   -6.1481    1.9922   27.8210 C   0  0  0  0  0  0  0  0  0  0  0  0
   -5.4897    0.8126   28.2236 C   0  0  0  0  0  0  0  0  0  0  0  0
   -5.9096   -0.2260   27.9957 C   0  0  0  0  0  0  0  0  0  0  0  0
   -7.8737    0.5694   27.2262 C   0  0  0  0  0  0  0  0  0  0  0  0
   -7.2209   -0.4709   27.6236 C   0  0  0  0  0  0  0  0  0  0  0  0
   -7.9838    6.7609   27.0966 C   0  0  0  0  0  0  0  0  0  0  0  0
   -7.1350    6.7981   28.0342 F   0  0  0  0  0  0  0  0  0  0  0  0
   -8.3506    7.8015   26.5985 F   0  0  0  0  0  0  0  0  0  0  0  0
   -4.0009    1.1324   28.7076 C   0  0  0  0  0  0  0  0  0  0  0  0
   -3.4955    0.3559   29.5591 O   0  0  0  0  0  0  0  0  0  0  0  0
  -11.5651    3.8228   24.9521 Cl  0  0  0  0  0  0  0  0  0  0  0  0
   -3.4488    2.1384   28.4426 O   0  0  0  0  0  0  0  0  0  0  0  0
   -7.9045   -2.0218   27.5229 Cl  0  0  0  0  0  0  0  0  0  0  0  0
   -2.4399    1.9265   27.4152 C   0  0  2  0  0  0  0  0  0  0  0  0
   -2.8239    2.2173   25.9414 C   0  0  0  0  0  0  0  0  0  0  0  0
   -3.0607    1.0894   25.3317 O   0  0  0  0  0  0  0  0  0  0  0  0
   -2.7165   -0.0743   26.1158 C   0  0  1  0  0  0  0  0  0  0  0  0
   -2.1283    0.5095   27.4394 O   0  0  0  0  0  0  0  0  0  0  0  0
   -3.7610   -1.0250   26.4089 C   0  0  0  0  0  0  0  0  0  0  0  0
   -3.3244   -2.1027   26.2750 O   0  0  0  0  0  0  0  0  0  0  0  0
  2  3  1  0
  4 13  1  0
 13 14  1  0
 13 15  1  0
  9 16  1  0
 16 17  2  0
  6 18  1  0
 16 19  1  0
 12 20  1  0
 21 19  1  1
 21 22  1  0
 22 23  1  0
 23 24  1  0
 21 25  1  0
 24 25  1  0
 24 26  1  1
 26 27  2  0
  3  8  2  0
  8  9  1  0
  9 10  2  0
 10 12  1  0
 12 11  2  0
 11  3  1  0
  1  2  2  0
  2  7  1  0
  7  6  2  0
  6  5  1  0
  5  4  2  0
  4  1  1  0
M  END
$$$$
