No_9964-complexes_sdf/6BKW-FPZ/2024-09-17-14-21-01/
     RDKit          3D

 15 15  0  0  0  0  0  0  0  0999 V2000
   -7.7129    4.2099   27.0854 C   0  0  0  0  0  0  0  0  0  0  0  0
   -7.7814    5.1722   27.8972 C   0  0  0  0  0  0  0  0  0  0  0  0
   -7.3155    2.9700   27.6145 C   0  0  0  0  0  0  0  0  0  0  0  0
   -7.9010    1.7962   27.2023 C   0  0  0  0  0  0  0  0  0  0  0  0
   -8.9061    1.8927   26.5849 C   0  0  0  0  0  0  0  0  0  0  0  0
   -9.5143    3.0239   26.0487 C   0  0  0  0  0  0  0  0  0  0  0  0
   -8.9606    4.1034   26.4502 C   0  0  0  0  0  0  0  0  0  0  0  0
   -8.1987    6.3021   27.8933 N   0  0  0  0  0  0  0  0  0  0  0  0
   -9.2478    6.5866   26.9602 C   0  0  2  0  0  0  0  0  0  0  0  0
   -9.6623    5.4242   26.2531 C   0  0  1  0  0  0  0  0  0  0  0  0
  -10.7367    5.4611   24.9971 Cl  0  0  0  0  0  0  0  0  0  0  0  0
  -10.3818    5.1097   27.1501 F   0  0  0  0  0  0  0  0  0  0  0  0
   -8.6083    7.4562   25.9948 O   0  0  0  0  0  0  0  0  0  0  0  0
  -10.1402    7.2827   27.5930 O   0  0  0  0  0  0  0  0  0  0  0  0
   -9.0695    6.9412   25.8650 Cl  0  0  0  0  0  0  0  0  0  0  0  0
  1  2  1  0
  2  8  2  3
  8  9  1  0
  7 10  1  0
 10 11  1  0
 10 12  1  1
  9 13  1  0
  9 14  1  1
 13 15  1  0
  1  3  2  0
  3  4  1  0
  4  5  2  0
  5  6  1  0
  6  7  2  0
  7  1  1  0
M  END
$$$$
