No_963-complexes_sdf/6BKW-FPZ/2024-09-17-14-21-01/
     RDKit          3D

 37 40  0  0  0  0  0  0  0  0999 V2000
   -7.2496    3.8871   27.4508 C   0  0  0  0  0  0  0  0  0  0  0  0
   -7.9379    4.9063   27.8518 C   0  0  0  0  0  0  0  0  0  0  0  0
   -9.3376    4.8647   27.7795 C   0  0  0  0  0  0  0  0  0  0  0  0
   -7.8544    2.6294   27.0414 C   0  0  0  0  0  0  0  0  0  0  0  0
   -9.2665    2.6175   27.0340 C   0  0  0  0  0  0  0  0  0  0  0  0
   -9.9836    3.7042   27.4150 C   0  0  0  0  0  0  0  0  0  0  0  0
   -7.0765    1.4847   26.7707 C   0  0  0  0  0  0  0  0  0  0  0  0
   -6.0002    1.1482   27.6822 C   0  0  0  0  0  0  0  0  0  0  0  0
   -5.2492    0.0038   27.5593 C   0  0  0  0  0  0  0  0  0  0  0  0
   -5.6711   -0.9276   26.6649 C   0  0  0  0  0  0  0  0  0  0  0  0
   -7.4498    0.4080   26.0375 C   0  0  0  0  0  0  0  0  0  0  0  0
   -6.8083   -0.7279   25.9264 C   0  0  0  0  0  0  0  0  0  0  0  0
  -11.4611    3.6307   27.4245 C   0  0  0  0  0  0  0  0  0  0  0  0
  -11.9960    2.6792   28.1760 C   0  0  0  0  0  0  0  0  0  0  0  0
  -13.4253    2.5163   28.3845 C   0  0  0  0  0  0  0  0  0  0  0  0
  -14.2054    3.4957   27.7952 C   0  0  0  0  0  0  0  0  0  0  0  0
  -13.6537    4.5191   27.0618 C   0  0  0  0  0  0  0  0  0  0  0  0
  -12.2719    4.6724   26.9174 C   0  0  0  0  0  0  0  0  0  0  0  0
   -7.2974    6.0178   28.2042 F   0  0  0  0  0  0  0  0  0  0  0  0
   -4.0388   -0.1574   28.4227 C   0  0  0  0  0  0  0  0  0  0  0  0
   -4.0849    0.3955   29.6666 C   0  0  0  0  0  0  0  0  0  0  0  0
   -2.9444   -0.8793   27.9772 C   0  0  1  0  0  0  0  0  0  0  0  0
   -3.8265   -0.4230   30.8361 C   0  0  0  0  0  0  0  0  0  0  0  0
   -4.4024   -1.3367   31.1579 C   0  0  0  0  0  0  0  0  0  0  0  0
   -5.1226   -1.5081   31.8432 C   0  0  0  0  0  0  0  0  0  0  0  0
   -5.6219   -0.3747   32.7732 C   0  0  0  0  0  0  0  0  0  0  0  0
   -2.7936   -2.1437   28.2713 C   0  0  0  0  0  0  0  0  0  0  0  0
   -2.6404   -0.5453   26.5009 C   0  0  0  0  0  0  0  0  0  0  0  0
   -6.1277   -2.6697   32.0305 C   0  0  0  0  0  0  0  0  0  0  0  0
   -7.1482   -2.6165   32.7200 C   0  0  0  0  0  0  0  0  0  0  0  0
   -6.6732   -0.5854   33.7144 C   0  0  0  0  0  0  0  0  0  0  0  0
   -7.4081   -1.6710   33.6966 C   0  0  0  0  0  0  0  0  0  0  0  0
   -2.4087   -2.5268   29.2502 C   0  0  0  0  0  0  0  0  0  0  0  0
   -3.9743   -2.6609   30.4162 C   0  0  0  0  0  0  0  0  0  0  0  0
   -1.5078   -3.5459   29.7653 C   0  0  0  0  0  0  0  0  0  0  0  0
   -3.4711   -3.8250   31.2542 C   0  0  0  0  0  0  0  0  0  0  0  0
   -4.9685   -3.1696   29.3846 C   0  0  0  0  0  0  0  0  0  0  0  0
  4  7  1  0
  6 13  1  0
  2 19  1  0
  9 20  1  0
 20 21  1  0
 20 22  1  0
 21 23  1  0
 23 24  1  0
 22 27  1  0
 22 28  1  6
 27 33  2  3
 24 34  1  0
 33 35  1  0
 34 36  1  0
 34 37  1  0
 24 25  1  0
  7  8  2  0
  8  9  1  0
  9 10  2  0
 10 12  1  0
 12 11  2  0
 11  7  1  0
 13 14  2  0
 14 15  1  0
 15 16  2  0
 16 17  1  0
 17 18  2  0
 18 13  1  0
  1  2  2  0
  2  3  1  0
  3  6  2  0
  6  5  1  0
  5  4  2  0
  4  1  1  0
 25 26  2  0
 26 31  1  0
 31 32  2  0
 32 30  1  0
 30 29  2  0
 29 25  1  0
M  END
$$$$
