No_9066-complexes_sdf/6BKW-FPZ/2024-09-17-14-21-01/
     RDKit          3D

 20 22  0  0  0  0  0  0  0  0999 V2000
   -7.9040    3.9820   27.1177 C   0  0  0  0  0  0  0  0  0  0  0  0
   -7.8663    4.8694   27.9238 C   0  0  0  0  0  0  0  0  0  0  0  0
   -9.0501    3.8017   26.2617 C   0  0  0  0  0  0  0  0  0  0  0  0
  -10.0189    4.7608   26.3707 C   0  0  0  0  0  0  0  0  0  0  0  0
   -8.6973    5.9722   27.8968 C   0  0  0  0  0  0  0  0  0  0  0  0
   -9.8216    5.8946   27.1241 C   0  0  0  0  0  0  0  0  0  0  0  0
   -9.1269    2.7578   25.4915 F   0  0  0  0  0  0  0  0  0  0  0  0
   -6.9074    2.9711   27.3155 O   0  0  0  0  0  0  0  0  0  0  0  0
   -7.2512    1.6275   27.1967 C   0  0  0  0  0  0  0  0  0  0  0  0
   -6.1744    0.8379   27.4055 C   0  0  0  0  0  0  0  0  0  0  0  0
   -6.3319   -0.5850   27.3559 C   0  0  0  0  0  0  0  0  0  0  0  0
   -7.6260   -1.0660   27.0788 C   0  0  0  0  0  0  0  0  0  0  0  0
   -8.6875   -0.2114   26.8692 C   0  0  0  0  0  0  0  0  0  0  0  0
   -8.5273    1.0278   26.9589 C   0  0  0  0  0  0  0  0  0  0  0  0
  -10.0076   -0.8279   26.6160 C   0  0  0  0  0  0  0  0  0  0  0  0
  -10.9706   -0.7758   27.1978 C   0  0  0  0  0  0  0  0  0  0  0  0
  -12.2558   -1.2944   26.9240 C   0  0  0  0  0  0  0  0  0  0  0  0
  -10.1111   -1.5183   25.3140 C   0  0  0  0  0  0  0  0  0  0  0  0
  -11.3005   -2.0471   24.9349 C   0  0  0  0  0  0  0  0  0  0  0  0
  -12.3875   -1.9273   25.7612 C   0  0  0  0  0  0  0  0  0  0  0  0
  3  7  1  0
  1  8  1  0
  8  9  1  0
 13 15  1  0
  9 10  2  0
 10 11  1  0
 11 12  2  0
 12 13  1  0
 13 14  2  0
 14  9  1  0
 15 16  2  0
 16 17  1  0
 17 20  2  0
 20 19  1  0
 19 18  2  0
 18 15  1  0
  1  2  2  0
  2  5  1  0
  5  6  2  0
  6  4  1  0
  4  3  2  0
  3  1  1  0
M  END
$$$$
