No_9425-complexes_sdf/6BKW-FPZ/2024-09-17-14-21-01/
     RDKit          3D

 40 46  0  0  0  0  0  0  0  0999 V2000
   -7.9040    3.9820   27.1177 C   0  0  0  0  0  0  0  0  0  0  0  0
   -8.2057    2.8231   26.8733 C   0  0  0  0  0  0  0  0  0  0  0  0
   -8.7695    5.0740   26.7916 C   0  0  0  0  0  0  0  0  0  0  0  0
   -8.4337    6.4678   27.0913 C   0  0  0  0  0  0  0  0  0  0  0  0
   -9.3742    2.4311   26.2346 C   0  0  0  0  0  0  0  0  0  0  0  0
  -10.2395    3.4267   25.8887 C   0  0  0  0  0  0  0  0  0  0  0  0
   -9.9567    4.7548   26.1374 C   0  0  0  0  0  0  0  0  0  0  0  0
   -8.7531    7.4243   26.4062 N   0  0  0  0  0  0  0  0  0  0  0  0
   -7.2226    6.5835   27.8553 N   0  0  0  0  0  0  0  0  0  0  0  0
   -7.2683    1.6666   27.2840 C   0  0  0  0  0  0  0  0  0  0  0  0
   -7.5596    0.3343   27.1304 C   0  0  0  0  0  0  0  0  0  0  0  0
   -6.6379   -0.5816   27.5082 C   0  0  0  0  0  0  0  0  0  0  0  0
   -5.3997   -0.1699   28.0715 C   0  0  0  0  0  0  0  0  0  0  0  0
   -5.1211    1.1887   28.2161 C   0  0  0  0  0  0  0  0  0  0  0  0
   -5.9535    2.0794   27.8212 C   0  0  0  0  0  0  0  0  0  0  0  0
   -4.5791   -1.3398   28.5443 C   0  0  0  0  0  0  0  0  0  0  0  0
   -4.5400   -2.3621   28.1812 C   0  0  0  0  0  0  0  0  0  0  0  0
   -5.7038   -2.7784   27.3188 C   0  0  0  0  0  0  0  0  0  0  0  0
   -6.7526   -1.9284   27.0751 C   0  0  0  0  0  0  0  0  0  0  0  0
   -3.2988   -0.7265   29.3561 C   0  0  0  0  0  0  0  0  0  0  0  0
   -2.9270   -1.6241   30.1192 F   0  0  0  0  0  0  0  0  0  0  0  0
   -3.6757    0.3545   30.1145 F   0  0  0  0  0  0  0  0  0  0  0  0
   -2.3306   -0.3121   28.5501 F   0  0  0  0  0  0  0  0  0  0  0  0
  -11.4851    3.1475   25.1283 C   0  0  1  0  0  0  0  0  0  0  0  0
  -11.3736    2.6211   23.9709 C   0  0  0  0  0  0  0  0  0  0  0  0
  -10.7709    1.7705   23.5530 C   0  0  0  0  0  0  0  0  0  0  0  0
  -10.7038    1.1700   22.1791 C   0  0  0  0  0  0  0  0  0  0  0  0
  -11.4422    1.8469   21.2426 C   0  0  0  0  0  0  0  0  0  0  0  0
  -12.1662    2.9614   21.6095 C   0  0  0  0  0  0  0  0  0  0  0  0
  -12.1818    3.4211   22.8988 C   0  0  0  0  0  0  0  0  0  0  0  0
  -12.7225    3.2405   25.8849 C   0  0  0  0  0  0  0  0  0  0  0  0
  -12.9269    3.1403   27.1819 C   0  0  0  0  0  0  0  0  0  0  0  0
  -14.1379    3.4802   27.7892 C   0  0  0  0  0  0  0  0  0  0  0  0
  -15.2392    3.6748   26.9397 C   0  0  0  0  0  0  0  0  0  0  0  0
  -13.9285    3.6184   25.1596 C   0  0  0  0  0  0  0  0  0  0  0  0
  -15.0921    3.8184   25.6879 C   0  0  0  0  0  0  0  0  0  0  0  0
  -16.2216    4.1513   24.7718 C   0  0  0  0  0  0  0  0  0  0  0  0
  -16.0091    4.1326   23.4724 C   0  0  0  0  0  0  0  0  0  0  0  0
  -14.6975    3.9810   22.9441 C   0  0  0  0  0  0  0  0  0  0  0  0
  -13.6794    3.7316   23.7012 C   0  0  0  0  0  0  0  0  0  0  0  0
  3  4  1  0
  4  8  2  0
  4  9  1  0
  2 10  1  0
 16 20  1  0
 20 21  1  0
 20 22  1  0
 20 23  1  0
 24  6  1  1
 24 25  1  0
 24 31  1  0
 30 40  1  0
 25 26  2  0
 26 27  1  0
 27 28  2  0
 28 29  1  0
 29 30  2  0
 30 25  1  0
  1  2  2  0
  2  5  1  0
  5  6  2  0
  6  7  1  0
  7  3  2  0
  3  1  1  0
 31 32  1  0
 32 33  2  0
 33 34  1  0
 34 36  2  0
 35 31  2  0
 35 36  1  0
 36 37  1  0
 37 38  2  0
 38 39  1  0
 39 40  2  0
 40 35  1  0
 10 11  2  0
 11 12  1  0
 13 14  1  0
 14 15  2  0
 15 10  1  0
 12 13  2  0
 13 16  1  0
 16 17  2  0
 17 18  1  0
 18 19  2  0
 19 12  1  0
M  END
$$$$
