No_980-complexes_sdf/6BKW-FPZ/2024-09-17-14-21-01/
     RDKit          3D

 40 45  0  0  0  0  0  0  0  0999 V2000
   -7.2496    3.8871   27.4508 C   0  0  0  0  0  0  0  0  0  0  0  0
   -7.6161    2.7143   27.1523 C   0  0  0  0  0  0  0  0  0  0  0  0
   -8.8302    2.4659   26.5056 C   0  0  0  0  0  0  0  0  0  0  0  0
   -8.1584    5.0090   27.3234 C   0  0  0  0  0  0  0  0  0  0  0  0
   -9.3788    4.7965   26.7695 C   0  0  0  0  0  0  0  0  0  0  0  0
   -9.7028    3.5649   26.3276 C   0  0  0  0  0  0  0  0  0  0  0  0
   -6.9181    1.4461   27.3185 C   0  0  0  0  0  0  0  0  0  0  0  0
   -7.3229    0.1920   27.1907 C   0  0  0  0  0  0  0  0  0  0  0  0
   -8.6622    0.1161   26.6357 C   0  0  0  0  0  0  0  0  0  0  0  0
   -9.4033    1.2061   26.2798 C   0  0  0  0  0  0  0  0  0  0  0  0
   -7.6718    6.3468   27.7994 C   0  0  0  0  0  0  0  0  0  0  0  0
  -10.8729    3.4870   25.4503 C   0  0  0  0  0  0  0  0  0  0  0  0
  -11.1252    4.3070   24.4544 C   0  0  0  0  0  0  0  0  0  0  0  0
  -12.1946    4.2266   23.5739 C   0  0  0  0  0  0  0  0  0  0  0  0
  -13.1732    3.3205   23.8226 C   0  0  0  0  0  0  0  0  0  0  0  0
  -12.9499    2.4106   24.8550 C   0  0  0  0  0  0  0  0  0  0  0  0
  -11.8712    2.4839   25.6951 C   0  0  0  0  0  0  0  0  0  0  0  0
   -9.1444   -1.2447   26.3022 C   0  0  0  0  0  0  0  0  0  0  0  0
  -10.2957   -1.3418   25.9729 C   0  0  0  0  0  0  0  0  0  0  0  0
  -10.8792   -2.6116   25.7083 C   0  0  0  0  0  0  0  0  0  0  0  0
  -10.0878   -3.6867   25.8000 C   0  0  0  0  0  0  0  0  0  0  0  0
   -8.8301   -3.6121   26.2358 C   0  0  0  0  0  0  0  0  0  0  0  0
   -8.2832   -2.3606   26.5682 C   0  0  0  0  0  0  0  0  0  0  0  0
   -7.6864    7.3817   27.1456 N   0  0  0  0  0  0  0  0  0  0  0  0
   -7.1533    6.2499   28.9077 O   0  0  0  0  0  0  0  0  0  0  0  0
  -12.1330   -2.7459   25.2555 F   0  0  0  0  0  0  0  0  0  0  0  0
   -5.4489    1.6355   27.9716 C   0  0  0  0  0  0  0  0  0  0  0  0
   -4.5337    0.6519   27.7069 C   0  0  0  0  0  0  0  0  0  0  0  0
   -4.2963   -0.1859   28.6946 C   0  0  0  0  0  0  0  0  0  0  0  0
   -3.2689   -1.2170   28.5558 C   0  0  0  0  0  0  0  0  0  0  0  0
   -2.5552   -1.2083   27.3677 C   0  0  0  0  0  0  0  0  0  0  0  0
   -3.7227    0.5351   26.6097 C   0  0  0  0  0  0  0  0  0  0  0  0
   -2.7390   -0.2862   26.3893 C   0  0  0  0  0  0  0  0  0  0  0  0
   -5.0398   -0.2612   30.0169 C   0  0  0  0  0  0  0  0  0  0  0  0
   -5.2572   -1.5084   30.5885 C   0  0  0  0  0  0  0  0  0  0  0  0
   -5.1348   -2.5711   29.9754 C   0  0  0  0  0  0  0  0  0  0  0  0
   -5.5918   -3.7634   30.5990 C   0  0  0  0  0  0  0  0  0  0  0  0
   -6.0593   -3.6968   31.9043 C   0  0  0  0  0  0  0  0  0  0  0  0
   -6.2424   -2.5030   32.5780 C   0  0  0  0  0  0  0  0  0  0  0  0
   -5.8862   -1.3510   31.9606 C   0  0  0  0  0  0  0  0  0  0  0  0
  4 11  1  0
  6 12  1  0
  9 18  1  0
 11 24  1  0
 11 25  2  0
 20 26  1  0
  7 27  1  0
 27 28  1  0
 29 34  1  0
 34 35  1  0
 12 13  2  0
 13 14  1  0
 14 15  2  0
 15 16  1  0
 16 17  2  0
 17 12  1  0
 18 19  2  0
 19 20  1  0
 20 21  2  0
 21 22  1  0
 22 23  2  0
 23 18  1  0
 28 29  1  0
 29 30  2  0
 30 31  1  0
 31 33  2  0
 33 32  1  0
 32 28  2  0
  1  2  2  0
  3  6  2  0
  6  5  1  0
  5  4  2  0
  4  1  1  0
  2  3  1  0
  3 10  1  0
 10  9  2  0
  9  8  1  0
  8  7  2  0
  7  2  1  0
 35 36  2  0
 36 37  1  0
 37 38  2  0
 38 39  1  0
 39 40  2  0
 40 35  1  0
M  END
$$$$
