No_9143-complexes_sdf/6BKW-FPZ/2024-09-17-14-21-01/
     RDKit          3D

 18 20  0  0  0  0  0  0  0  0999 V2000
   -7.9040    3.9820   27.1177 C   0  0  0  0  0  0  0  0  0  0  0  0
   -7.8663    4.8694   27.9238 C   0  0  0  0  0  0  0  0  0  0  0  0
   -9.0501    3.8017   26.2617 C   0  0  0  0  0  0  0  0  0  0  0  0
   -9.1826    2.7026   25.3575 C   0  0  0  0  0  0  0  0  0  0  0  0
   -8.6940    6.0131   27.8614 C   0  0  0  0  0  0  0  0  0  0  0  0
   -9.7382    4.9916   26.1006 C   0  0  0  0  0  0  0  0  0  0  0  0
   -9.6356    6.0254   26.9506 C   0  0  0  0  0  0  0  0  0  0  0  0
   -8.7538    1.4669   25.8136 C   0  0  0  0  0  0  0  0  0  0  0  0
   -9.9106    2.8058   24.1658 C   0  0  0  0  0  0  0  0  0  0  0  0
   -8.8241    0.3603   24.9940 C   0  0  0  0  0  0  0  0  0  0  0  0
  -10.0084    1.7032   23.3617 C   0  0  0  0  0  0  0  0  0  0  0  0
   -9.4763    0.4895   23.7556 C   0  0  0  0  0  0  0  0  0  0  0  0
  -10.6493    1.8377   22.0360 C   0  0  0  0  0  0  0  0  0  0  0  0
  -10.6098    3.0657   21.4875 C   0  0  0  0  0  0  0  0  0  0  0  0
  -11.2227    3.2710   20.2483 C   0  0  0  0  0  0  0  0  0  0  0  0
  -10.0342    0.9744   21.0215 C   0  0  0  0  0  0  0  0  0  0  0  0
  -10.8993    0.8254   19.8454 C   0  0  0  0  0  0  0  0  0  0  0  0
  -11.1021    2.1629   19.3045 N   0  0  0  0  0  0  0  0  0  0  0  0
  3  4  1  0
 11 13  1  0
 13 14  2  0
 14 15  1  0
 15 18  2  0
 18 17  1  0
 17 16  2  0
 16 13  1  0
  4  8  2  0
  8 10  1  0
 10 12  2  0
 12 11  1  0
 11  9  2  0
  9  4  1  0
  1  2  2  0
  2  5  1  0
  5  7  2  0
  7  6  1  0
  6  3  2  0
  3  1  1  0
M  END
$$$$
