No_9230-complexes_sdf/6BKW-FPZ/2024-09-17-14-21-01/
     RDKit          3D

 40 44  0  0  0  0  0  0  0  0999 V2000
   -7.2496    3.8871   27.4508 C   0  0  0  0  0  0  0  0  0  0  0  0
   -8.5096    4.0291   27.2770 C   0  0  0  0  0  0  0  0  0  0  0  0
   -9.2669    5.1645   27.5845 C   0  0  0  0  0  0  0  0  0  0  0  0
   -8.6549    6.1494   27.2495 C   0  0  0  0  0  0  0  0  0  0  0  0
   -9.2645    7.4447   27.0522 C   0  0  0  0  0  0  0  0  0  0  0  0
   -6.5304    5.1018   27.6626 C   0  0  0  0  0  0  0  0  0  0  0  0
   -7.1928    6.3647   27.4822 C   0  0  0  0  0  0  0  0  0  0  0  0
   -9.3046    2.6676   27.2682 C   0  0  0  0  0  0  0  0  0  0  0  0
   -8.6234    1.4931   26.8519 C   0  0  0  0  0  0  0  0  0  0  0  0
   -7.5972    1.4689   26.3427 C   0  0  0  0  0  0  0  0  0  0  0  0
   -9.5223    0.2845   27.1289 C   0  0  0  0  0  0  0  0  0  0  0  0
  -10.7763    0.3431   27.3435 C   0  0  0  0  0  0  0  0  0  0  0  0
  -11.3541    1.6482   27.8058 C   0  0  0  0  0  0  0  0  0  0  0  0
  -10.6035    2.7313   27.8429 C   0  0  0  0  0  0  0  0  0  0  0  0
   -7.0066    0.1106   26.5466 C   0  0  0  0  0  0  0  0  0  0  0  0
   -5.5858   -0.0994   26.3221 C   0  0  0  0  0  0  0  0  0  0  0  0
   -7.8328   -0.8328   27.1569 C   0  0  0  0  0  0  0  0  0  0  0  0
   -8.9661   -1.0031   27.4300 C   0  0  0  0  0  0  0  0  0  0  0  0
   -4.9754   -0.8219   27.0486 O   0  0  0  0  0  0  0  0  0  0  0  0
   -3.6175   -0.8156   26.9219 C   0  0  0  0  0  0  0  0  0  0  0  0
   -2.9096   -1.5541   26.8406 C   0  0  0  0  0  0  0  0  0  0  0  0
   -3.0609    0.7306   26.9711 C   0  0  0  0  0  0  0  0  0  0  0  0
   -1.7970    0.8427   26.8341 O   0  0  0  0  0  0  0  0  0  0  0  0
   -3.8509    1.7261   26.9931 O   0  0  0  0  0  0  0  0  0  0  0  0
  -12.7829    1.6591   28.3014 C   0  0  0  0  0  0  0  0  0  0  0  0
  -13.3399    2.3880   27.7373 F   0  0  0  0  0  0  0  0  0  0  0  0
  -12.7437    1.8755   29.6882 F   0  0  0  0  0  0  0  0  0  0  0  0
  -13.3114    0.3850   28.2795 F   0  0  0  0  0  0  0  0  0  0  0  0
   -3.4946   -2.8695   26.7905 C   0  0  0  0  0  0  0  0  0  0  0  0
   -2.6735   -4.0244   26.6094 C   0  0  0  0  0  0  0  0  0  0  0  0
   -1.2575   -3.8289   26.5342 C   0  0  0  0  0  0  0  0  0  0  0  0
   -0.6598   -2.5901   26.4849 C   0  0  0  0  0  0  0  0  0  0  0  0
   -1.4276   -1.5187   26.6432 C   0  0  0  0  0  0  0  0  0  0  0  0
   -9.7193   -2.0402   27.9144 C   0  0  0  0  0  0  0  0  0  0  0  0
  -10.2622   -2.9304   27.2658 C   0  0  0  0  0  0  0  0  0  0  0  0
  -11.0607   -4.0115   27.7804 C   0  0  0  0  0  0  0  0  0  0  0  0
  -11.4511   -3.8596   28.8105 C   0  0  0  0  0  0  0  0  0  0  0  0
  -11.0843   -2.9091   29.8384 C   0  0  0  0  0  0  0  0  0  0  0  0
  -10.2184   -1.9018   29.3598 C   0  0  0  0  0  0  0  0  0  0  0  0
   -9.8663   -3.0962   25.8049 C   0  0  0  0  0  0  0  0  0  0  0  0
  4  5  1  0
  2  8  1  0
 15 16  1  0
 16 19  1  0
 19 20  1  0
 20 22  1  0
 22 23  2  0
 22 24  1  0
 13 25  1  0
 25 26  1  0
 25 27  1  0
 25 28  1  0
 18 34  1  0
 35 40  1  0
 20 21  1  0
 21 29  2  0
 29 30  1  0
 30 31  2  0
 31 32  1  0
 32 33  2  0
 33 21  1  0
  8  9  1  0
 11 12  1  0
 12 13  2  0
 13 14  1  0
 14  8  2  0
 34 35  2  0
 35 36  1  0
 36 37  2  0
 37 38  1  0
 38 39  2  0
 39 34  1  0
  1  2  2  0
  2  3  1  0
  3  4  2  0
  4  7  1  0
  7  6  2  0
  6  1  1  0
  9 10  2  0
 10 15  1  0
 15 17  2  0
 17 18  1  0
 18 11  2  0
 11  9  1  0
M  END
$$$$
