No_9376-complexes_sdf/6BKW-FPZ/2024-09-17-14-21-01/
     RDKit          3D

 26 28  0  0  0  0  0  0  0  0999 V2000
   -7.9040    3.9820   27.1177 C   0  0  0  0  0  0  0  0  0  0  0  0
   -8.2057    2.8231   26.8733 C   0  0  0  0  0  0  0  0  0  0  0  0
   -8.7695    5.0740   26.7916 C   0  0  0  0  0  0  0  0  0  0  0  0
   -8.4337    6.4678   27.0913 C   0  0  0  0  0  0  0  0  0  0  0  0
   -9.3742    2.4311   26.2346 C   0  0  0  0  0  0  0  0  0  0  0  0
  -10.2395    3.4267   25.8887 C   0  0  0  0  0  0  0  0  0  0  0  0
   -9.9567    4.7548   26.1374 C   0  0  0  0  0  0  0  0  0  0  0  0
   -7.8894    6.9001   28.1379 N   0  0  0  0  0  0  0  0  0  0  0  0
   -8.8418    7.3448   26.2160 O   0  0  0  0  0  0  0  0  0  0  0  0
   -7.2481    1.6807   27.2880 C   0  0  0  0  0  0  0  0  0  0  0  0
   -7.6442    0.6002   27.4956 F   0  0  0  0  0  0  0  0  0  0  0  0
   -6.0003    1.9788   27.4223 F   0  0  0  0  0  0  0  0  0  0  0  0
  -11.4524    3.1215   25.1167 C   0  0  0  0  0  0  0  0  0  0  0  0
  -12.5866    2.8191   25.7477 C   0  0  0  0  0  0  0  0  0  0  0  0
  -12.5746    2.7935   27.2116 C   0  0  0  0  0  0  0  0  0  0  0  0
  -13.7900    2.4835   27.9459 C   0  0  0  0  0  0  0  0  0  0  0  0
  -13.6190    2.4684   29.3396 C   0  0  0  0  0  0  0  0  0  0  0  0
  -12.3874    2.8763   29.9524 C   0  0  0  0  0  0  0  0  0  0  0  0
  -11.3464    3.2718   29.1448 C   0  0  0  0  0  0  0  0  0  0  0  0
  -11.4379    3.2761   27.8293 C   0  0  0  0  0  0  0  0  0  0  0  0
  -11.3376    3.1312   23.6857 C   0  0  0  0  0  0  0  0  0  0  0  0
  -10.2810    3.0516   23.0231 C   0  0  0  0  0  0  0  0  0  0  0  0
  -10.1087    3.0949   21.6436 C   0  0  0  0  0  0  0  0  0  0  0  0
  -11.2288    3.2739   20.8640 C   0  0  0  0  0  0  0  0  0  0  0  0
  -12.4873    3.3372   22.8813 C   0  0  0  0  0  0  0  0  0  0  0  0
  -12.4294    3.4317   21.4867 C   0  0  0  0  0  0  0  0  0  0  0  0
  3  4  1  0
  4  8  1  0
  4  9  2  0
  2 10  1  0
 10 11  1  0
 10 12  1  0
  6 13  1  0
 13 14  2  3
 14 15  1  0
 13 21  1  0
 15 16  2  0
 16 17  1  0
 17 18  2  0
 18 19  1  0
 19 20  2  0
 20 15  1  0
 21 22  2  0
 22 23  1  0
 23 24  2  0
 24 26  1  0
 26 25  2  0
 25 21  1  0
  1  2  2  0
  2  5  1  0
  5  6  2  0
  6  7  1  0
  7  3  2  0
  3  1  1  0
M  END
$$$$
