No_9953-complexes_sdf/6BKW-FPZ/2024-09-17-14-21-01/
     RDKit          3D

 33 37  0  0  0  0  0  0  0  0999 V2000
   -7.7129    4.2099   27.0854 C   0  0  0  0  0  0  0  0  0  0  0  0
   -7.7814    5.1722   27.8972 C   0  0  0  0  0  0  0  0  0  0  0  0
   -8.8255    3.2789   27.1191 C   0  0  0  0  0  0  0  0  0  0  0  0
   -9.9209    3.4734   27.9101 C   0  0  0  0  0  0  0  0  0  0  0  0
   -9.9736    4.7085   28.6831 C   0  0  0  0  0  0  0  0  0  0  0  0
   -8.8840    5.5441   28.6612 C   0  0  0  0  0  0  0  0  0  0  0  0
   -8.7102    2.0171   26.3293 C   0  0  0  0  0  0  0  0  0  0  0  0
   -9.2831    1.9661   25.0865 C   0  0  0  0  0  0  0  0  0  0  0  0
   -9.1881    0.8289   24.2810 C   0  0  0  0  0  0  0  0  0  0  0  0
   -7.9887    0.9460   26.7963 C   0  0  0  0  0  0  0  0  0  0  0  0
   -7.8378   -0.2196   26.0476 C   0  0  0  0  0  0  0  0  0  0  0  0
   -8.4316   -0.2459   24.7792 C   0  0  0  0  0  0  0  0  0  0  0  0
  -11.0740    2.6127   27.9550 C   0  0  0  0  0  0  0  0  0  0  0  0
  -12.1911    2.9834   28.6763 C   0  0  0  0  0  0  0  0  0  0  0  0
  -13.2624    2.0692   29.0026 C   0  0  0  0  0  0  0  0  0  0  0  0
  -13.1322    0.8056   28.3968 C   0  0  0  0  0  0  0  0  0  0  0  0
  -12.0307    0.4174   27.6329 C   0  0  0  0  0  0  0  0  0  0  0  0
  -10.9737    1.2844   27.5457 C   0  0  0  0  0  0  0  0  0  0  0  0
  -10.0188    3.2148   24.6357 C   0  0  0  0  0  0  0  0  0  0  0  0
   -9.9380    4.4324   24.9838 C   0  0  0  0  0  0  0  0  0  0  0  0
  -10.5504    5.4552   24.1153 C   0  0  0  0  0  0  0  0  0  0  0  0
  -11.0936    5.0657   22.8902 C   0  0  0  0  0  0  0  0  0  0  0  0
  -10.5693    3.1354   23.2371 C   0  0  0  0  0  0  0  0  0  0  0  0
  -11.0157    3.8783   22.4751 C   0  0  0  0  0  0  0  0  0  0  0  0
  -11.5864    3.6029   21.1512 C   0  0  0  0  0  0  0  0  0  0  0  0
  -12.9470    3.2057   21.1579 C   0  0  0  0  0  0  0  0  0  0  0  0
  -13.5789    2.8693   22.1596 C   0  0  0  0  0  0  0  0  0  0  0  0
  -14.9851    2.4645   22.1066 C   0  0  0  0  0  0  0  0  0  0  0  0
  -15.5187    2.3953   20.8555 C   0  0  0  0  0  0  0  0  0  0  0  0
  -14.8555    2.7055   19.7144 C   0  0  0  0  0  0  0  0  0  0  0  0
  -13.5035    3.1370   19.7615 C   0  0  0  0  0  0  0  0  0  0  0  0
  -11.1174    4.5940   20.2458 C   0  0  0  0  0  0  0  0  0  0  0  0
  -10.8080    2.1866   20.7244 C   0  0  0  0  0  0  0  0  0  0  0  0
  3  7  1  0
  4 13  1  0
  8 19  1  0
 24 25  1  0
 25 26  1  0
 25 32  1  0
 25 33  1  0
  7  8  1  0
  8  9  2  0
  9 12  1  0
 12 11  2  0
 11 10  1  0
 10  7  2  0
 19 20  2  0
 20 21  1  0
 21 22  2  0
 22 24  1  0
 24 23  2  0
 23 19  1  0
  1  2  2  0
  2  6  1  0
  6  5  2  0
  5  4  1  0
  4  3  2  0
  3  1  1  0
 26 27  2  0
 27 28  1  0
 28 29  2  0
 29 30  1  0
 30 31  2  0
 31 26  1  0
 13 14  2  0
 14 15  1  0
 15 16  2  0
 16 17  1  0
 17 18  2  0
 18 13  1  0
M  END
$$$$
