No_9710-complexes_sdf/6BKW-FPZ/2024-09-17-14-21-01/
     RDKit          3D

 27 29  0  0  0  0  0  0  0  0999 V2000
   -7.7129    4.2099   27.0854 C   0  0  0  0  0  0  0  0  0  0  0  0
   -8.9133    4.4736   27.0998 C   0  0  0  0  0  0  0  0  0  0  0  0
   -9.4643    5.5426   27.7628 C   0  0  0  0  0  0  0  0  0  0  0  0
   -7.2009    2.9448   26.6134 C   0  0  0  0  0  0  0  0  0  0  0  0
   -8.1365    1.9533   26.2981 C   0  0  0  0  0  0  0  0  0  0  0  0
   -9.4514    2.2934   26.2667 C   0  0  0  0  0  0  0  0  0  0  0  0
   -9.8600    3.4834   26.7068 C   0  0  0  0  0  0  0  0  0  0  0  0
   -7.6136    0.6633   25.8927 C   0  0  0  0  0  0  0  0  0  0  0  0
   -6.6100    0.2097   26.4367 F   0  0  0  0  0  0  0  0  0  0  0  0
   -7.3902    0.6689   24.5529 F   0  0  0  0  0  0  0  0  0  0  0  0
   -8.6319   -0.3404   26.0659 F   0  0  0  0  0  0  0  0  0  0  0  0
   -6.7534    5.0544   27.6941 N   0  0  0  0  0  0  0  0  0  0  0  0
   -9.2672    6.8028   27.0855 C   0  0  0  0  0  0  0  0  0  0  0  0
   -7.8254    7.3002   27.3083 C   0  0  0  0  0  0  0  0  0  0  0  0
   -6.8355    6.2830   27.3756 C   0  0  0  0  0  0  0  0  0  0  0  0
  -11.3343    3.7152   26.5565 C   0  0  2  0  0  0  0  0  0  0  0  0
  -12.1228    3.3976   27.7092 C   0  0  0  0  0  0  0  0  0  0  0  0
  -12.8615    2.4558   27.7286 C   0  0  0  0  0  0  0  0  0  0  0  0
  -13.6508    2.0813   28.9846 C   0  0  0  0  0  0  0  0  0  0  0  0
  -13.6256    2.9942   30.0617 C   0  0  0  0  0  0  0  0  0  0  0  0
  -12.8756    4.1691   29.8924 C   0  0  0  0  0  0  0  0  0  0  0  0
  -12.1494    4.4288   28.7988 C   0  0  0  0  0  0  0  0  0  0  0  0
  -14.3831    2.6727   31.2902 C   0  0  0  0  0  0  0  0  0  0  0  0
  -13.9525    3.0253   32.2767 O   0  0  0  0  0  0  0  0  0  0  0  0
  -15.3940    1.9309   31.1942 O   0  0  0  0  0  0  0  0  0  0  0  0
  -11.9206    4.1437   25.3641 C   0  0  0  0  0  0  0  0  0  0  0  0
  -13.1228    4.3018   25.2398 O   0  0  0  0  0  0  0  0  0  0  0  0
  5  8  1  0
  8  9  1  0
  8 10  1  0
  8 11  1  0
  1 12  1  0
  3 13  1  0
 13 14  1  0
 12 15  1  0
 14 15  3  0
  7 16  1  0
 16 17  1  0
 20 23  1  0
 23 24  1  0
 23 25  2  0
 16 26  1  6
 26 27  2  0
  3  2  1  0
 17 18  2  0
 18 19  1  0
 19 20  2  0
 20 21  1  0
 21 22  2  0
 22 17  1  0
  1  2  2  0
  2  7  1  0
  7  6  2  0
  6  5  1  0
  5  4  2  0
  4  1  1  0
M  END
$$$$
