No_9988-complexes_sdf/6BKW-FPZ/2024-09-17-14-21-01/
     RDKit          3D

 22 24  0  0  0  0  0  0  0  0999 V2000
   -7.9040    3.9820   27.1177 C   0  0  0  0  0  0  0  0  0  0  0  0
   -9.0711    4.3164   27.0630 C   0  0  0  0  0  0  0  0  0  0  0  0
   -9.9692    3.7224   26.1073 C   0  0  0  0  0  0  0  0  0  0  0  0
   -6.9787    4.6761   28.1003 C   0  0  0  0  0  0  0  0  0  0  0  0
  -11.1978    4.2793   25.7845 C   0  0  0  0  0  0  0  0  0  0  0  0
  -11.9722    3.7671   24.7671 C   0  0  0  0  0  0  0  0  0  0  0  0
  -11.4321    2.7931   23.9433 C   0  0  0  0  0  0  0  0  0  0  0  0
  -10.2070    2.2970   24.1835 C   0  0  0  0  0  0  0  0  0  0  0  0
   -9.3944    2.8078   25.1975 C   0  0  0  0  0  0  0  0  0  0  0  0
   -7.5087    5.6759   28.8863 C   0  0  0  0  0  0  0  0  0  0  0  0
   -9.6479    5.0966   28.0845 C   0  0  0  0  0  0  0  0  0  0  0  0
   -8.8322    5.8610   28.9228 C   0  0  0  0  0  0  0  0  0  0  0  0
   -9.6327    1.2171   23.3186 C   0  0  0  0  0  0  0  0  0  0  0  0
   -9.5757    1.5713   22.0984 F   0  0  0  0  0  0  0  0  0  0  0  0
  -10.3792    0.0679   23.4446 F   0  0  0  0  0  0  0  0  0  0  0  0
   -8.3486    0.8436   23.7098 F   0  0  0  0  0  0  0  0  0  0  0  0
  -13.2931    4.2917   24.4814 C   0  0  0  0  0  0  0  0  0  0  0  0
  -14.3830    3.5456   24.5812 C   0  0  0  0  0  0  0  0  0  0  0  0
  -15.5727    3.9682   24.2761 C   0  0  0  0  0  0  0  0  0  0  0  0
  -15.7139    5.3702   23.8605 C   0  0  0  0  0  0  0  0  0  0  0  0
  -14.5755    6.1540   23.6676 C   0  0  0  0  0  0  0  0  0  0  0  0
  -13.3549    5.6235   23.9565 C   0  0  0  0  0  0  0  0  0  0  0  0
  2  3  1  0
  8 13  1  0
 13 14  1  0
 13 15  1  0
 13 16  1  0
  6 17  1  0
 17 18  2  0
 18 19  1  0
 19 20  2  0
 20 21  1  0
 21 22  2  0
 22 17  1  0
  3  5  2  0
  5  6  1  0
  6  7  2  0
  7  8  1  0
  8  9  2  0
  9  3  1  0
  1  2  2  0
  2 11  1  0
 11 12  2  0
 12 10  1  0
 10  4  2  0
  4  1  1  0
M  END
$$$$
