No_9956-complexes_sdf/6BKW-FPZ/2024-09-17-14-21-01/
     RDKit          3D

 21 23  0  0  0  0  0  0  0  0999 V2000
   -7.9040    3.9820   27.1177 C   0  0  0  0  0  0  0  0  0  0  0  0
   -9.0711    4.3164   27.0630 C   0  0  0  0  0  0  0  0  0  0  0  0
   -9.8698    3.9665   25.9495 C   0  0  0  0  0  0  0  0  0  0  0  0
   -7.4046    2.7946   26.4568 C   0  0  0  0  0  0  0  0  0  0  0  0
   -8.3659    2.1310   25.6816 C   0  0  0  0  0  0  0  0  0  0  0  0
   -9.5390    2.7825   25.4030 C   0  0  0  0  0  0  0  0  0  0  0  0
   -7.0213    4.5077   28.0334 F   0  0  0  0  0  0  0  0  0  0  0  0
  -10.4658    2.1703   24.3844 C   0  0  0  0  0  0  0  0  0  0  0  0
  -10.1152    1.2204   23.6717 C   0  0  0  0  0  0  0  0  0  0  0  0
  -10.9504    0.6617   22.6626 C   0  0  0  0  0  0  0  0  0  0  0  0
  -12.2239    1.2272   22.4814 C   0  0  0  0  0  0  0  0  0  0  0  0
  -11.7978    2.7135   24.0539 C   0  0  0  0  0  0  0  0  0  0  0  0
  -12.6018    2.2684   23.1872 C   0  0  0  0  0  0  0  0  0  0  0  0
   -9.4862    5.9242   27.7864 Cl  0  0  0  0  0  0  0  0  0  0  0  0
  -13.0776    0.5779   21.4184 C   0  0  0  0  0  0  0  0  0  0  0  0
  -12.7735   -0.1605   20.6005 C   0  0  0  0  0  0  0  0  0  0  0  0
  -11.3389   -0.7159   20.7070 C   0  0  0  0  0  0  0  0  0  0  0  0
  -10.4716   -0.3314   21.7138 C   0  0  0  0  0  0  0  0  0  0  0  0
  -13.8073    2.9855   23.1527 C   0  0  0  0  0  0  0  0  0  0  0  0
  -14.7788    2.6623   23.9668 C   0  0  0  0  0  0  0  0  0  0  0  0
  -16.0429    3.3847   23.9382 C   0  0  0  0  0  0  0  0  0  0  0  0
  1  7  1  0
  6  8  1  0
  2 14  1  0
 13 19  1  0
 19 20  2  3
 20 21  1  0
 11 15  2  0
 15 16  1  0
 16 17  2  0
 17 18  1  0
 18 10  2  0
  1  2  2  0
  2  3  1  0
  3  6  2  0
  6  5  1  0
  5  4  2  0
  4  1  1  0
  8  9  2  0
  9 10  1  0
 10 11  1  0
 11 13  1  0
 13 12  2  0
 12  8  1  0
M  END
$$$$
