No_9993-complexes_sdf/6BKW-FPZ/2024-09-17-14-21-01/
     RDKit          3D

 16 17  0  0  0  0  0  0  0  0999 V2000
   -7.7129    4.2099   27.0854 C   0  0  0  0  0  0  0  0  0  0  0  0
   -8.2112    3.0637   26.9225 C   0  0  0  0  0  0  0  0  0  0  0  0
   -8.5108    5.3904   26.9436 C   0  0  0  0  0  0  0  0  0  0  0  0
   -9.7256    5.1955   26.3518 C   0  0  0  0  0  0  0  0  0  0  0  0
   -9.4995    2.8258   26.4878 C   0  0  0  0  0  0  0  0  0  0  0  0
  -10.2542    3.9691   26.2055 C   0  0  0  0  0  0  0  0  0  0  0  0
   -7.8138    6.9227   27.2348 Cl  0  0  0  0  0  0  0  0  0  0  0  0
   -7.1750    1.9446   27.3088 C   0  0  0  0  0  0  0  0  0  0  0  0
   -7.5022    0.7276   27.1308 O   0  0  0  0  0  0  0  0  0  0  0  0
   -6.0227    2.2295   27.6969 O   0  0  0  0  0  0  0  0  0  0  0  0
   -6.6574   -0.2577   27.3911 C   0  0  0  0  0  0  0  0  0  0  0  0
   -5.5055   -0.0792   27.1900 C   0  0  0  0  0  0  0  0  0  0  0  0
   -4.4660   -1.1802   27.4270 C   0  0  0  0  0  0  0  0  0  0  0  0
   -4.9490   -2.3676   27.7577 C   0  0  0  0  0  0  0  0  0  0  0  0
   -7.2346   -1.4901   27.8706 C   0  0  0  0  0  0  0  0  0  0  0  0
   -6.3484   -2.5531   28.0481 C   0  0  0  0  0  0  0  0  0  0  0  0
  3  7  1  0
  2  8  1  0
  8  9  1  0
  8 10  2  0
  9 11  1  0
 11 12  2  0
 12 13  1  0
 13 14  2  0
 14 16  1  0
 16 15  2  0
 15 11  1  0
  1  2  2  0
  2  5  1  0
  5  6  2  0
  6  4  1  0
  4  3  2  0
  3  1  1  0
M  END
$$$$
