No_9084-complexes_sdf/6BKW-FPZ/2024-09-17-14-21-01/
     RDKit          3D

 13 14  0  0  0  0  0  0  0  0999 V2000
   -7.9040    3.9820   27.1177 C   0  0  0  0  0  0  0  0  0  0  0  0
   -7.8663    4.8694   27.9238 C   0  0  0  0  0  0  0  0  0  0  0  0
   -9.0501    3.8017   26.2617 C   0  0  0  0  0  0  0  0  0  0  0  0
  -10.0189    4.7608   26.3707 C   0  0  0  0  0  0  0  0  0  0  0  0
   -8.6770    5.9780   27.9222 C   0  0  0  0  0  0  0  0  0  0  0  0
   -9.8040    5.8752   27.0958 C   0  0  0  0  0  0  0  0  0  0  0  0
   -9.1518    2.6191   25.4170 C   0  0  0  0  0  0  0  0  0  0  0  0
   -8.6413    1.4242   25.8318 C   0  0  0  0  0  0  0  0  0  0  0  0
   -8.7321    0.3067   25.0180 C   0  0  0  0  0  0  0  0  0  0  0  0
   -8.1619   -0.8846   25.4669 C   0  0  0  0  0  0  0  0  0  0  0  0
   -7.4797   -0.9547   26.7071 C   0  0  0  0  0  0  0  0  0  0  0  0
   -7.3936    0.1665   27.5318 C   0  0  0  0  0  0  0  0  0  0  0  0
   -7.9071    1.3319   27.1350 C   0  0  0  0  0  0  0  0  0  0  0  0
  3  7  1  0
  7  8  1  0
  8  9  2  0
  9 10  1  0
 10 11  2  0
 11 12  1  0
 12 13  2  0
 13  8  1  0
  1  2  2  0
  2  5  1  0
  5  6  2  0
  6  4  1  0
  4  3  2  0
  3  1  1  0
M  END
$$$$
