No_9415-complexes_sdf/6BKW-FPZ/2024-09-17-14-21-01/
     RDKit          3D

 24 27  0  0  0  0  0  0  0  0999 V2000
   -7.9040    3.9820   27.1177 C   0  0  0  0  0  0  0  0  0  0  0  0
   -8.2057    2.8231   26.8733 C   0  0  0  0  0  0  0  0  0  0  0  0
   -9.2962    2.4021   26.1155 C   0  0  0  0  0  0  0  0  0  0  0  0
   -8.7358    5.0662   26.5917 C   0  0  0  0  0  0  0  0  0  0  0  0
   -9.7618    4.7023   25.7546 C   0  0  0  0  0  0  0  0  0  0  0  0
  -10.0066    3.4105   25.4922 C   0  0  0  0  0  0  0  0  0  0  0  0
   -8.3943    6.4761   26.8801 C   0  0  0  0  0  0  0  0  0  0  0  0
   -8.0574    7.5061   27.0291 N   0  0  0  0  0  0  0  0  0  0  0  0
   -7.3437    1.6766   27.4898 C   0  0  0  0  0  0  0  0  0  0  0  0
   -5.9994    1.9655   27.8367 C   0  0  0  0  0  0  0  0  0  0  0  0
   -5.1849    0.8994   28.3283 C   0  0  0  0  0  0  0  0  0  0  0  0
   -3.8765    1.0915   28.7836 C   0  0  1  0  0  0  0  0  0  0  0  0
   -5.7305   -0.4285   28.2749 C   0  0  0  0  0  0  0  0  0  0  0  0
   -7.0127   -0.6716   27.8551 C   0  0  0  0  0  0  0  0  0  0  0  0
   -7.7997    0.3767   27.3957 C   0  0  0  0  0  0  0  0  0  0  0  0
   -3.2446    0.2405   29.5765 N   0  0  0  0  0  0  0  0  0  0  0  0
   -3.5679   -0.0087   30.8274 C   0  0  0  0  0  0  0  0  0  0  0  0
   -3.4727   -1.1582   31.4031 C   0  0  0  0  0  0  0  0  0  0  0  0
   -2.3007   -0.6579   29.0722 C   0  0  1  0  0  0  0  0  0  0  0  0
   -1.9312   -1.8346   29.6637 C   0  0  0  0  0  0  0  0  0  0  0  0
   -2.4231   -2.0520   30.9815 C   0  0  0  0  0  0  0  0  0  0  0  0
   -1.8254   -0.4250   27.7902 N   0  0  0  0  0  0  0  0  0  0  0  0
   -2.1428    0.6573   27.0334 C   0  0  0  0  0  0  0  0  0  0  0  0
   -3.0217    1.2154   27.4237 O   0  0  0  0  0  0  0  0  0  0  0  0
  4  7  1  0
  7  8  3  0
  2  9  1  0
 12 11  1  6
 12 16  1  0
 16 17  1  0
 16 19  1  0
 18 21  1  0
 20 21  1  0
 19 22  1  0
 22 23  1  0
 12 24  1  0
 23 24  1  0
 17 18  1  0
 19 20  1  6
  1  2  2  0
  2  3  1  0
  3  6  2  0
  6  5  1  0
  5  4  2  0
  4  1  1  0
  9 10  2  0
 10 11  1  0
 11 13  2  0
 13 14  1  0
 14 15  2  0
 15  9  1  0
M  END
$$$$
