No_9110-complexes_sdf/6BKW-FPZ/2024-09-17-14-21-01/
     RDKit          3D

 26 28  0  0  0  0  0  0  0  0999 V2000
   -7.2496    3.8871   27.4508 C   0  0  0  0  0  0  0  0  0  0  0  0
   -7.6161    2.7143   27.1523 C   0  0  0  0  0  0  0  0  0  0  0  0
   -8.8302    2.4659   26.5056 C   0  0  0  0  0  0  0  0  0  0  0  0
   -8.1584    5.0090   27.3234 C   0  0  0  0  0  0  0  0  0  0  0  0
   -9.3788    4.7965   26.7695 C   0  0  0  0  0  0  0  0  0  0  0  0
   -9.7028    3.5649   26.3276 C   0  0  0  0  0  0  0  0  0  0  0  0
   -6.9225    1.4464   27.3142 C   0  0  0  0  0  0  0  0  0  0  0  0
   -7.3296    0.1953   27.1816 C   0  0  0  0  0  0  0  0  0  0  0  0
   -6.6017   -0.8801   27.4389 C   0  0  0  0  0  0  0  0  0  0  0  0
   -5.3071   -0.7001   27.9638 C   0  0  0  0  0  0  0  0  0  0  0  0
   -4.7813    0.5573   28.1801 C   0  0  0  0  0  0  0  0  0  0  0  0
   -5.5288    1.6354   27.9174 C   0  0  0  0  0  0  0  0  0  0  0  0
   -7.6793    6.3420   27.7958 C   0  0  0  0  0  0  0  0  0  0  0  0
   -3.2051    0.7735   28.8294 Cl  0  0  0  0  0  0  0  0  0  0  0  0
   -7.6563    7.3658   27.1350 N   0  0  0  0  0  0  0  0  0  0  0  0
  -11.0007    3.4198   25.6189 C   0  0  0  0  0  0  0  0  0  0  0  0
  -11.3548    2.2849   24.9801 C   0  0  0  0  0  0  0  0  0  0  0  0
  -12.5807    2.2000   24.2849 C   0  0  0  0  0  0  0  0  0  0  0  0
  -13.4226    3.3247   24.3042 C   0  0  0  0  0  0  0  0  0  0  0  0
  -13.0604    4.4948   24.9656 C   0  0  0  0  0  0  0  0  0  0  0  0
  -11.8727    4.5695   25.6506 C   0  0  0  0  0  0  0  0  0  0  0  0
   -6.9880    6.2388   28.9060 O   0  0  0  0  0  0  0  0  0  0  0  0
  -12.9783    1.1584   23.6308 F   0  0  0  0  0  0  0  0  0  0  0  0
   -7.0960   -2.0940   27.3300 F   0  0  0  0  0  0  0  0  0  0  0  0
  -14.5790    3.2418   23.6646 F   0  0  0  0  0  0  0  0  0  0  0  0
   -4.5815   -1.8237   28.3224 F   0  0  0  0  0  0  0  0  0  0  0  0
  2  7  1  0
  4 13  1  0
 11 14  1  0
 13 15  1  0
  6 16  1  0
 13 22  2  0
 18 23  1  0
  9 24  1  0
 19 25  1  0
 10 26  1  0
  1  2  2  0
  2  3  1  0
  3  6  2  0
  6  5  1  0
  5  4  2  0
  4  1  1  0
  7  8  2  0
  8  9  1  0
  9 10  2  0
 10 11  1  0
 11 12  2  0
 12  7  1  0
 16 17  2  0
 17 18  1  0
 18 19  2  0
 19 20  1  0
 20 21  2  0
 21 16  1  0
M  END
$$$$
