No_9075-complexes_sdf/6BKW-FPZ/2024-09-17-14-21-01/
     RDKit          3D

 29 32  0  0  0  0  0  0  0  0999 V2000
   -7.9040    3.9820   27.1177 C   0  0  0  0  0  0  0  0  0  0  0  0
   -7.8663    4.8694   27.9238 C   0  0  0  0  0  0  0  0  0  0  0  0
   -9.0491    3.8523   26.2542 C   0  0  0  0  0  0  0  0  0  0  0  0
   -8.7661    5.9491   27.9690 C   0  0  0  0  0  0  0  0  0  0  0  0
   -9.9295    4.8502   26.2323 C   0  0  0  0  0  0  0  0  0  0  0  0
   -9.8077    5.9288   27.0933 C   0  0  0  0  0  0  0  0  0  0  0  0
   -7.0120    2.8934   27.1747 N   0  0  0  0  0  0  0  0  0  0  0  0
   -7.2911    1.5905   26.8161 C   0  0  1  0  0  0  0  0  0  0  0  0
   -6.3069    0.6382   27.1886 C   0  0  0  0  0  0  0  0  0  0  0  0
   -6.5267   -0.6964   27.0310 C   0  0  0  0  0  0  0  0  0  0  0  0
   -8.7292    1.1191   26.2140 Cl  0  0  0  0  0  0  0  0  0  0  0  0
   -5.5000   -1.5951   27.3667 C   0  0  0  0  0  0  0  0  0  0  0  0
   -4.2783   -1.1253   27.9270 C   0  0  0  0  0  0  0  0  0  0  0  0
   -4.1620    0.3003   28.1631 C   0  0  0  0  0  0  0  0  0  0  0  0
   -5.1143    1.1461   27.8419 C   0  0  0  0  0  0  0  0  0  0  0  0
   -3.2073   -2.0100   28.3684 C   0  0  0  0  0  0  0  0  0  0  0  0
   -2.1447   -1.5597   28.7331 C   0  0  0  0  0  0  0  0  0  0  0  0
   -1.9560   -0.1800   29.1467 C   0  0  0  0  0  0  0  0  0  0  0  0
   -2.9325    0.7886   28.7849 C   0  0  0  0  0  0  0  0  0  0  0  0
  -10.9912    4.7927   25.2313 C   0  0  0  0  0  0  0  0  0  0  0  0
  -12.0850    3.9268   25.4891 C   0  0  1  0  0  0  0  0  0  0  0  0
  -12.3909    3.5646   26.7100 C   0  0  0  0  0  0  0  0  0  0  0  0
  -13.5519    2.7772   26.9965 C   0  0  0  0  0  0  0  0  0  0  0  0
  -13.8630    2.3066   28.3120 C   0  0  0  0  0  0  0  0  0  0  0  0
  -12.9939    2.6942   29.3742 C   0  0  0  0  0  0  0  0  0  0  0  0
  -11.8484    3.4616   29.1326 C   0  0  0  0  0  0  0  0  0  0  0  0
  -11.5753    3.8543   27.9705 C   0  0  0  0  0  0  0  0  0  0  0  0
  -12.9699    3.7169   24.3859 C   0  0  0  0  0  0  0  0  0  0  0  0
  -13.7470    4.6247   23.8256 C   0  0  0  0  0  0  0  0  0  0  0  0
  1  7  1  0
  7  8  1  0
  8  9  1  0
  8 11  1  1
  5 20  1  0
 21 20  1  1
 21 22  1  0
 21 28  1  0
 28 29  1  0
  9 10  2  0
 10 12  1  0
 12 13  2  0
 14 15  2  0
 15  9  1  0
  1  2  2  0
  2  4  1  0
  4  6  2  0
  6  5  1  0
  5  3  2  0
  3  1  1  0
 22 23  2  0
 23 24  1  0
 24 25  2  0
 25 26  1  0
 26 27  2  0
 27 22  1  0
 13 14  1  0
 14 19  1  0
 19 18  2  0
 18 17  1  0
 17 16  2  0
 16 13  1  0
M  END
$$$$
