No_966-complexes_sdf/6BKW-FPZ/2024-09-17-14-21-01/
     RDKit          3D

 22 24  0  0  0  0  0  0  0  0999 V2000
   -7.9040    3.9820   27.1177 C   0  0  0  0  0  0  0  0  0  0  0  0
   -8.2057    2.8231   26.8733 C   0  0  0  0  0  0  0  0  0  0  0  0
   -9.2962    2.4021   26.1155 C   0  0  0  0  0  0  0  0  0  0  0  0
   -8.7358    5.0662   26.5917 C   0  0  0  0  0  0  0  0  0  0  0  0
   -9.7618    4.7023   25.7546 C   0  0  0  0  0  0  0  0  0  0  0  0
  -10.0066    3.4105   25.4922 C   0  0  0  0  0  0  0  0  0  0  0  0
   -8.3936    6.4769   26.8843 C   0  0  0  0  0  0  0  0  0  0  0  0
   -8.0307    6.8601   28.0802 N   0  0  0  0  0  0  0  0  0  0  0  0
   -8.8511    7.3934   26.0853 O   0  0  0  0  0  0  0  0  0  0  0  0
   -7.3370    1.6663   27.4732 C   0  0  0  0  0  0  0  0  0  0  0  0
   -7.6957    0.3333   27.3688 C   0  0  0  0  0  0  0  0  0  0  0  0
   -6.7734   -0.6175   27.7143 C   0  0  0  0  0  0  0  0  0  0  0  0
   -5.5147   -0.2306   28.2249 C   0  0  0  0  0  0  0  0  0  0  0  0
   -5.1420    1.1284   28.2307 C   0  0  0  0  0  0  0  0  0  0  0  0
   -5.9566    2.0425   27.7985 C   0  0  0  0  0  0  0  0  0  0  0  0
   -4.5660   -1.2814   28.7281 C   0  0  0  0  0  0  0  0  0  0  0  0
   -3.4411   -1.1676   28.6556 C   0  0  0  0  0  0  0  0  0  0  0  0
   -2.4704   -2.1429   29.1788 C   0  0  0  0  0  0  0  0  0  0  0  0
   -1.0991   -1.9636   29.0933 C   0  0  0  0  0  0  0  0  0  0  0  0
   -0.5588   -0.8069   28.5011 C   0  0  0  0  0  0  0  0  0  0  0  0
   -1.4226    0.1862   28.0497 C   0  0  0  0  0  0  0  0  0  0  0  0
   -2.7018    0.0451   28.1495 C   0  0  0  0  0  0  0  0  0  0  0  0
  4  7  1  0
  7  8  1  0
  7  9  2  0
  2 10  1  0
 13 16  1  0
 16 17  1  0
 17 18  2  0
 18 19  1  0
 19 20  2  0
 20 21  1  0
 21 22  2  0
 22 17  1  0
  1  2  2  0
  2  3  1  0
  3  6  2  0
  6  5  1  0
  5  4  2  0
  4  1  1  0
 10 11  2  0
 11 12  1  0
 12 13  2  0
 13 14  1  0
 14 15  2  0
 15 10  1  0
M  END
$$$$
