No_9599-complexes_sdf/6BKW-FPZ/2024-09-17-14-21-01/
     RDKit          3D

 40 46  0  0  0  0  0  0  0  0999 V2000
   -7.2496    3.8871   27.4508 C   0  0  0  0  0  0  0  0  0  0  0  0
   -7.6161    2.7143   27.1523 C   0  0  0  0  0  0  0  0  0  0  0  0
   -6.9719    1.5838   27.5324 C   0  0  0  0  0  0  0  0  0  0  0  0
   -7.4590    0.2827   27.2615 C   0  0  0  0  0  0  0  0  0  0  0  0
   -8.7521    2.5117   26.3068 C   0  0  0  0  0  0  0  0  0  0  0  0
   -9.2100    1.2391   25.9794 C   0  0  0  0  0  0  0  0  0  0  0  0
   -8.5134    0.1313   26.5112 C   0  0  0  0  0  0  0  0  0  0  0  0
   -8.0343    5.0565   27.1688 C   0  0  0  0  0  0  0  0  0  0  0  0
   -7.6925    6.3666   27.7843 C   0  0  0  0  0  0  0  0  0  0  0  0
   -9.1505    5.0265   26.3637 C   0  0  0  0  0  0  0  0  0  0  0  0
   -9.5086    3.6765   25.9254 C   0  0  0  0  0  0  0  0  0  0  0  0
  -10.6196    3.6017   24.9627 C   0  0  0  0  0  0  0  0  0  0  0  0
  -11.8398    3.4062   25.4274 C   0  0  0  0  0  0  0  0  0  0  0  0
  -10.3343    3.6089   23.5817 C   0  0  0  0  0  0  0  0  0  0  0  0
  -11.2604    3.6059   22.6276 C   0  0  0  0  0  0  0  0  0  0  0  0
  -12.9335    3.4471   24.4976 C   0  0  0  0  0  0  0  0  0  0  0  0
  -12.6458    3.5673   23.1244 C   0  0  0  0  0  0  0  0  0  0  0  0
   -6.7164   -0.8963   27.8120 C   0  0  0  0  0  0  0  0  0  0  0  0
   -5.3913   -0.7698   28.2054 C   0  0  0  0  0  0  0  0  0  0  0  0
   -4.7261   -1.8441   28.8860 C   0  0  0  0  0  0  0  0  0  0  0  0
   -3.4008   -1.5559   29.3515 C   0  0  0  0  0  0  0  0  0  0  0  0
   -2.7707   -0.3294   29.1290 C   0  0  0  0  0  0  0  0  0  0  0  0
   -3.4829    0.7128   28.5122 C   0  0  0  0  0  0  0  0  0  0  0  0
   -4.7401    0.5188   28.1141 C   0  0  0  0  0  0  0  0  0  0  0  0
   -5.5905    1.6219   27.7240 N   0  0  0  0  0  0  0  0  0  0  0  0
   -8.3440    7.4617   27.3267 N   0  0  0  0  0  0  0  0  0  0  0  0
   -7.4669   -2.4103   27.7842 Cl  0  0  0  0  0  0  0  0  0  0  0  0
  -11.0146    3.7639   21.2410 C   0  0  0  0  0  0  0  0  0  0  0  0
  -10.5191    2.5814   20.6587 C   0  0  0  0  0  0  0  0  0  0  0  0
   -9.9238    4.8478   21.1168 C   0  0  0  0  0  0  0  0  0  0  0  0
  -12.2249    4.2912   20.4472 C   0  0  0  0  0  0  0  0  0  0  0  0
   -9.5937    1.8753   21.4235 C   0  0  0  0  0  0  0  0  0  0  0  0
  -11.1835    1.9844   19.5923 C   0  0  0  0  0  0  0  0  0  0  0  0
   -9.3970    0.3856   21.3312 C   0  0  0  0  0  0  0  0  0  0  0  0
   -8.6314   -0.2232   22.2980 C   0  0  0  0  0  0  0  0  0  0  0  0
   -8.7699   -1.5825   22.5281 C   0  0  0  0  0  0  0  0  0  0  0  0
   -9.6298   -2.3040   21.6711 C   0  0  0  0  0  0  0  0  0  0  0  0
  -10.4093   -1.6610   20.7034 C   0  0  0  0  0  0  0  0  0  0  0  0
  -10.3574   -0.2908   20.6144 C   0  0  0  0  0  0  0  0  0  0  0  0
  -11.2538    0.3925   19.6597 C   0  0  0  0  0  0  0  0  0  0  0  0
  8  9  1  0
 11 12  1  0
  9 26  1  0
 18 27  1  0
 15 28  1  0
 28 29  1  0
 28 30  1  0
 28 31  1  0
 29 32  2  0
 32 34  1  0
 39 40  1  0
 40 33  2  0
 33 29  1  0
  1  2  2  0
  5 11  2  0
 11 10  1  0
 10  8  2  0
  8  1  1  0
 19 20  2  0
 20 21  1  0
 21 22  2  0
 22 23  1  0
 23 24  2  0
 12 13  2  0
 13 16  1  0
 16 17  2  0
 17 15  1  0
 15 14  2  0
 14 12  1  0
 34 35  2  0
 35 36  1  0
 36 37  2  0
 37 38  1  0
 38 39  2  0
 39 34  1  0
  4 18  2  0
 18 19  1  0
 19 24  1  0
 24 25  1  0
 25  3  2  0
  2  3  1  0
  3  4  1  0
  4  7  1  0
  7  6  2  0
  6  5  1  0
  5  2  1  0
M  END
$$$$
