No_9281-complexes_sdf/6BKW-FPZ/2024-09-17-14-21-01/
     RDKit          3D

 23 25  0  0  0  0  0  0  0  0999 V2000
   -7.9040    3.9820   27.1177 C   0  0  0  0  0  0  0  0  0  0  0  0
   -7.8663    4.8694   27.9238 C   0  0  0  0  0  0  0  0  0  0  0  0
   -9.0491    3.8523   26.2542 C   0  0  0  0  0  0  0  0  0  0  0  0
   -8.6019    5.9544   27.7203 C   0  0  0  0  0  0  0  0  0  0  0  0
   -9.7838    4.9247   26.0626 C   0  0  0  0  0  0  0  0  0  0  0  0
   -9.6083    6.0325   26.8808 C   0  0  0  0  0  0  0  0  0  0  0  0
   -7.0940    2.6762   27.3407 C   0  0  0  0  0  0  0  0  0  0  0  0
   -7.2379    1.5250   27.4647 N   0  0  0  0  0  0  0  0  0  0  0  0
   -6.3145    0.6208   27.6662 C   0  0  0  0  0  0  0  0  0  0  0  0
   -5.1313    1.4044   27.8723 C   0  0  0  0  0  0  0  0  0  0  0  0
   -5.7862    3.0362   27.7302 N   0  0  0  0  0  0  0  0  0  0  0  0
   -6.2177   -0.7350   27.7285 C   0  0  0  0  0  0  0  0  0  0  0  0
   -5.2338   -1.4092   28.2321 C   0  0  0  0  0  0  0  0  0  0  0  0
   -4.0103   -0.6018   28.5356 C   0  0  0  0  0  0  0  0  0  0  0  0
   -3.9926    0.9550   28.3940 C   0  0  0  0  0  0  0  0  0  0  0  0
   -2.8783   -1.1604   28.9627 F   0  0  0  0  0  0  0  0  0  0  0  0
  -10.9685    4.9161   24.8303 Cl  0  0  0  0  0  0  0  0  0  0  0  0
   -7.4667   -1.4792   27.4726 C   0  0  0  0  0  0  0  0  0  0  0  0
   -7.8376   -1.8460   26.2262 C   0  0  0  0  0  0  0  0  0  0  0  0
   -7.0365   -2.3892   25.4417 C   0  0  0  0  0  0  0  0  0  0  0  0
   -6.7587   -2.2854   24.4549 C   0  0  0  0  0  0  0  0  0  0  0  0
   -6.1937   -2.0025   23.6150 C   0  0  0  0  0  0  0  0  0  0  0  0
   -6.4094   -0.8138   22.8615 C   0  0  0  0  0  0  0  0  0  0  0  0
  1  7  1  0
  7  8  1  0
  8  9  1  0
  7 11  2  0
 10 11  1  0
 14 16  1  0
  5 17  1  0
 12 18  1  0
 18 19  1  0
 19 20  2  3
 20 21  1  0
 21 22  3  0
 22 23  1  0
  9 10  2  0
 10 15  1  0
 15 14  2  0
 14 13  1  0
 13 12  2  0
 12  9  1  0
  1  2  2  0
  2  4  1  0
  4  6  2  0
  6  5  1  0
  5  3  2  0
  3  1  1  0
M  END
$$$$
