No_943-complexes_sdf/6BKW-FPZ/2024-09-17-14-21-01/
     RDKit          3D

 23 25  0  0  0  0  0  0  0  0999 V2000
   -7.9040    3.9820   27.1177 C   0  0  0  0  0  0  0  0  0  0  0  0
   -8.2057    2.8231   26.8733 C   0  0  0  0  0  0  0  0  0  0  0  0
   -9.2962    2.4021   26.1155 C   0  0  0  0  0  0  0  0  0  0  0  0
   -6.8682    4.5169   28.0704 C   0  0  2  0  0  0  0  0  0  0  0  0
  -10.0578    3.3688   25.5520 C   0  0  0  0  0  0  0  0  0  0  0  0
   -9.6997    4.7480   25.6981 C   0  0  0  0  0  0  0  0  0  0  0  0
   -8.6783    5.1111   26.5262 C   0  0  0  0  0  0  0  0  0  0  0  0
  -11.1704    3.0677   24.6150 C   0  0  0  0  0  0  0  0  0  0  0  0
  -12.3590    2.8658   25.1091 C   0  0  0  0  0  0  0  0  0  0  0  0
  -12.5741    2.9240   26.5581 C   0  0  0  0  0  0  0  0  0  0  0  0
  -13.9397    2.8007   27.0712 C   0  0  0  0  0  0  0  0  0  0  0  0
  -14.1457    2.8965   28.4833 C   0  0  0  0  0  0  0  0  0  0  0  0
  -13.0364    3.1925   29.3315 C   0  0  0  0  0  0  0  0  0  0  0  0
  -11.7533    3.3712   28.7688 C   0  0  0  0  0  0  0  0  0  0  0  0
  -11.5693    3.3021   27.4271 C   0  0  0  0  0  0  0  0  0  0  0  0
  -10.8595    2.9621   23.2268 C   0  0  0  0  0  0  0  0  0  0  0  0
  -11.5269    3.3807   22.2942 C   0  0  0  0  0  0  0  0  0  0  0  0
  -11.2158    3.2929   20.8909 C   0  0  0  0  0  0  0  0  0  0  0  0
   -9.9665    2.6076   20.6013 C   0  0  0  0  0  0  0  0  0  0  0  0
   -9.2270    2.0912   21.6687 C   0  0  0  0  0  0  0  0  0  0  0  0
   -9.6096    2.2145   22.9978 C   0  0  0  0  0  0  0  0  0  0  0  0
   -7.0045    5.6232   28.6967 N   0  0  0  0  0  0  0  0  0  0  0  0
   -5.8127    3.7906   28.0172 F   0  0  0  0  0  0  0  0  0  0  0  0
  1  4  1  0
  5  8  1  0
  8  9  2  3
  9 10  1  0
  8 16  1  0
  4 22  1  6
  4 23  1  0
 16 17  2  0
 17 18  1  0
 18 19  2  0
 19 20  1  0
 20 21  2  0
 21 16  1  0
 10 11  2  0
 11 12  1  0
 12 13  2  0
 13 14  1  0
 14 15  2  0
 15 10  1  0
  1  2  2  0
  2  3  1  0
  3  5  2  0
  5  6  1  0
  6  7  2  0
  7  1  1  0
M  END
$$$$
