No_939-complexes_sdf/6BKW-FPZ/2024-09-17-14-21-01/
     RDKit          3D

 21 22  0  0  0  0  0  0  0  0999 V2000
   -7.2496    3.8871   27.4508 C   0  0  0  0  0  0  0  0  0  0  0  0
   -8.5096    4.0291   27.2770 C   0  0  0  0  0  0  0  0  0  0  0  0
   -9.3451    2.8786   26.9046 C   0  0  0  0  0  0  0  0  0  0  0  0
   -6.6065    2.5680   27.5073 C   0  0  0  0  0  0  0  0  0  0  0  0
   -7.4233    1.4858   27.2402 C   0  0  0  0  0  0  0  0  0  0  0  0
   -8.7362    1.6525   26.9989 C   0  0  0  0  0  0  0  0  0  0  0  0
   -9.1023    5.3710   27.2131 C   0  0  0  0  0  0  0  0  0  0  0  0
   -8.3463    6.4776   26.8511 C   0  0  0  0  0  0  0  0  0  0  0  0
   -8.0710    7.5882   27.5432 C   0  0  0  0  0  0  0  0  0  0  0  0
   -7.2449    8.5639   26.8409 C   0  0  0  0  0  0  0  0  0  0  0  0
   -6.7875    0.1763   27.2983 C   0  0  0  0  0  0  0  0  0  0  0  0
   -5.5403    0.0222   27.8009 C   0  0  0  0  0  0  0  0  0  0  0  0
   -5.2088   -1.0321   28.5578 C   0  0  0  0  0  0  0  0  0  0  0  0
   -6.0823   -2.1437   28.4682 C   0  0  0  0  0  0  0  0  0  0  0  0
   -7.2847   -2.0448   27.9030 C   0  0  0  0  0  0  0  0  0  0  0  0
   -7.7401   -0.8377   27.4536 C   0  0  0  0  0  0  0  0  0  0  0  0
  -10.4901    5.5199   27.5876 C   0  0  0  0  0  0  0  0  0  0  0  0
   -3.7879   -1.2034   29.0652 C   0  0  0  0  0  0  0  0  0  0  0  0
   -3.3190   -2.2663   28.7025 F   0  0  0  0  0  0  0  0  0  0  0  0
   -3.0288   -0.1171   28.6107 F   0  0  0  0  0  0  0  0  0  0  0  0
   -3.8526   -1.0873   30.4554 F   0  0  0  0  0  0  0  0  0  0  0  0
  2  7  1  0
  7  8  1  0
  8  9  2  3
  9 10  1  0
  5 11  1  0
  7 17  1  0
 13 18  1  0
 18 19  1  0
 18 20  1  0
 18 21  1  0
 11 12  2  0
 12 13  1  0
 13 14  2  0
 14 15  1  0
 15 16  2  0
 16 11  1  0
  1  2  2  0
  2  3  1  0
  3  6  2  0
  6  5  1  0
  5  4  2  0
  4  1  1  0
M  END
$$$$
