No_9570-complexes_sdf/6BKW-FPZ/2024-09-17-14-21-01/
     RDKit          3D

 19 21  0  0  0  0  0  0  0  0999 V2000
   -7.7129    4.2099   27.0854 C   0  0  0  0  0  0  0  0  0  0  0  0
   -8.2112    3.0637   26.9225 C   0  0  0  0  0  0  0  0  0  0  0  0
   -8.4224    5.2106   27.8516 C   0  0  0  0  0  0  0  0  0  0  0  0
   -9.5628    2.7160   27.4089 C   0  0  0  0  0  0  0  0  0  0  0  0
  -10.0990    1.4393   27.3379 C   0  0  0  0  0  0  0  0  0  0  0  0
   -9.7443    4.9752   28.2421 C   0  0  0  0  0  0  0  0  0  0  0  0
  -10.2586    3.7259   28.1259 C   0  0  0  0  0  0  0  0  0  0  0  0
  -10.7975    1.1030   26.2870 C   0  0  0  0  0  0  0  0  0  0  0  0
  -11.3040   -0.0756   26.1242 C   0  0  0  0  0  0  0  0  0  0  0  0
  -11.2397   -0.9625   26.7605 C   0  0  0  0  0  0  0  0  0  0  0  0
  -10.5089   -0.7720   28.1130 C   0  0  0  0  0  0  0  0  0  0  0  0
   -9.9225    0.4249   28.3787 C   0  0  0  0  0  0  0  0  0  0  0  0
   -7.9130    6.4362   27.9482 F   0  0  0  0  0  0  0  0  0  0  0  0
  -11.5998    3.4662   28.6514 C   0  0  0  0  0  0  0  0  0  0  0  0
  -12.7102    4.2040   28.1240 C   0  0  0  0  0  0  0  0  0  0  0  0
  -13.9922    4.0553   28.6029 C   0  0  0  0  0  0  0  0  0  0  0  0
  -14.1918    3.1380   29.6163 C   0  0  0  0  0  0  0  0  0  0  0  0
  -13.1472    2.3323   30.1025 C   0  0  0  0  0  0  0  0  0  0  0  0
  -11.8873    2.5311   29.6410 C   0  0  0  0  0  0  0  0  0  0  0  0
  4  5  1  0
  3 13  1  0
  7 14  1  0
  1  2  2  0
  2  4  1  0
  4  7  2  0
  7  6  1  0
  6  3  2  0
  3  1  1  0
 14 15  2  0
 15 16  1  0
 16 17  2  0
 17 18  1  0
 18 19  2  0
 19 14  1  0
  5  8  2  0
  8  9  1  0
  9 10  2  0
 10 11  1  0
 11 12  2  0
 12  5  1  0
M  END
$$$$
