No_9545-complexes_sdf/6BKW-FPZ/2024-09-17-14-21-01/
     RDKit          3D

 20 22  0  0  0  0  0  0  0  0999 V2000
   -7.7129    4.2099   27.0854 C   0  0  0  0  0  0  0  0  0  0  0  0
   -7.7814    5.1722   27.8972 C   0  0  0  0  0  0  0  0  0  0  0  0
   -8.8776    3.8408   26.3416 C   0  0  0  0  0  0  0  0  0  0  0  0
   -8.9136    2.6330   25.5655 C   0  0  0  0  0  0  0  0  0  0  0  0
   -8.8361    6.1389   27.9032 C   0  0  0  0  0  0  0  0  0  0  0  0
   -9.8295    4.8219   26.2726 C   0  0  0  0  0  0  0  0  0  0  0  0
   -9.8494    5.9177   27.0428 C   0  0  0  0  0  0  0  0  0  0  0  0
   -8.3057    1.5571   26.1659 N   0  0  0  0  0  0  0  0  0  0  0  0
   -7.7993    1.5578   27.3463 C   0  0  0  0  0  0  0  0  0  0  0  0
   -8.3715    0.3319   25.3596 C   0  0  2  0  0  0  0  0  0  0  0  0
   -9.4581    2.6016   24.4918 O   0  0  0  0  0  0  0  0  0  0  0  0
   -7.1008    0.1872   27.7241 C   0  0  0  0  0  0  0  0  0  0  0  0
   -9.1331   -0.0061   24.7831 C   0  0  0  0  0  0  0  0  0  0  0  0
   -7.5267   -0.5863   26.1894 C   0  0  2  0  0  0  0  0  0  0  0  0
  -10.4517   -0.2547   25.0377 C   0  0  0  0  0  0  0  0  0  0  0  0
  -11.4566   -0.4577   24.1670 C   0  0  0  0  0  0  0  0  0  0  0  0
  -11.1276   -0.4242   22.7869 C   0  0  0  0  0  0  0  0  0  0  0  0
   -8.8806    0.1051   23.2526 C   0  0  0  0  0  0  0  0  0  0  0  0
   -9.8120   -0.1506   22.3311 C   0  0  0  0  0  0  0  0  0  0  0  0
   -6.1652   -0.9310   25.5832 C   0  0  0  0  0  0  0  0  0  0  0  0
  3  4  1  0
  4  8  1  0
  8  9  1  0
  8 10  1  0
  4 11  2  0
  9 12  2  0
 10 13  1  1
 10 14  1  0
 12 14  1  0
 14 20  1  6
 13 15  2  0
 15 16  1  0
 16 17  2  0
 17 19  1  0
 19 18  2  0
 18 13  1  0
  1  2  2  0
  2  5  1  0
  5  7  2  0
  7  6  1  0
  6  3  2  0
  3  1  1  0
M  END
$$$$
