No_9841-complexes_sdf/6BKW-FPZ/2024-09-17-14-21-01/
     RDKit          3D

 15 16  0  0  0  0  0  0  0  0999 V2000
   -7.9040    3.9820   27.1177 C   0  0  0  0  0  0  0  0  0  0  0  0
   -8.2057    2.8231   26.8733 C   0  0  0  0  0  0  0  0  0  0  0  0
   -9.2962    2.4021   26.1155 C   0  0  0  0  0  0  0  0  0  0  0  0
   -6.8682    4.5169   28.0704 C   0  0  0  0  0  0  0  0  0  0  0  0
  -10.0578    3.3688   25.5520 C   0  0  0  0  0  0  0  0  0  0  0  0
   -9.6997    4.7480   25.6981 C   0  0  0  0  0  0  0  0  0  0  0  0
   -8.6783    5.1111   26.5262 C   0  0  0  0  0  0  0  0  0  0  0  0
  -11.1704    3.0677   24.6150 C   0  0  0  0  0  0  0  0  0  0  0  0
  -10.9735    2.1193   23.6765 C   0  0  0  0  0  0  0  0  0  0  0  0
  -12.0067    1.8023   22.7446 C   0  0  0  0  0  0  0  0  0  0  0  0
  -13.1915    2.5314   22.7974 C   0  0  0  0  0  0  0  0  0  0  0  0
  -12.3593    3.8515   24.5266 C   0  0  0  0  0  0  0  0  0  0  0  0
  -13.3377    3.6098   23.6952 C   0  0  0  0  0  0  0  0  0  0  0  0
   -7.0405    5.6517   28.6736 N   0  0  0  0  0  0  0  0  0  0  0  0
   -5.8052    3.8339   28.0392 O   0  0  0  0  0  0  0  0  0  0  0  0
  1  4  1  0
  5  8  1  0
  4 14  1  0
  4 15  2  0
  8  9  2  0
  9 10  1  0
 10 11  2  0
 11 13  1  0
 13 12  2  0
 12  8  1  0
  1  2  2  0
  2  3  1  0
  3  5  2  0
  5  6  1  0
  6  7  2  0
  7  1  1  0
M  END
$$$$
