No_9405-complexes_sdf/6BKW-FPZ/2024-09-17-14-21-01/
     RDKit          3D

 15 17  0  0  0  0  0  0  0  0999 V2000
   -7.7129    4.2099   27.0854 C   0  0  0  0  0  0  0  0  0  0  0  0
   -7.7814    5.1722   27.8972 C   0  0  0  0  0  0  0  0  0  0  0  0
   -8.8998    3.8713   26.3707 C   0  0  0  0  0  0  0  0  0  0  0  0
   -9.8197    4.2636   26.6487 C   0  0  0  0  0  0  0  0  0  0  0  0
  -10.0564    5.4056   27.4736 C   0  0  0  0  0  0  0  0  0  0  0  0
   -8.9370    5.9018   28.1282 C   0  0  0  0  0  0  0  0  0  0  0  0
   -8.6887    2.5919   25.4850 C   0  0  0  0  0  0  0  0  0  0  0  0
   -8.0645    1.5602   26.0159 N   0  0  0  0  0  0  0  0  0  0  0  0
   -7.9936    0.3659   25.3996 C   0  0  0  0  0  0  0  0  0  0  0  0
   -7.0782   -0.5518   25.9237 C   0  0  0  0  0  0  0  0  0  0  0  0
   -6.3034   -0.2190   27.0880 C   0  0  0  0  0  0  0  0  0  0  0  0
   -6.4318    1.0544   27.6907 C   0  0  0  0  0  0  0  0  0  0  0  0
   -7.2458    1.9451   27.1431 C   0  0  1  0  0  0  0  0  0  0  0  0
   -7.1980    3.1970   27.5872 N   0  0  0  0  0  0  0  0  0  0  0  0
   -9.5796    2.4593   24.5884 O   0  0  0  0  0  0  0  0  0  0  0  0
  3  7  1  0
  7  8  1  0
  8  9  1  0
 10 11  1  0
  8 13  1  0
 13 12  1  6
  1 14  1  0
 13 14  1  0
  7 15  2  0
  9 10  1  0
 11 12  1  0
  1  2  2  0
  2  6  1  0
  6  5  2  0
  5  4  1  0
  4  3  2  0
  3  1  1  0
M  END
$$$$
