No_9498-complexes_sdf/6BKW-FPZ/2024-09-17-14-21-01/
     RDKit          3D

 20 21  0  0  0  0  0  0  0  0999 V2000
   -7.9040    3.9820   27.1177 C   0  0  0  0  0  0  0  0  0  0  0  0
   -8.2057    2.8231   26.8733 C   0  0  0  0  0  0  0  0  0  0  0  0
   -9.2962    2.4021   26.1155 C   0  0  0  0  0  0  0  0  0  0  0  0
   -8.7358    5.0662   26.5917 C   0  0  0  0  0  0  0  0  0  0  0  0
   -9.7618    4.7022   25.7546 C   0  0  0  0  0  0  0  0  0  0  0  0
  -10.0066    3.4105   25.4922 C   0  0  0  0  0  0  0  0  0  0  0  0
   -8.4388    6.3309   26.8587 F   0  0  0  0  0  0  0  0  0  0  0  0
   -9.5455    1.1220   25.8451 F   0  0  0  0  0  0  0  0  0  0  0  0
   -7.4226    1.8079   27.4712 F   0  0  0  0  0  0  0  0  0  0  0  0
   -6.6177    4.4505   28.2796 Cl  0  0  0  0  0  0  0  0  0  0  0  0
  -11.1126    3.0882   24.5264 C   0  0  0  0  0  0  0  0  0  0  0  0
  -12.3480    2.9861   24.9687 C   0  0  0  0  0  0  0  0  0  0  0  0
  -12.6523    3.1872   26.3546 C   0  0  0  0  0  0  0  0  0  0  0  0
  -14.0430    3.1552   26.8095 C   0  0  0  0  0  0  0  0  0  0  0  0
  -14.9973    2.9608   25.8064 C   0  0  0  0  0  0  0  0  0  0  0  0
  -14.7331    2.8267   24.5180 C   0  0  0  0  0  0  0  0  0  0  0  0
  -13.4213    2.9106   24.0541 C   0  0  0  0  0  0  0  0  0  0  0  0
  -10.7243    2.9027   23.1853 C   0  0  0  0  0  0  0  0  0  0  0  0
  -10.5799    3.7493   22.2465 C   0  0  0  0  0  0  0  0  0  0  0  0
  -10.1735    3.4692   20.9285 C   0  0  0  0  0  0  0  0  0  0  0  0
  4  7  1  0
  3  8  1  0
  2  9  1  0
  1 10  1  0
  6 11  1  0
 11 18  1  0
 18 19  2  3
 19 20  1  0
 11 12  1  0
 12 13  2  0
 13 14  1  0
 14 15  2  0
 15 16  1  0
 16 17  2  0
 17 12  1  0
  1  2  2  0
  2  3  1  0
  3  6  2  0
  6  5  1  0
  5  4  2  0
  4  1  1  0
M  END
$$$$
