No_967-complexes_sdf/6BKW-FPZ/2024-09-17-14-21-01/
     RDKit          3D

 15 16  0  0  0  0  0  0  0  0999 V2000
   -7.9040    3.9820   27.1177 C   0  0  0  0  0  0  0  0  0  0  0  0
   -7.8663    4.8694   27.9238 C   0  0  0  0  0  0  0  0  0  0  0  0
   -9.0501    3.8017   26.2617 C   0  0  0  0  0  0  0  0  0  0  0  0
  -10.0189    4.7608   26.3707 C   0  0  0  0  0  0  0  0  0  0  0  0
   -8.6770    5.9780   27.9222 C   0  0  0  0  0  0  0  0  0  0  0  0
   -9.8040    5.8752   27.0958 C   0  0  0  0  0  0  0  0  0  0  0  0
   -9.1518    2.6191   25.4170 C   0  0  0  0  0  0  0  0  0  0  0  0
  -10.0296    2.6872   24.3367 C   0  0  0  0  0  0  0  0  0  0  0  0
   -9.9532    1.6508   23.4413 C   0  0  0  0  0  0  0  0  0  0  0  0
   -9.0803    0.5275   23.6242 C   0  0  0  0  0  0  0  0  0  0  0  0
   -8.2606    1.5204   25.4860 C   0  0  0  0  0  0  0  0  0  0  0  0
   -8.2268    0.5501   24.6500 C   0  0  0  0  0  0  0  0  0  0  0  0
   -7.3091   -0.5836   24.8344 C   0  0  0  0  0  0  0  0  0  0  0  0
   -6.6284   -0.9734   23.9156 O   0  0  0  0  0  0  0  0  0  0  0  0
   -7.0661   -1.0701   26.0189 O   0  0  0  0  0  0  0  0  0  0  0  0
  3  7  1  0
 12 13  1  0
 13 14  2  0
 13 15  1  0
  7  8  2  0
  8  9  1  0
  9 10  2  0
 10 12  1  0
 12 11  2  0
 11  7  1  0
  1  2  2  0
  2  5  1  0
  5  6  2  0
  6  4  1  0
  4  3  2  0
  3  1  1  0
M  END
$$$$
