No_9053-complexes_sdf/6BKW-FPZ/2024-09-17-14-21-01/
     RDKit          3D

 23 25  0  0  0  0  0  0  0  0999 V2000
   -7.7129    4.2099   27.0854 C   0  0  0  0  0  0  0  0  0  0  0  0
   -8.9134    4.4736   27.0998 C   0  0  0  0  0  0  0  0  0  0  0  0
   -9.4643    5.5426   27.7628 C   0  0  0  0  0  0  0  0  0  0  0  0
   -6.8373    4.9942   27.9785 C   0  0  0  0  0  0  0  0  0  0  0  0
   -7.3932    6.0303   28.6784 C   0  0  0  0  0  0  0  0  0  0  0  0
   -8.7122    6.3429   28.5485 C   0  0  0  0  0  0  0  0  0  0  0  0
   -9.7912    3.6118   26.1875 C   0  0  0  0  0  0  0  0  0  0  0  0
  -10.0449    4.0843   24.9272 C   0  0  0  0  0  0  0  0  0  0  0  0
  -10.7514    3.4030   23.9427 C   0  0  0  0  0  0  0  0  0  0  0  0
  -11.1304    2.1011   24.2165 C   0  0  0  0  0  0  0  0  0  0  0  0
  -10.1792    2.3282   26.3936 C   0  0  0  0  0  0  0  0  0  0  0  0
  -10.8167    1.5588   25.4785 C   0  0  0  0  0  0  0  0  0  0  0  0
  -11.0307    4.0543   22.6601 C   0  0  0  0  0  0  0  0  0  0  0  0
  -10.4332    3.6219   21.5304 C   0  0  0  0  0  0  0  0  0  0  0  0
  -11.8663    5.2022   22.6467 C   0  0  0  0  0  0  0  0  0  0  0  0
  -10.6183    4.2020   20.3015 C   0  0  0  0  0  0  0  0  0  0  0  0
  -12.2132    5.6822   21.3648 C   0  0  0  0  0  0  0  0  0  0  0  0
  -11.5469    5.2321   20.2540 C   0  0  0  0  0  0  0  0  0  0  0  0
   -9.8206    1.7851   27.6152 F   0  0  0  0  0  0  0  0  0  0  0  0
  -11.7663    1.3318   23.1930 C   0  0  0  0  0  0  0  0  0  0  0  0
  -13.1619    1.1317   23.4336 C   0  0  0  0  0  0  0  0  0  0  0  0
  -13.7851    1.2548   24.3840 C   0  0  0  0  0  0  0  0  0  0  0  0
  -15.2278    1.0090   24.4886 C   0  0  0  0  0  0  0  0  0  0  0  0
  2  7  1  0
  9 13  1  0
 11 19  1  0
 10 20  1  0
 20 21  1  0
 21 22  2  3
 22 23  1  0
  7  8  2  0
  8  9  1  0
  9 10  2  0
 10 12  1  0
 12 11  2  0
 11  7  1  0
 13 14  2  0
 14 16  1  0
 16 18  2  0
 18 17  1  0
 17 15  2  0
 15 13  1  0
  1  2  2  0
  2  3  1  0
  3  6  2  0
  6  5  1  0
  5  4  2  0
  4  1  1  0
M  END
$$$$
