No_9905-complexes_sdf/6BKW-FPZ/2024-09-17-14-21-01/
     RDKit          3D

 21 24  0  0  0  0  0  0  0  0999 V2000
   -7.7129    4.2099   27.0854 C   0  0  0  0  0  0  0  0  0  0  0  0
   -8.9133    4.4736   27.0998 C   0  0  0  0  0  0  0  0  0  0  0  0
   -9.7135    3.9633   26.0300 C   0  0  0  0  0  0  0  0  0  0  0  0
   -6.8655    4.8824   28.1822 C   0  0  0  0  0  0  0  0  0  0  0  0
   -9.2221    2.8459   25.3619 C   0  0  0  0  0  0  0  0  0  0  0  0
   -8.0164    2.2957   25.7889 C   0  0  0  0  0  0  0  0  0  0  0  0
   -7.3052    2.9474   26.8072 C   0  0  0  0  0  0  0  0  0  0  0  0
  -10.0330    2.1843   24.3790 C   0  0  0  0  0  0  0  0  0  0  0  0
  -10.1884    2.8674   23.1331 C   0  0  0  0  0  0  0  0  0  0  0  0
   -9.8892    4.2405   22.9801 C   0  0  0  0  0  0  0  0  0  0  0  0
  -10.5381    2.1251   21.9302 C   0  0  0  0  0  0  0  0  0  0  0  0
  -10.2175    0.8758   21.8134 C   0  0  0  0  0  0  0  0  0  0  0  0
  -10.6017    0.1443   20.7133 C   0  0  0  0  0  0  0  0  0  0  0  0
  -10.2297   -1.2179   20.5195 C   0  0  0  0  0  0  0  0  0  0  0  0
   -9.3693   -1.7804   21.5140 C   0  0  0  0  0  0  0  0  0  0  0  0
   -8.9152   -1.0865   22.5694 C   0  0  0  0  0  0  0  0  0  0  0  0
   -9.2330    0.1946   22.7227 C   0  0  0  0  0  0  0  0  0  0  0  0
  -11.2785    2.8116   20.9318 C   0  0  0  0  0  0  0  0  0  0  0  0
  -10.6181    4.9345   21.9261 C   0  0  0  0  0  0  0  0  0  0  0  0
  -11.1108    4.2508   20.8796 C   0  0  0  0  0  0  0  0  0  0  0  0
   -9.4290    0.8172   24.0494 C   0  0  0  0  0  0  0  0  0  0  0  0
  1  4  1  0
  5  8  1  0
 12 13  2  0
 13 14  1  0
 14 15  2  0
 15 16  1  0
 16 17  2  0
  8  9  1  0
 11 12  1  0
 12 17  1  0
 17 21  1  0
 21  8  2  0
  9 10  2  0
 10 19  1  0
 19 20  2  0
 20 18  1  0
 18 11  2  0
 11  9  1  0
  1  2  2  0
  2  3  1  0
  3  5  2  0
  5  6  1  0
  6  7  2  0
  7  1  1  0
M  END
$$$$
