No_9480-complexes_sdf/6BKW-FPZ/2024-09-17-14-21-01/
     RDKit          3D

 20 22  0  0  0  0  0  0  0  0999 V2000
   -7.7129    4.2099   27.0854 C   0  0  0  0  0  0  0  0  0  0  0  0
   -7.7814    5.1722   27.8972 C   0  0  0  0  0  0  0  0  0  0  0  0
   -8.7889    3.2468   27.2220 C   0  0  0  0  0  0  0  0  0  0  0  0
   -9.8367    3.4196   26.6050 C   0  0  0  0  0  0  0  0  0  0  0  0
   -9.1389    5.9161   27.6914 C   0  0  0  0  0  0  0  0  0  0  0  0
  -10.2335    4.9962   27.3010 C   0  0  0  0  0  0  0  0  0  0  0  0
   -8.2047    1.7373   26.8951 C   0  0  0  0  0  0  0  0  0  0  0  0
   -6.9150    1.4521   27.0954 C   0  0  0  0  0  0  0  0  0  0  0  0
   -6.4715    0.1309   27.0571 C   0  0  0  0  0  0  0  0  0  0  0  0
   -7.3711   -0.8571   26.7384 C   0  0  0  0  0  0  0  0  0  0  0  0
   -9.0178    0.6034   26.7154 C   0  0  0  0  0  0  0  0  0  0  0  0
   -8.6689   -0.5873   26.5985 C   0  0  0  0  0  0  0  0  0  0  0  0
   -9.8153    3.9792   25.1968 C   0  0  0  0  0  0  0  0  0  0  0  0
  -10.6273    3.2337   24.2080 C   0  0  0  0  0  0  0  0  0  0  0  0
  -10.6227    3.6418   22.9232 C   0  0  0  0  0  0  0  0  0  0  0  0
  -11.1393    2.8393   21.9733 C   0  0  0  0  0  0  0  0  0  0  0  0
  -11.0923    3.1665   20.6184 C   0  0  0  0  0  0  0  0  0  0  0  0
  -10.5405    4.4565   20.2623 C   0  0  0  0  0  0  0  0  0  0  0  0
  -10.1580    5.2766   21.2528 C   0  0  0  0  0  0  0  0  0  0  0  0
  -10.1899    4.9822   22.5555 C   0  0  0  0  0  0  0  0  0  0  0  0
  3  7  1  0
  4 13  1  0
 13 14  1  0
 14 15  1  0
  7  8  2  0
  8  9  1  0
  9 10  2  0
 10 12  1  0
 12 11  2  0
 11  7  1  0
 15 16  2  0
 16 17  1  0
 17 18  2  0
 18 19  1  0
 19 20  2  0
 20 15  1  0
  1  2  2  0
  2  5  1  0
  5  6  2  0
  6  4  1  0
  4  3  2  0
  3  1  1  0
M  END
$$$$
