No_9213-complexes_sdf/6BKW-FPZ/2024-09-17-14-21-01/
     RDKit          3D

 38 44  0  0  0  0  0  0  0  0999 V2000
   -7.7129    4.2099   27.0854 C   0  0  0  0  0  0  0  0  0  0  0  0
   -8.2112    3.0637   26.9225 C   0  0  0  0  0  0  0  0  0  0  0  0
   -7.0021    4.5281   28.2396 C   0  0  0  0  0  0  0  0  0  0  0  0
   -7.5497    1.9016   27.4549 C   0  0  0  0  0  0  0  0  0  0  0  0
   -6.3677    2.2142   28.2276 C   0  0  0  0  0  0  0  0  0  0  0  0
   -6.0061    3.5229   28.4663 C   0  0  0  0  0  0  0  0  0  0  0  0
   -8.6034    5.5331   26.7691 C   0  0  0  0  0  0  0  0  0  0  0  0
   -8.8621    5.5422   25.4912 F   0  0  0  0  0  0  0  0  0  0  0  0
   -9.7386    5.5943   27.5430 F   0  0  0  0  0  0  0  0  0  0  0  0
   -7.9283    6.7156   26.9701 F   0  0  0  0  0  0  0  0  0  0  0  0
   -5.4825    1.0690   28.5656 C   0  0  0  0  0  0  0  0  0  0  0  0
   -4.1642    1.2489   29.0337 C   0  0  0  0  0  0  0  0  0  0  0  0
   -3.4018    0.1709   29.4327 C   0  0  0  0  0  0  0  0  0  0  0  0
   -3.8757   -1.1139   29.2321 C   0  0  0  0  0  0  0  0  0  0  0  0
   -5.8864   -0.2713   28.3589 C   0  0  0  0  0  0  0  0  0  0  0  0
   -7.1752   -0.4784   27.8214 C   0  0  0  0  0  0  0  0  0  0  0  0
   -5.1127   -1.3403   28.7216 C   0  0  0  0  0  0  0  0  0  0  0  0
   -7.9382    0.6059   27.2183 C   0  0  0  0  0  0  0  0  0  0  0  0
   -9.2009    0.3440   26.6000 C   0  0  1  0  0  0  0  0  0  0  0  0
   -9.6309   -0.6763   26.4329 N   0  0  0  0  0  0  0  0  0  0  0  0
   -9.3619   -1.7141   26.1958 C   0  0  0  0  0  0  0  0  0  0  0  0
   -8.4363   -2.3684   27.0171 C   0  0  0  0  0  0  0  0  0  0  0  0
   -7.4683   -1.8488   27.5987 C   0  0  0  0  0  0  0  0  0  0  0  0
   -6.3595   -2.6736   28.1802 C   0  0  0  0  0  0  0  0  0  0  0  0
  -11.1472   -0.3276   26.0460 C   0  0  1  0  0  0  0  0  0  0  0  0
  -11.6586   -0.5863   25.1664 F   0  0  0  0  0  0  0  0  0  0  0  0
  -11.8539   -0.9072   27.2679 N   0  0  0  0  0  0  0  0  0  0  0  0
  -11.3808    1.2351   26.3439 C   0  0  1  0  0  0  0  0  0  0  0  0
   -9.8929    1.5247   26.3540 O   0  0  0  0  0  0  0  0  0  0  0  0
  -12.5186   -2.0666   27.3155 C   0  0  0  0  0  0  0  0  0  0  0  0
  -13.1495   -2.3615   28.2250 C   0  0  0  0  0  0  0  0  0  0  0  0
  -13.1714   -1.9433   29.2141 C   0  0  0  0  0  0  0  0  0  0  0  0
  -12.4544   -0.6333   29.4714 C   0  0  0  0  0  0  0  0  0  0  0  0
  -11.9471    0.0241   28.4033 C   0  0  0  0  0  0  0  0  0  0  0  0
  -11.9470    1.9380   25.1644 C   0  0  0  0  0  0  0  0  0  0  0  0
  -11.2830    2.2691   24.0348 C   0  0  0  0  0  0  0  0  0  0  0  0
  -10.3514    2.9801   23.9222 C   0  0  0  0  0  0  0  0  0  0  0  0
  -10.3696    3.7884   22.9088 C   0  0  0  0  0  0  0  0  0  0  0  0
  1  7  1  0
  7  8  1  0
  7  9  1  0
  7 10  1  0
 18 19  1  0
 19 20  1  0
 20 21  1  0
 21 22  2  0
 16 23  1  0
 22 23  1  0
 17 24  1  0
 23 24  1  0
 20 25  1  0
 25 26  1  6
 25 27  1  0
 25 28  1  0
 19 29  1  1
 28 29  1  6
 27 30  1  0
 31 32  1  0
 27 34  1  0
 33 34  1  0
 28 35  1  0
 35 36  2  3
 36 37  1  0
 37 38  2  0
 30 31  1  0
 32 33  1  0
  1  2  2  0
  2  4  1  0
  5  6  1  0
  6  3  2  0
  3  1  1  0
  4  5  2  0
  5 11  1  0
 15 16  1  0
 16 18  2  0
 18  4  1  0
 11 12  2  0
 12 13  1  0
 13 14  2  0
 14 17  1  0
 17 15  2  0
 15 11  1  0
M  END
$$$$
