No_9842-complexes_sdf/6BKW-FPZ/2024-09-17-14-21-01/
     RDKit          3D

 10 10  0  0  0  0  0  0  0  0999 V2000
   -7.7129    4.2099   27.0854 C   0  0  0  0  0  0  0  0  0  0  0  0
   -8.9133    4.4736   27.0998 C   0  0  0  0  0  0  0  0  0  0  0  0
   -9.7135    3.9633   26.0300 C   0  0  0  0  0  0  0  0  0  0  0  0
   -6.8420    4.9760   28.0851 C   0  0  0  0  0  0  0  0  0  0  0  0
  -10.9164    3.4776   26.1172 C   0  0  0  0  0  0  0  0  0  0  0  0
  -11.6897    3.8137   27.2914 C   0  0  0  0  0  0  0  0  0  0  0  0
  -13.0052    3.3302   27.4798 C   0  0  0  0  0  0  0  0  0  0  0  0
   -7.5658    5.9981   28.6235 C   0  0  0  0  0  0  0  0  0  0  0  0
   -9.1354    5.7119   27.8837 C   0  0  0  0  0  0  0  0  0  0  0  0
  -13.5773    2.7012   26.3860 C   0  0  0  0  0  0  0  0  0  0  0  0
  1  2  1  0
  2  3  1  0
  1  4  1  0
  3  5  2  3
  5  6  1  0
  6  7  2  3
  4  8  2  0
  2  9  1  0
  8  9  1  0
  7 10  1  0
M  END
$$$$
