No_944-complexes_sdf/6BKW-FPZ/2024-09-17-14-21-01/
     RDKit          3D

 23 25  0  0  0  0  0  0  0  0999 V2000
   -7.7129    4.2099   27.0854 C   0  0  0  0  0  0  0  0  0  0  0  0
   -8.9133    4.4736   27.0998 C   0  0  0  0  0  0  0  0  0  0  0  0
   -9.4643    5.5426   27.7628 C   0  0  0  0  0  0  0  0  0  0  0  0
   -7.2009    2.9448   26.6134 C   0  0  0  0  0  0  0  0  0  0  0  0
   -8.1365    1.9533   26.2981 C   0  0  1  0  0  0  0  0  0  0  0  0
   -9.4501    2.2651   26.2497 C   0  0  0  0  0  0  0  0  0  0  0  0
   -9.8615    3.4703   26.6763 C   0  0  0  0  0  0  0  0  0  0  0  0
   -7.5839    0.6450   25.9087 C   0  0  0  0  0  0  0  0  0  0  0  0
   -8.1431   -0.2743   26.3802 O   0  0  0  0  0  0  0  0  0  0  0  0
   -6.6225    0.5300   25.2351 O   0  0  0  0  0  0  0  0  0  0  0  0
  -11.2942    3.7476   26.6657 C   0  0  0  0  0  0  0  0  0  0  0  0
  -11.8925    3.8440   27.9251 C   0  0  0  0  0  0  0  0  0  0  0  0
  -12.0389    3.9338   25.5445 C   0  0  0  0  0  0  0  0  0  0  0  0
  -11.3811    3.3138   29.0994 C   0  0  0  0  0  0  0  0  0  0  0  0
  -13.1767    4.5533   27.9935 C   0  0  0  0  0  0  0  0  0  0  0  0
  -14.0330    4.6976   26.9866 C   0  0  0  0  0  0  0  0  0  0  0  0
  -13.3251    4.5466   25.6602 C   0  0  0  0  0  0  0  0  0  0  0  0
  -11.5145    3.8705   24.2229 C   0  0  0  0  0  0  0  0  0  0  0  0
  -10.4505    4.3030   23.8957 C   0  0  0  0  0  0  0  0  0  0  0  0
  -12.0941    2.7939   23.4511 C   0  0  0  0  0  0  0  0  0  0  0  0
  -11.5199    2.4873   22.2154 C   0  0  0  0  0  0  0  0  0  0  0  0
   -9.8755    4.2106   22.5541 C   0  0  0  0  0  0  0  0  0  0  0  0
  -10.4392    3.2550   21.7558 C   0  0  0  0  0  0  0  0  0  0  0  0
  1  2  1  0
  2  3  2  0
  1  4  1  0
  4  5  1  0
  5  6  1  0
  2  7  1  0
  6  7  1  0
  5  8  1  6
  8  9  2  0
  8 10  1  0
  7 11  1  0
 12 14  1  0
 13 18  1  0
 11 12  2  0
 12 15  1  0
 15 16  2  0
 16 17  1  0
 17 13  2  0
 13 11  1  0
 18 19  2  0
 19 22  1  0
 22 23  2  0
 23 21  1  0
 21 20  2  0
 20 18  1  0
M  END
$$$$
