No_9835-complexes_sdf/6BKW-FPZ/2024-09-17-14-21-01/
     RDKit          3D

 25 27  0  0  0  0  0  0  0  0999 V2000
   -7.7129    4.2099   27.0854 C   0  0  0  0  0  0  0  0  0  0  0  0
   -8.9133    4.4736   27.0998 C   0  0  0  0  0  0  0  0  0  0  0  0
   -9.4616    5.6470   27.6290 C   0  0  0  0  0  0  0  0  0  0  0  0
   -6.8722    5.1130   27.9248 C   0  0  0  0  0  0  0  0  0  0  0  0
   -7.3801    6.2535   28.4126 C   0  0  0  0  0  0  0  0  0  0  0  0
   -8.6734    6.5530   28.2150 C   0  0  0  0  0  0  0  0  0  0  0  0
   -9.8157    3.4887   26.3527 C   0  0  0  0  0  0  0  0  0  0  0  0
   -9.9163    3.5905   24.9383 C   0  0  0  0  0  0  0  0  0  0  0  0
  -10.5903    2.7150   24.1444 C   0  0  0  0  0  0  0  0  0  0  0  0
  -11.1844    1.6171   24.7355 C   0  0  0  0  0  0  0  0  0  0  0  0
  -10.5448    2.4483   26.8941 C   0  0  0  0  0  0  0  0  0  0  0  0
  -11.1966    1.4818   26.1635 C   0  0  0  0  0  0  0  0  0  0  0  0
  -10.5798    2.9021   22.7020 C   0  0  0  0  0  0  0  0  0  0  0  0
  -10.2818    4.1213   22.3750 F   0  0  0  0  0  0  0  0  0  0  0  0
  -11.7229    2.5684   22.1083 F   0  0  0  0  0  0  0  0  0  0  0  0
   -9.5802    2.1619   22.1297 F   0  0  0  0  0  0  0  0  0  0  0  0
  -11.8885    0.3722   26.7726 C   0  0  0  0  0  0  0  0  0  0  0  0
  -12.1771    0.3171   27.9518 N   0  0  0  0  0  0  0  0  0  0  0  0
  -12.2755   -0.6461   28.7276 C   0  0  0  0  0  0  0  0  0  0  0  0
  -12.2087   -0.5871   26.0435 O   0  0  0  0  0  0  0  0  0  0  0  0
  -11.1884   -1.3808   29.0987 C   0  0  0  0  0  0  0  0  0  0  0  0
  -11.2854   -2.5040   29.9906 C   0  0  0  0  0  0  0  0  0  0  0  0
  -12.5012   -2.6935   30.6331 C   0  0  0  0  0  0  0  0  0  0  0  0
  -13.5239   -0.7879   29.4443 C   0  0  0  0  0  0  0  0  0  0  0  0
  -13.5998   -1.8539   30.3731 C   0  0  0  0  0  0  0  0  0  0  0  0
  2  7  1  0
  9 13  1  0
 13 14  1  0
 13 15  1  0
 13 16  1  0
 12 17  1  0
 17 18  1  0
 18 19  1  0
 17 20  2  0
  7  8  2  0
  8  9  1  0
  9 10  2  0
 10 12  1  0
 12 11  2  0
 11  7  1  0
  1  2  2  0
  2  3  1  0
  3  6  2  0
  6  5  1  0
  5  4  2  0
  4  1  1  0
 19 21  2  0
 21 22  1  0
 22 23  2  0
 23 25  1  0
 25 24  2  0
 24 19  1  0
M  END
$$$$
