No_9660-complexes_sdf/6BKW-FPZ/2024-09-17-14-21-01/
     RDKit          3D

 29 32  0  0  0  0  0  0  0  0999 V2000
   -7.9040    3.9820   27.1177 C   0  0  0  0  0  0  0  0  0  0  0  0
   -9.0711    4.3164   27.0630 C   0  0  0  0  0  0  0  0  0  0  0  0
  -10.0395    3.8218   27.1938 C   0  0  0  0  0  0  0  0  0  0  0  0
   -7.6424    2.5858   27.3610 C   0  0  0  0  0  0  0  0  0  0  0  0
   -8.7646    1.7754   27.4263 C   0  0  0  0  0  0  0  0  0  0  0  0
   -9.9966    2.3406   27.3957 C   0  0  0  0  0  0  0  0  0  0  0  0
  -11.2016    1.4680   27.6051 C   0  0  0  0  0  0  0  0  0  0  0  0
  -11.9601    1.0238   26.6350 C   0  0  0  0  0  0  0  0  0  0  0  0
  -13.0065    0.2506   26.9117 C   0  0  0  0  0  0  0  0  0  0  0  0
  -13.3972   -0.0468   28.2830 C   0  0  0  0  0  0  0  0  0  0  0  0
  -12.6416    0.4634   29.3016 C   0  0  0  0  0  0  0  0  0  0  0  0
  -11.5416    1.2811   29.0771 C   0  0  0  0  0  0  0  0  0  0  0  0
   -6.3860    1.8941   27.5131 C   0  0  0  0  0  0  0  0  0  0  0  0
   -6.1262    0.6454   27.5079 N   0  0  0  0  0  0  0  0  0  0  0  0
   -4.9046    0.2006   27.7656 C   0  0  0  0  0  0  0  0  0  0  0  0
   -4.1415    1.2560   28.2613 C   0  0  0  0  0  0  0  0  0  0  0  0
   -5.1537    2.4027   28.2001 N   0  0  0  0  0  0  0  0  0  0  0  0
   -9.1670    5.9822   26.8591 C   0  0  0  0  0  0  0  0  0  0  0  0
   -9.1879    6.7348   27.8234 N   0  0  0  0  0  0  0  0  0  0  0  0
   -9.0055    6.3971   25.6601 O   0  0  0  0  0  0  0  0  0  0  0  0
   -4.4289   -1.1383   27.6918 C   0  0  0  0  0  0  0  0  0  0  0  0
   -4.0043   -1.5075   26.4918 C   0  0  0  0  0  0  0  0  0  0  0  0
   -3.5810   -2.7152   26.2062 C   0  0  0  0  0  0  0  0  0  0  0  0
   -3.4693   -3.6771   27.2390 C   0  0  0  0  0  0  0  0  0  0  0  0
   -4.3734   -1.9798   28.7782 C   0  0  0  0  0  0  0  0  0  0  0  0
   -4.8591   -1.6153   30.1356 C   0  0  0  0  0  0  0  0  0  0  0  0
   -3.8846   -3.3013   28.5932 C   0  0  0  0  0  0  0  0  0  0  0  0
   -4.1458   -0.6407   30.8857 C   0  0  0  0  0  0  0  0  0  0  0  0
   -4.5613   -0.2465   32.2059 C   0  0  0  0  0  0  0  0  0  0  0  0
  6  7  1  0
  4 13  1  0
 13 14  2  0
 14 15  1  0
 15 16  2  0
 13 17  1  0
 16 17  1  0
  2 18  1  0
 18 19  1  0
 18 20  2  0
 15 21  1  0
 25 26  1  0
 26 28  2  3
 28 29  1  0
  1  2  2  0
  2  3  1  0
  3  6  2  0
  6  5  1  0
  5  4  2  0
  4  1  1  0
 21 22  2  0
 22 23  1  0
 23 24  2  0
 24 27  1  0
 27 25  2  0
 25 21  1  0
  7  8  2  0
  8  9  1  0
  9 10  2  0
 10 11  1  0
 11 12  2  0
 12  7  1  0
M  END
$$$$
