No_9029-complexes_sdf/6BKW-FPZ/2024-09-17-14-21-01/
     RDKit          3D

 16 16  0  0  0  0  0  0  0  0999 V2000
   -7.9040    3.9820   27.1177 C   0  0  0  0  0  0  0  0  0  0  0  0
   -9.0711    4.3164   27.0630 C   0  0  0  0  0  0  0  0  0  0  0  0
   -9.5182    5.5541   27.5777 C   0  0  0  0  0  0  0  0  0  0  0  0
   -7.4468    2.6843   26.6499 C   0  0  0  0  0  0  0  0  0  0  0  0
   -8.3856    1.7878   26.2216 C   0  0  0  0  0  0  0  0  0  0  0  0
   -9.6812    2.2328   26.0889 C   0  0  0  0  0  0  0  0  0  0  0  0
  -10.0147    3.4312   26.5259 C   0  0  0  0  0  0  0  0  0  0  0  0
   -7.9132    0.4733   25.8127 C   0  0  0  0  0  0  0  0  0  0  0  0
   -7.3372   -0.3146   26.4746 O   0  0  0  0  0  0  0  0  0  0  0  0
   -7.9301    0.2713   24.4974 O   0  0  0  0  0  0  0  0  0  0  0  0
   -8.7978    6.5740   27.4707 O   0  0  0  0  0  0  0  0  0  0  0  0
   -8.0614    6.7913   26.2952 C   0  0  2  0  0  0  0  0  0  0  0  0
   -7.2234    7.9805   26.7560 C   0  0  0  0  0  0  0  0  0  0  0  0
   -9.1124    7.4059   25.9132 C   0  0  0  0  0  0  0  0  0  0  0  0
   -8.9952    8.5992   25.6238 O   0  0  0  0  0  0  0  0  0  0  0  0
   -9.8352    6.6125   25.1813 O   0  0  0  0  0  0  0  0  0  0  0  0
  2  3  1  0
  5  8  1  0
  8  9  2  0
  8 10  1  0
  3 11  1  0
 11 12  1  0
 12 13  1  1
 12 14  1  0
 14 15  2  0
 14 16  1  0
  1  2  2  0
  2  7  1  0
  7  6  2  0
  6  5  1  0
  5  4  2  0
  4  1  1  0
M  END
$$$$
