No_9793-complexes_sdf/6BKW-FPZ/2024-09-17-14-21-01/
     RDKit          3D

 31 35  0  0  0  0  0  0  0  0999 V2000
   -7.2496    3.8871   27.4508 C   0  0  0  0  0  0  0  0  0  0  0  0
   -8.5096    4.0291   27.2770 C   0  0  0  0  0  0  0  0  0  0  0  0
   -9.3502    2.8685   26.8763 C   0  0  0  0  0  0  0  0  0  0  0  0
   -6.4573    5.0085   27.9854 C   0  0  0  0  0  0  0  0  0  0  0  0
   -9.1981    5.2037   27.6491 C   0  0  0  0  0  0  0  0  0  0  0  0
   -8.4588    6.3530   27.9878 C   0  0  0  0  0  0  0  0  0  0  0  0
   -7.1111    6.2009   28.1683 C   0  0  0  0  0  0  0  0  0  0  0  0
  -10.6034    2.8014   26.9401 C   0  0  0  0  0  0  0  0  0  0  0  0
  -11.3902    1.6005   26.6285 C   0  0  0  0  0  0  0  0  0  0  0  0
  -10.6311    0.5087   26.1629 C   0  0  0  0  0  0  0  0  0  0  0  0
   -8.6850    1.6527   26.3008 C   0  0  0  0  0  0  0  0  0  0  0  0
   -9.2919    0.6046   25.9958 C   0  0  0  0  0  0  0  0  0  0  0  0
   -8.6311   -0.4554   25.4789 F   0  0  0  0  0  0  0  0  0  0  0  0
  -12.6748    1.4673   26.8864 F   0  0  0  0  0  0  0  0  0  0  0  0
  -11.5278   -0.9166   25.7490 Cl  0  0  0  0  0  0  0  0  0  0  0  0
  -10.5279    5.3698   27.4135 O   0  0  0  0  0  0  0  0  0  0  0  0
  -11.2902    4.1599   27.4383 C   0  0  1  0  0  0  0  0  0  0  0  0
  -12.7069    4.3215   27.5228 C   0  0  0  0  0  0  0  0  0  0  0  0
  -13.1178    4.4879   28.7293 N   0  0  0  0  0  0  0  0  0  0  0  0
  -14.4472    4.7659   29.0454 C   0  0  0  0  0  0  0  0  0  0  0  0
  -13.4844    4.4455   26.4590 C   0  0  0  0  0  0  0  0  0  0  0  0
  -13.0113    4.3539   25.0867 C   0  0  0  0  0  0  0  0  0  0  0  0
  -14.8860    4.8155   26.3907 C   0  0  0  0  0  0  0  0  0  0  0  0
  -15.3144    4.9892   27.8773 C   0  0  0  0  0  0  0  0  0  0  0  0
  -13.3043    3.7290   24.1100 C   0  0  0  0  0  0  0  0  0  0  0  0
  -12.6088    3.6909   22.9039 C   0  0  0  0  0  0  0  0  0  0  0  0
  -12.9174    2.8553   21.8391 C   0  0  0  0  0  0  0  0  0  0  0  0
  -14.6447    3.1684   23.9170 C   0  0  0  0  0  0  0  0  0  0  0  0
  -14.7990    2.3573   23.2638 C   0  0  0  0  0  0  0  0  0  0  0  0
  -14.1155    2.1198   21.9966 C   0  0  0  0  0  0  0  0  0  0  0  0
  -14.8332    4.9135   30.1770 F   0  0  0  0  0  0  0  0  0  0  0  0
  2  3  1  0
 12 13  1  0
  9 14  1  0
 10 15  1  0
  5 16  1  0
  8 17  1  0
 16 17  1  0
 17 18  1  6
 21 22  1  0
 20 31  1  0
 22 25  1  0
 25 26  2  0
 26 27  1  0
 27 30  2  0
 30 29  1  0
 29 28  2  0
 28 25  1  0
 18 19  2  0
 19 20  1  0
 20 24  2  0
 24 23  1  0
 23 21  2  0
 21 18  1  0
  3  8  2  0
  8  9  1  0
  9 10  2  0
 10 12  1  0
 12 11  2  0
 11  3  1  0
  1  2  2  0
  2  5  1  0
  5  6  2  0
  6  7  1  0
  7  4  2  0
  4  1  1  0
M  END
$$$$
