No_9206-complexes_sdf/6BKW-FPZ/2024-09-17-14-21-01/
     RDKit          3D

 13 14  0  0  0  0  0  0  0  0999 V2000
   -7.7129    4.2099   27.0854 C   0  0  0  0  0  0  0  0  0  0  0  0
   -7.7814    5.1722   27.8972 C   0  0  0  0  0  0  0  0  0  0  0  0
   -8.8776    3.8408   26.3416 C   0  0  0  0  0  0  0  0  0  0  0  0
   -9.9844    4.6492   26.4743 C   0  0  0  0  0  0  0  0  0  0  0  0
   -8.7830    6.1594   27.8870 C   0  0  0  0  0  0  0  0  0  0  0  0
   -9.9269    5.8191   27.1183 C   0  0  0  0  0  0  0  0  0  0  0  0
   -8.8798    2.6033   25.5707 C   0  0  0  0  0  0  0  0  0  0  0  0
   -8.2954    1.4576   26.2000 C   0  0  0  0  0  0  0  0  0  0  0  0
   -8.1064    0.2967   25.5275 C   0  0  0  0  0  0  0  0  0  0  0  0
   -8.6677    0.2475   24.2535 C   0  0  0  0  0  0  0  0  0  0  0  0
   -9.3704    2.4582   24.3190 C   0  0  0  0  0  0  0  0  0  0  0  0
   -9.2347    1.2924   23.6483 C   0  0  0  0  0  0  0  0  0  0  0  0
  -11.3440    4.3019   25.5222 Cl  0  0  0  0  0  0  0  0  0  0  0  0
  3  7  1  0
  4 13  1  0
  7  8  2  0
  8  9  1  0
  9 10  2  0
 10 12  1  0
 12 11  2  0
 11  7  1  0
  1  2  2  0
  2  5  1  0
  5  6  2  0
  6  4  1  0
  4  3  2  0
  3  1  1  0
M  END
$$$$
