No_941-complexes_sdf/6BKW-FPZ/2024-09-17-14-21-01/
     RDKit          3D

 23 26  0  0  0  0  0  0  0  0999 V2000
   -7.9040    3.9820   27.1177 C   0  0  0  0  0  0  0  0  0  0  0  0
   -8.2057    2.8231   26.8733 C   0  0  0  0  0  0  0  0  0  0  0  0
   -7.0130    4.3706   28.1140 C   0  0  0  0  0  0  0  0  0  0  0  0
   -9.3829    2.4374   26.1668 C   0  0  0  0  0  0  0  0  0  0  0  0
   -9.6934    1.0230   26.0164 C   0  0  0  0  0  0  0  0  0  0  0  0
  -10.8180    0.7042   25.2560 C   0  0  0  0  0  0  0  0  0  0  0  0
   -8.6892    5.0915   26.5549 C   0  0  0  0  0  0  0  0  0  0  0  0
   -9.7867    4.7911   25.7270 C   0  0  0  0  0  0  0  0  0  0  0  0
  -10.0756    3.4727   25.4947 C   0  0  0  0  0  0  0  0  0  0  0  0
  -11.1438   -0.6678   25.1469 C   0  0  0  0  0  0  0  0  0  0  0  0
   -8.6301    0.1415   25.6595 C   0  0  0  0  0  0  0  0  0  0  0  0
   -8.8335   -1.2268   25.6549 C   0  0  0  0  0  0  0  0  0  0  0  0
  -10.0904   -1.5735   25.1091 C   0  0  0  0  0  0  0  0  0  0  0  0
   -8.1883    6.2919   27.0193 N   0  0  0  0  0  0  0  0  0  0  0  0
   -7.2026    5.8837   27.9776 N   0  0  0  0  0  0  0  0  0  0  0  0
   -8.4999    7.5867   26.8668 C   0  0  0  0  0  0  0  0  0  0  0  0
  -12.4672   -1.0712   24.6732 C   0  0  0  0  0  0  0  0  0  0  0  0
  -13.5014   -0.3729   24.7927 C   0  0  0  0  0  0  0  0  0  0  0  0
  -13.4023    0.9545   25.4443 C   0  0  0  0  0  0  0  0  0  0  0  0
  -14.4959    1.8921   25.5884 C   0  0  0  0  0  0  0  0  0  0  0  0
  -12.0134    1.4729   25.7252 C   0  0  0  0  0  0  0  0  0  0  0  0
  -14.8887    2.4541   26.3264 C   0  0  0  0  0  0  0  0  0  0  0  0
  -16.0494    3.3943   26.3212 C   0  0  0  0  0  0  0  0  0  0  0  0
  4  5  1  0
  7 14  1  0
  3 15  1  0
 14 15  1  0
 14 16  1  0
 19 20  1  0
 20 22  2  3
 22 23  1  0
  3  1  1  0
  5  6  2  0
 10 13  2  0
 13 12  1  0
 12 11  2  0
 11  5  1  0
  1  2  2  0
  2  4  1  0
  4  9  2  0
  9  8  1  0
  8  7  2  0
  7  1  1  0
  6 10  1  0
 10 17  1  0
 17 18  2  0
 18 19  1  0
 19 21  2  0
 21  6  1  0
M  END
$$$$
