No_9702-complexes_sdf/6BKW-FPZ/2024-09-17-14-21-01/
     RDKit          3D

 27 30  0  0  0  0  0  0  0  0999 V2000
   -7.9040    3.9820   27.1177 C   0  0  0  0  0  0  0  0  0  0  0  0
   -8.2057    2.8231   26.8733 C   0  0  0  0  0  0  0  0  0  0  0  0
   -8.7463    4.9537   27.6708 C   0  0  0  0  0  0  0  0  0  0  0  0
   -8.3921    6.3606   27.8466 C   0  0  0  0  0  0  0  0  0  0  0  0
   -9.5482    2.3521   27.1946 C   0  0  0  0  0  0  0  0  0  0  0  0
  -10.4264    3.2507   27.7616 C   0  0  0  0  0  0  0  0  0  0  0  0
  -10.0702    4.5620   28.0189 C   0  0  0  0  0  0  0  0  0  0  0  0
   -9.0942    7.2301   26.8217 C   0  0  0  0  0  0  0  0  0  0  0  0
   -9.8592    0.9025   27.0516 C   0  0  0  0  0  0  0  0  0  0  0  0
  -11.2112    0.2860   27.6656 P   0  0  1  0  0  0  0  0  0  0  0  0
  -11.9576   -0.0852   26.6810 O   0  0  0  0  0  0  0  0  0  0  0  0
  -10.7444   -0.7639   28.6390 O   0  0  0  0  0  0  0  0  0  0  0  0
  -11.9023    1.3987   28.5263 O   0  0  0  0  0  0  0  0  0  0  0  0
  -10.8607   -2.0949   28.4229 C   0  0  0  0  0  0  0  0  0  0  0  0
  -10.0053   -2.7477   29.2240 C   0  0  0  0  0  0  0  0  0  0  0  0
   -9.4459   -2.2427   30.3558 C   0  0  0  0  0  0  0  0  0  0  0  0
   -8.3480   -2.8975   31.1020 C   0  0  0  0  0  0  0  0  0  0  0  0
   -7.9278   -2.4236   32.3689 C   0  0  0  0  0  0  0  0  0  0  0  0
   -6.7364   -2.7139   32.9797 C   0  0  0  0  0  0  0  0  0  0  0  0
   -5.9474   -3.6810   32.2807 C   0  0  0  0  0  0  0  0  0  0  0  0
   -6.3125   -4.1361   31.0776 C   0  0  0  0  0  0  0  0  0  0  0  0
   -7.4450   -3.7002   30.4568 C   0  0  0  0  0  0  0  0  0  0  0  0
  -11.8734    2.7005   28.3605 C   0  0  0  0  0  0  0  0  0  0  0  0
   -9.6732   -4.1126   28.8920 C   0  0  0  0  0  0  0  0  0  0  0  0
  -10.0787   -4.6733   28.1326 C   0  0  0  0  0  0  0  0  0  0  0  0
  -11.2308   -4.2435   27.3444 C   0  0  0  0  0  0  0  0  0  0  0  0
  -11.4677   -2.7066   27.4455 C   0  0  0  0  0  0  0  0  0  0  0  0
  3  4  1  0
  4  8  1  0
  5  9  1  0
  9 10  1  0
 10 11  2  0
 10 12  1  1
 10 13  1  0
 12 14  1  0
 15 16  1  0
  6 23  1  0
 13 23  1  0
 16 17  1  0
 14 15  1  0
 15 24  2  0
 24 25  1  0
 25 26  2  0
 26 27  1  0
 27 14  2  0
 17 18  2  0
 18 19  1  0
 19 20  2  0
 20 21  1  0
 21 22  2  0
 22 17  1  0
  1  2  2  0
  2  5  1  0
  5  6  2  0
  6  7  1  0
  7  3  2  0
  3  1  1  0
M  END
$$$$
