No_9973-complexes_sdf/6BKW-FPZ/2024-09-17-14-21-01/
     RDKit          3D

 14 14  0  0  0  0  0  0  0  0999 V2000
   -7.9040    3.9820   27.1177 C   0  0  0  0  0  0  0  0  0  0  0  0
   -9.0711    4.3164   27.0630 C   0  0  0  0  0  0  0  0  0  0  0  0
  -10.0395    3.8218   27.1938 C   0  0  0  0  0  0  0  0  0  0  0  0
   -7.6424    2.5858   27.3610 C   0  0  0  0  0  0  0  0  0  0  0  0
   -8.7741    1.7889   27.4566 C   0  0  0  0  0  0  0  0  0  0  0  0
  -10.0155    2.3581   27.4300 C   0  0  0  0  0  0  0  0  0  0  0  0
  -11.2141    1.4842   27.6314 C   0  0  0  0  0  0  0  0  0  0  0  0
  -12.0482    0.8510   26.4094 Cl  0  0  0  0  0  0  0  0  0  0  0  0
   -6.4081    2.0819   27.3968 F   0  0  0  0  0  0  0  0  0  0  0  0
  -11.6085    1.3486   28.9070 O   0  0  0  0  0  0  0  0  0  0  0  0
   -9.1465    5.9719   26.8270 C   0  0  0  0  0  0  0  0  0  0  0  0
   -9.1016    6.8107   26.1106 F   0  0  0  0  0  0  0  0  0  0  0  0
  -10.2001    6.3894   27.6923 F   0  0  0  0  0  0  0  0  0  0  0  0
   -7.9625    6.4635   27.6215 F   0  0  0  0  0  0  0  0  0  0  0  0
  6  7  1  0
  7  8  1  0
  4  9  1  0
  7 10  2  0
  2 11  1  0
 11 12  1  0
 11 13  1  0
 11 14  1  0
  1  2  2  0
  2  3  1  0
  3  6  2  0
  6  5  1  0
  5  4  2  0
  4  1  1  0
M  END
$$$$
