No_9838-complexes_sdf/6BKW-FPZ/2024-09-17-14-21-01/
     RDKit          3D

 10 10  0  0  0  0  0  0  0  0999 V2000
   -7.9040    3.9820   27.1177 C   0  0  0  0  0  0  0  0  0  0  0  0
   -7.8663    4.8694   27.9238 C   0  0  0  0  0  0  0  0  0  0  0  0
   -7.4547    2.7080   27.4594 C   0  0  0  0  0  0  0  0  0  0  0  0
   -6.1474    2.6388   27.8014 C   0  0  0  0  0  0  0  0  0  0  0  0
   -8.5539    6.1392   27.6636 C   0  0  0  0  0  0  0  0  0  0  0  0
   -8.9869    4.1037   26.1859 C   0  0  0  0  0  0  0  0  0  0  0  0
   -9.6052    5.2922   25.8555 C   0  0  0  0  0  0  0  0  0  0  0  0
   -9.3342    6.3767   26.6761 C   0  0  0  0  0  0  0  0  0  0  0  0
   -5.4209    1.4084   27.9939 C   0  0  0  0  0  0  0  0  0  0  0  0
   -6.1200    0.2288   27.8617 C   0  0  0  0  0  0  0  0  0  0  0  0
  3  4  1  0
  4  9  2  3
  9 10  1  0
  3  1  1  0
  1  2  2  0
  2  5  1  0
  5  8  2  0
  8  7  1  0
  7  6  2  0
  6  1  1  0
M  END
$$$$
