No_9202-complexes_sdf/6BKW-FPZ/2024-09-17-14-21-01/
     RDKit          3D

 40 43  0  0  0  0  0  0  0  0999 V2000
   -7.2496    3.8871   27.4508 C   0  0  0  0  0  0  0  0  0  0  0  0
   -7.6161    2.7143   27.1523 C   0  0  0  0  0  0  0  0  0  0  0  0
   -8.6212    2.2239   26.4073 C   0  0  0  0  0  0  0  0  0  0  0  0
   -8.2540    4.9237   27.1711 C   0  0  0  0  0  0  0  0  0  0  0  0
   -9.3729    4.5806   26.4433 C   0  0  0  0  0  0  0  0  0  0  0  0
   -9.5686    3.1037   26.1337 C   0  0  0  0  0  0  0  0  0  0  0  0
   -7.9878    6.2214   27.4792 N   0  0  0  0  0  0  0  0  0  0  0  0
   -8.8035    0.8298   26.1179 C   0  0  0  0  0  0  0  0  0  0  0  0
   -8.9463   -0.0783   27.0009 C   0  0  0  0  0  0  0  0  0  0  0  0
   -9.1620   -1.4640   26.7720 C   0  0  0  0  0  0  0  0  0  0  0  0
   -8.1306    0.3227   24.9611 C   0  0  0  0  0  0  0  0  0  0  0  0
   -8.2750   -0.9817   24.5070 C   0  0  0  0  0  0  0  0  0  0  0  0
   -8.7286   -1.8957   25.5187 C   0  0  0  0  0  0  0  0  0  0  0  0
   -8.3802    7.2800   26.7097 C   0  0  0  0  0  0  0  0  0  0  0  0
  -10.7394    2.8261   25.2952 C   0  0  0  0  0  0  0  0  0  0  0  0
  -10.8325    3.2147   24.0910 C   0  0  0  0  0  0  0  0  0  0  0  0
  -11.8932    2.9024   23.2102 C   0  0  0  0  0  0  0  0  0  0  0  0
  -12.8350    2.0267   23.7034 C   0  0  0  0  0  0  0  0  0  0  0  0
  -12.7087    1.5128   25.0042 C   0  0  0  0  0  0  0  0  0  0  0  0
  -11.6681    1.8983   25.8345 C   0  0  0  0  0  0  0  0  0  0  0  0
   -9.6407   -2.3954   27.7777 C   0  0  0  0  0  0  0  0  0  0  0  0
   -9.0905   -3.0434   28.5273 O   0  0  0  0  0  0  0  0  0  0  0  0
  -11.0540   -2.3553   27.8007 O   0  0  0  0  0  0  0  0  0  0  0  0
  -13.7326    0.5344   25.4899 C   0  0  0  0  0  0  0  0  0  0  0  0
  -14.2552    0.4736   26.5104 O   0  0  0  0  0  0  0  0  0  0  0  0
  -13.6528   -0.6109   24.7594 O   0  0  0  0  0  0  0  0  0  0  0  0
  -12.0011    3.4541   21.8884 C   0  0  0  0  0  0  0  0  0  0  0  0
  -11.3254    2.7637   20.9576 C   0  0  2  0  0  0  0  0  0  0  0  0
  -11.4454    2.0525   20.2245 C   0  0  0  0  0  0  0  0  0  0  0  0
  -11.5015    0.9940   20.1007 C   0  0  0  0  0  0  0  0  0  0  0  0
  -11.5791    0.0848   18.9698 C   0  0  0  0  0  0  0  0  0  0  0  0
  -11.8154    0.7057   17.7903 C   0  0  0  0  0  0  0  0  0  0  0  0
  -11.7792    2.0783   17.6574 C   0  0  0  0  0  0  0  0  0  0  0  0
  -11.5300    2.8225   18.7614 C   0  0  0  0  0  0  0  0  0  0  0  0
   -9.7497    3.1641   21.1856 C   0  0  0  0  0  0  0  0  0  0  0  0
   -6.5621    1.7653   27.5924 O   0  0  0  0  0  0  0  0  0  0  0  0
   -5.2719    2.0922   27.7295 C   0  0  0  0  0  0  0  0  0  0  0  0
   -4.5614    0.8676   28.3519 C   0  0  0  0  0  0  0  0  0  0  0  0
   -4.9312    0.5396   29.3598 N   0  0  0  0  0  0  0  0  0  0  0  0
   -4.2376   -0.4711   30.1842 C   0  0  0  0  0  0  0  0  0  0  0  0
  4  7  1  0
  3  8  1  0
  7 14  1  0
  6 15  1  0
 10 21  1  0
 21 22  2  0
 21 23  1  0
 19 24  1  0
 24 25  2  0
 24 26  1  0
 17 27  1  0
 27 28  1  0
 28 35  1  1
  2 36  1  0
 36 37  1  0
 37 38  1  0
 38 39  1  0
 39 40  1  0
 28 29  1  0
 15 16  2  0
 16 17  1  0
 17 18  2  0
 18 19  1  0
 19 20  2  0
 20 15  1  0
  8  9  2  0
  9 10  1  0
 10 13  2  0
 13 12  1  0
 12 11  2  0
 11  8  1  0
  1  2  2  0
  2  3  1  0
  3  6  2  0
  6  5  1  0
  5  4  2  0
  4  1  1  0
 29 30  2  0
 30 31  1  0
 31 32  2  0
 32 33  1  0
 33 34  2  0
 34 29  1  0
M  END
$$$$
