No_9392-complexes_sdf/6BKW-FPZ/2024-09-17-14-21-01/
     RDKit          3D

 15 16  0  0  0  0  0  0  0  0999 V2000
   -7.7129    4.2099   27.0854 C   0  0  0  0  0  0  0  0  0  0  0  0
   -8.2112    3.0637   26.9225 C   0  0  0  0  0  0  0  0  0  0  0  0
   -7.0021    4.5281   28.2396 C   0  0  0  0  0  0  0  0  0  0  0  0
   -7.5497    1.9016   27.4549 C   0  0  0  0  0  0  0  0  0  0  0  0
   -8.0831    0.6050   27.2852 C   0  0  0  0  0  0  0  0  0  0  0  0
   -7.4142   -0.4553   27.8488 C   0  0  0  0  0  0  0  0  0  0  0  0
   -9.1173    0.3503   26.2553 C   0  0  0  0  0  0  0  0  0  0  0  0
   -9.7523    1.3902   25.6930 C   0  0  0  0  0  0  0  0  0  0  0  0
   -9.2526    2.7844   25.9751 C   0  0  0  0  0  0  0  0  0  0  0  0
   -8.4494    5.3651   26.4896 C   0  0  0  0  0  0  0  0  0  0  0  0
   -8.2013    6.7368   26.9357 C   0  0  0  0  0  0  0  0  0  0  0  0
   -6.8759    5.9003   28.7732 C   0  0  0  0  0  0  0  0  0  0  0  0
   -7.4159    6.9088   28.0666 C   0  0  0  0  0  0  0  0  0  0  0  0
   -8.0913   -1.5848   28.3762 C   0  0  0  0  0  0  0  0  0  0  0  0
   -7.4562   -2.5810   29.1074 C   0  0  0  0  0  0  0  0  0  0  0  0
  1  2  1  0
  5  6  1  0
  6 14  2  3
 14 15  1  0
  1  3  2  0
  3 12  1  0
 12 13  2  0
 13 11  1  0
 11 10  2  0
 10  1  1  0
  2  4  2  0
  4  5  1  0
  5  7  2  0
  7  8  1  0
  8  9  2  0
  9  2  1  0
M  END
$$$$
