No_9470-complexes_sdf/6BKW-FPZ/2024-09-17-14-21-01/
     RDKit          3D

 28 31  0  0  0  0  0  0  0  0999 V2000
   -7.7129    4.2099   27.0854 C   0  0  0  0  0  0  0  0  0  0  0  0
   -8.9133    4.4736   27.0998 C   0  0  0  0  0  0  0  0  0  0  0  0
   -9.7937    3.7367   26.2091 C   0  0  0  0  0  0  0  0  0  0  0  0
   -6.8266    5.0441   28.0594 C   0  0  0  0  0  0  0  0  0  0  0  0
  -11.0884    4.1572   25.9278 C   0  0  0  0  0  0  0  0  0  0  0  0
  -11.6770    4.9422   26.9825 C   0  0  0  0  0  0  0  0  0  0  0  0
  -10.9362    5.5084   27.9806 C   0  0  0  0  0  0  0  0  0  0  0  0
   -9.5452    5.3326   28.0614 C   0  0  0  0  0  0  0  0  0  0  0  0
  -11.9312    3.5036   24.9551 C   0  0  0  0  0  0  0  0  0  0  0  0
  -11.8011    4.0625   23.6354 C   0  0  0  0  0  0  0  0  0  0  0  0
  -11.1730    3.5789   22.8832 C   0  0  0  0  0  0  0  0  0  0  0  0
  -10.8176    3.8100   21.8015 C   0  0  0  0  0  0  0  0  0  0  0  0
   -9.8748    3.1116   20.9294 C   0  0  0  0  0  0  0  0  0  0  0  0
   -9.3065    2.0042   21.5147 C   0  0  0  0  0  0  0  0  0  0  0  0
   -9.6171    1.6533   22.8521 C   0  0  0  0  0  0  0  0  0  0  0  0
  -10.4579    2.4409   23.5575 C   0  0  0  0  0  0  0  0  0  0  0  0
  -12.4428    2.3632   25.0083 C   0  0  0  0  0  0  0  0  0  0  0  0
  -13.3218    1.8965   26.0038 C   0  0  0  0  0  0  0  0  0  0  0  0
  -11.9326    1.4078   24.0420 C   0  0  0  0  0  0  0  0  0  0  0  0
  -12.9672    1.6876   27.3056 C   0  0  0  0  0  0  0  0  0  0  0  0
  -14.6783    1.7907   25.6303 C   0  0  0  0  0  0  0  0  0  0  0  0
  -13.6179    1.6396   28.3606 C   0  0  0  0  0  0  0  0  0  0  0  0
  -15.5577    1.5420   26.7819 C   0  0  0  0  0  0  0  0  0  0  0  0
  -15.0688    1.4430   28.1059 C   0  0  0  0  0  0  0  0  0  0  0  0
  -12.7599    1.1605   22.9102 C   0  0  0  0  0  0  0  0  0  0  0  0
  -13.0849   -0.2111   22.7573 C   0  0  0  0  0  0  0  0  0  0  0  0
  -14.0136   -0.5809   21.7806 C   0  0  0  0  0  0  0  0  0  0  0  0
  -14.3717   -1.8717   21.6511 C   0  0  0  0  0  0  0  0  0  0  0  0
  1  4  1  0
  5  9  1  0
 17 18  1  0
 19 25  1  0
 25 26  2  3
 26 27  1  0
 27 28  2  0
  1  2  1  0
 11 12  2  0
 12 13  1  0
 13 14  2  0
 14 15  1  0
 15 16  2  0
  9 10  2  0
 10 11  1  0
 11 16  1  0
 16 19  1  0
 19 17  2  0
 17  9  1  0
  2  3  2  0
  3  5  1  0
  5  6  2  0
  6  7  1  0
  7  8  2  0
  8  2  1  0
 18 20  2  0
 20 22  1  0
 22 24  2  0
 24 23  1  0
 23 21  2  0
 21 18  1  0
M  END
$$$$
