No_9784-complexes_sdf/6BKW-FPZ/2024-09-17-14-21-01/
     RDKit          3D

 40 43  0  0  0  0  0  0  0  0999 V2000
   -7.2496    3.8871   27.4508 C   0  0  0  0  0  0  0  0  0  0  0  0
   -7.9379    4.9063   27.8518 C   0  0  0  0  0  0  0  0  0  0  0  0
   -7.4895    6.2027   27.7481 C   0  0  0  0  0  0  0  0  0  0  0  0
   -7.4700    2.5429   27.5231 C   0  0  0  0  0  0  0  0  0  0  0  0
   -6.5934    1.5160   27.1801 C   0  0  0  0  0  0  0  0  0  0  0  0
   -7.0759    0.2640   27.1242 C   0  0  0  0  0  0  0  0  0  0  0  0
   -6.2389   -0.8576   27.0487 C   0  0  0  0  0  0  0  0  0  0  0  0
   -4.8671   -0.5558   26.9732 C   0  0  0  0  0  0  0  0  0  0  0  0
   -4.3748    0.7112   27.1648 C   0  0  0  0  0  0  0  0  0  0  0  0
   -5.1987    1.7436   27.4424 C   0  0  0  0  0  0  0  0  0  0  0  0
   -8.9038    2.3102   27.2457 C   0  0  0  0  0  0  0  0  0  0  0  0
   -9.3897    4.7106   28.0437 C   0  0  0  0  0  0  0  0  0  0  0  0
   -9.8320    3.3507   27.7810 C   0  0  0  0  0  0  0  0  0  0  0  0
  -11.2620    3.0135   27.9581 C   0  0  0  0  0  0  0  0  0  0  0  0
  -11.6038    1.7932   28.3939 C   0  0  0  0  0  0  0  0  0  0  0  0
  -12.9328    1.4103   28.6870 C   0  0  0  0  0  0  0  0  0  0  0  0
  -13.8872    2.4321   28.6843 C   0  0  0  0  0  0  0  0  0  0  0  0
  -13.5456    3.7285   28.3581 C   0  0  0  0  0  0  0  0  0  0  0  0
  -12.2170    4.0742   28.0752 C   0  0  0  0  0  0  0  0  0  0  0  0
  -14.5683    4.8405   28.3853 C   0  0  0  0  0  0  0  0  0  0  0  0
  -14.9403    5.3994   27.2029 C   0  0  0  0  0  0  0  0  0  0  0  0
  -15.8809    6.4696   27.2063 C   0  0  0  0  0  0  0  0  0  0  0  0
  -16.3131    7.0412   28.4270 C   0  0  0  0  0  0  0  0  0  0  0  0
  -15.8565    6.4411   29.6138 C   0  0  0  0  0  0  0  0  0  0  0  0
  -14.9932    5.4268   29.6242 C   0  0  0  0  0  0  0  0  0  0  0  0
   -3.0247    0.9257   27.2833 O   0  0  0  0  0  0  0  0  0  0  0  0
   -2.2554    0.2142   28.1941 C   0  0  0  0  0  0  0  0  0  0  0  0
   -7.3333    6.8544   28.8195 F   0  0  0  0  0  0  0  0  0  0  0  0
   -8.4638    7.0087   27.1391 F   0  0  0  0  0  0  0  0  0  0  0  0
   -6.4185    6.3332   27.0311 F   0  0  0  0  0  0  0  0  0  0  0  0
  -13.2418    0.0544   29.0848 C   0  0  0  0  0  0  0  0  0  0  0  0
  -13.9481   -0.4666   28.4195 O   0  0  0  0  0  0  0  0  0  0  0  0
  -12.6656   -0.5038   30.1058 O   0  0  0  0  0  0  0  0  0  0  0  0
  -14.3763    4.8597   25.7240 Cl  0  0  0  0  0  0  0  0  0  0  0  0
   -6.7502   -2.1745   26.7869 C   0  0  0  0  0  0  0  0  0  0  0  0
   -7.9545   -2.3883   26.9906 C   0  0  0  0  0  0  0  0  0  0  0  0
   -8.5397   -3.6556   26.8973 C   0  0  0  0  0  0  0  0  0  0  0  0
   -9.9510   -3.8091   27.2004 C   0  0  0  0  0  0  0  0  0  0  0  0
  -10.7519   -2.6577   27.5091 C   0  0  0  0  0  0  0  0  0  0  0  0
  -10.1857   -1.4243   27.5691 C   0  0  0  0  0  0  0  0  0  0  0  0
  2  3  1  0
 13 14  1  0
 18 20  1  0
  9 26  1  0
 26 27  1  0
  3 28  1  0
  3 29  1  0
  3 30  1  0
 16 31  1  0
 31 32  2  0
 31 33  1  0
 21 34  1  0
  7 35  1  0
 35 36  2  3
 36 37  1  0
 37 38  2  3
 38 39  1  0
 39 40  2  0
  5  4  1  0
 14 15  2  0
 15 16  1  0
 16 17  2  0
 17 18  1  0
 18 19  2  0
 19 14  1  0
  5  6  2  0
  6  7  1  0
  7  8  2  0
  8  9  1  0
  9 10  2  0
 10  5  1  0
  1  2  2  0
  2 12  1  0
 12 13  2  0
 13 11  1  0
 11  4  2  0
  4  1  1  0
 20 21  2  0
 21 22  1  0
 22 23  2  0
 23 24  1  0
 24 25  2  0
 25 20  1  0
M  END
$$$$
