No_9869-complexes_sdf/6BKW-FPZ/2024-09-17-14-21-01/
     RDKit          3D

 18 20  0  0  0  0  0  0  0  0999 V2000
   -7.9040    3.9820   27.1177 C   0  0  0  0  0  0  0  0  0  0  0  0
   -9.0711    4.3164   27.0630 C   0  0  0  0  0  0  0  0  0  0  0  0
   -9.9692    3.7224   26.1073 C   0  0  0  0  0  0  0  0  0  0  0  0
   -6.9787    4.6761   28.1003 C   0  0  0  0  0  0  0  0  0  0  0  0
   -9.4538    2.6801   25.3673 C   0  0  0  0  0  0  0  0  0  0  0  0
   -8.1927    2.1957   25.6621 C   0  0  0  0  0  0  0  0  0  0  0  0
   -7.4333    2.8255   26.6299 C   0  0  0  0  0  0  0  0  0  0  0  0
  -10.3066    1.9975   24.3777 C   0  0  0  0  0  0  0  0  0  0  0  0
  -10.6559    2.6408   23.2832 C   0  0  0  0  0  0  0  0  0  0  0  0
  -11.3742    2.0134   22.1919 C   0  0  0  0  0  0  0  0  0  0  0  0
  -11.5774    0.6233   22.3134 C   0  0  0  0  0  0  0  0  0  0  0  0
  -10.3032    0.6795   24.1384 C   0  0  0  0  0  0  0  0  0  0  0  0
  -10.9676   -0.0232   23.2433 C   0  0  0  0  0  0  0  0  0  0  0  0
   -5.7044    4.0776   28.2991 Cl  0  0  0  0  0  0  0  0  0  0  0  0
   -7.4798    5.9304   28.6417 C   0  0  0  0  0  0  0  0  0  0  0  0
  -10.5886    4.4037   23.1151 Cl  0  0  0  0  0  0  0  0  0  0  0  0
   -8.6989    6.4434   28.0375 C   0  0  0  0  0  0  0  0  0  0  0  0
   -9.5403    5.7196   27.3649 C   0  0  0  0  0  0  0  0  0  0  0  0
  5  8  1  0
  4 14  1  0
  9 16  1  0
  2 18  1  0
 18 17  2  0
 17 15  1  0
 15  4  2  0
  4  1  1  0
  8  9  2  0
  9 10  1  0
 10 11  2  0
 11 13  1  0
 13 12  2  0
 12  8  1  0
  1  2  1  0
  2  3  2  0
  3  5  1  0
  5  6  2  0
  6  7  1  0
  7  1  2  0
M  END
$$$$
