No_9267-complexes_sdf/6BKW-FPZ/2024-09-17-14-21-01/
     RDKit          3D

 24 26  0  0  0  0  0  0  0  0999 V2000
   -7.2496    3.8871   27.4508 C   0  0  0  0  0  0  0  0  0  0  0  0
   -7.9379    4.9063   27.8518 C   0  0  0  0  0  0  0  0  0  0  0  0
   -7.5112    6.1898   27.6280 C   0  0  0  0  0  0  0  0  0  0  0  0
   -9.3085    4.6933   28.2930 C   0  0  0  0  0  0  0  0  0  0  0  0
   -6.9424    2.7755   27.7937 C   0  0  0  0  0  0  0  0  0  0  0  0
   -5.9463    1.9089   27.5374 C   0  0  0  0  0  0  0  0  0  0  0  0
   -6.0413    0.5950   27.6008 C   0  0  0  0  0  0  0  0  0  0  0  0
   -7.2562   -0.0493   27.4804 C   0  0  0  0  0  0  0  0  0  0  0  0
   -8.4564    0.7139   27.3635 C   0  0  0  0  0  0  0  0  0  0  0  0
   -8.2926    2.0621   27.3760 C   0  0  0  0  0  0  0  0  0  0  0  0
   -4.7887   -0.2681   27.7623 C   0  0  0  0  0  0  0  0  0  0  0  0
   -3.8056    0.2102   28.0954 O   0  0  0  0  0  0  0  0  0  0  0  0
   -4.9140   -1.5485   27.5895 O   0  0  0  0  0  0  0  0  0  0  0  0
   -8.4421    7.2339   27.8355 C   0  0  0  0  0  0  0  0  0  0  0  0
   -9.8415    6.9415   27.5622 C   0  0  0  0  0  0  0  0  0  0  0  0
  -10.1826    5.6124   28.0237 C   0  0  0  0  0  0  0  0  0  0  0  0
   -9.6974    0.0591   27.3116 C   0  0  0  0  0  0  0  0  0  0  0  0
  -10.4363    0.0440   26.3787 C   0  0  0  0  0  0  0  0  0  0  0  0
  -10.1357    0.6860   25.1946 C   0  0  0  0  0  0  0  0  0  0  0  0
  -11.0543    0.8455   24.0562 C   0  0  0  0  0  0  0  0  0  0  0  0
  -10.6716    1.5543   22.9117 C   0  0  0  0  0  0  0  0  0  0  0  0
   -9.3706    2.0835   22.8376 C   0  0  0  0  0  0  0  0  0  0  0  0
   -8.5618    1.8853   23.9519 C   0  0  0  0  0  0  0  0  0  0  0  0
   -8.8618    1.2915   24.9729 C   0  0  0  0  0  0  0  0  0  0  0  0
  1  2  1  0
  1  5  1  0
  7 11  1  0
 11 12  2  0
 11 13  1  0
  9 17  1  0
 17 18  2  3
 18 19  1  0
  5  6  2  0
  6  7  1  0
  7  8  2  0
  8  9  1  0
  9 10  2  0
 10  5  1  0
 19 20  2  0
 20 21  1  0
 21 22  2  0
 22 23  1  0
 23 24  2  0
 24 19  1  0
  2  3  2  0
  3 14  1  0
 14 15  2  0
 15 16  1  0
 16  4  2  0
  4  2  1  0
M  END
$$$$
