No_9582-complexes_sdf/6BKW-FPZ/2024-09-17-14-21-01/
     RDKit          3D

 30 34  0  0  0  0  0  0  0  0999 V2000
   -7.9040    3.9820   27.1177 C   0  0  2  0  0  0  0  0  0  0  0  0
   -9.0711    4.3164   27.0630 C   0  0  0  0  0  0  0  0  0  0  0  0
   -9.5294    5.4517   27.7215 C   0  0  0  0  0  0  0  0  0  0  0  0
   -7.4336    2.7132   26.5681 C   0  0  0  0  0  0  0  0  0  0  0  0
   -8.3353    1.8569   26.0442 C   0  0  0  0  0  0  0  0  0  0  0  0
   -9.6477    2.2853   25.9146 C   0  0  0  0  0  0  0  0  0  0  0  0
  -10.0346    3.4497   26.4483 C   0  0  0  0  0  0  0  0  0  0  0  0
   -7.8750    0.5509   25.5918 C   0  0  0  0  0  0  0  0  0  0  0  0
   -8.1587    0.1717   24.4062 N   0  0  0  0  0  0  0  0  0  0  0  0
   -7.4162   -0.6990   23.7051 C   0  0  0  0  0  0  0  0  0  0  0  0
   -7.6754   -0.9346   22.3219 C   0  0  0  0  0  0  0  0  0  0  0  0
   -8.8361   -0.2229   21.9454 C   0  0  0  0  0  0  0  0  0  0  0  0
   -9.1250    0.6180   23.3473 C   0  0  0  0  0  0  0  0  0  0  0  0
   -7.2659   -0.1490   26.3566 O   0  0  0  0  0  0  0  0  0  0  0  0
   -6.8412    4.7380   27.9278 C   0  0  0  0  0  0  0  0  0  0  0  0
   -9.6366   -0.0424   20.9251 C   0  0  0  0  0  0  0  0  0  0  0  0
  -10.8764   -0.5343   21.1300 C   0  0  2  0  0  0  0  0  0  0  0  0
  -11.7625   -0.3646   20.0761 C   0  0  0  0  0  0  0  0  0  0  0  0
  -12.7373   -0.1853   19.8125 C   0  0  0  0  0  0  0  0  0  0  0  0
  -13.6167   -0.0014   20.9826 C   0  0  0  0  0  0  0  0  0  0  0  0
  -13.0128   -0.2637   22.2200 C   0  0  2  0  0  0  0  0  0  0  0  0
  -11.7051    0.2295   22.1851 C   0  0  0  0  0  0  0  0  0  0  0  0
  -10.9232   -1.9603   21.5574 C   0  0  0  0  0  0  0  0  0  0  0  0
  -10.3847   -2.8329   20.5922 C   0  0  0  0  0  0  0  0  0  0  0  0
  -11.9623   -2.4992   22.2987 C   0  0  0  0  0  0  0  0  0  0  0  0
  -11.6756   -3.8130   22.8092 C   0  0  0  0  0  0  0  0  0  0  0  0
  -10.1742   -4.1991   21.0143 C   0  0  0  0  0  0  0  0  0  0  0  0
  -10.9401   -4.6701   22.0139 C   0  0  0  0  0  0  0  0  0  0  0  0
  -12.8361   -1.6127   23.0919 C   0  0  2  0  0  0  0  0  0  0  0  0
  -13.7646   -1.8929   24.0501 C   0  0  0  0  0  0  0  0  0  0  0  0
  1  2  1  0
  2  3  2  0
  1  4  1  0
  4  5  1  0
  5  6  1  0
  2  7  1  0
  6  7  1  0
  5  8  1  0
  8  9  1  0
  9 10  1  0
 10 11  2  0
 11 12  1  0
  9 13  1  0
 12 13  1  0
  8 14  2  0
  1 15  1  1
 12 16  1  0
 17 16  1  6
 17 18  1  0
 19 20  1  0
 17 22  1  0
 21 22  1  0
 17 23  1  0
 21 29  1  0
 25 29  1  0
 29 30  1  6
 18 19  1  0
 21 20  1  6
 23 24  2  0
 24 27  1  0
 27 28  2  0
 28 26  1  0
 26 25  2  0
 25 23  1  0
M  END
$$$$
