No_9065-complexes_sdf/6BKW-FPZ/2024-09-17-14-21-01/
     RDKit          3D

 40 44  0  0  0  0  0  0  0  0999 V2000
   -7.9040    3.9820   27.1177 C   0  0  0  0  0  0  0  0  0  0  0  0
   -8.2057    2.8231   26.8733 C   0  0  0  0  0  0  0  0  0  0  0  0
   -8.7695    5.0740   26.7916 C   0  0  0  0  0  0  0  0  0  0  0  0
   -8.4337    6.4678   27.0913 C   0  0  0  0  0  0  0  0  0  0  0  0
   -9.3742    2.4311   26.2346 C   0  0  0  0  0  0  0  0  0  0  0  0
  -10.2395    3.4267   25.8887 C   0  0  0  0  0  0  0  0  0  0  0  0
   -9.9567    4.7548   26.1374 C   0  0  0  0  0  0  0  0  0  0  0  0
   -8.6915    7.3863   26.4306 O   0  0  0  0  0  0  0  0  0  0  0  0
   -7.7527    6.5444   28.2708 O   0  0  0  0  0  0  0  0  0  0  0  0
   -7.2528    1.6739   27.2811 C   0  0  0  0  0  0  0  0  0  0  0  0
   -7.5271    0.3324   27.1356 C   0  0  0  0  0  0  0  0  0  0  0  0
   -6.5907   -0.5584   27.5072 C   0  0  0  0  0  0  0  0  0  0  0  0
   -5.3553   -0.1367   28.0673 C   0  0  0  0  0  0  0  0  0  0  0  0
   -5.0984    1.2285   28.2063 C   0  0  0  0  0  0  0  0  0  0  0  0
   -5.9427    2.0985   27.8141 C   0  0  0  0  0  0  0  0  0  0  0  0
   -4.4672   -1.1114   28.5232 O   0  0  0  0  0  0  0  0  0  0  0  0
   -3.6892   -0.8571   29.5499 C   0  0  0  0  0  0  0  0  0  0  0  0
   -3.9170   -1.5418   30.7798 C   0  0  0  0  0  0  0  0  0  0  0  0
   -3.4959   -0.9643   31.9217 C   0  0  0  0  0  0  0  0  0  0  0  0
   -3.6830   -1.5429   33.2197 C   0  0  0  0  0  0  0  0  0  0  0  0
   -4.4212   -2.7245   33.2768 C   0  0  0  0  0  0  0  0  0  0  0  0
   -4.9071   -3.2378   32.0899 C   0  0  0  0  0  0  0  0  0  0  0  0
   -4.6920   -2.6540   30.9064 C   0  0  0  0  0  0  0  0  0  0  0  0
   -2.5858   -0.1786   29.3719 O   0  0  0  0  0  0  0  0  0  0  0  0
   -3.0663   -0.9058   34.4307 C   0  0  0  0  0  0  0  0  0  0  0  0
   -1.9912   -0.3316   34.3397 O   0  0  0  0  0  0  0  0  0  0  0  0
   -3.7035   -0.9682   35.5338 O   0  0  0  0  0  0  0  0  0  0  0  0
  -11.4726    3.1278   25.1162 C   0  0  0  0  0  0  0  0  0  0  0  0
  -11.3606    2.4617   23.9946 C   0  0  0  0  0  0  0  0  0  0  0  0
  -12.3471    2.3391   23.1200 C   0  0  0  0  0  0  0  0  0  0  0  0
  -13.6056    2.9582   23.4236 C   0  0  0  0  0  0  0  0  0  0  0  0
  -12.6722    3.8890   25.3301 C   0  0  0  0  0  0  0  0  0  0  0  0
  -13.7055    3.8010   24.5515 C   0  0  0  0  0  0  0  0  0  0  0  0
   -3.3999   -0.1639   36.5958 C   0  0  1  0  0  0  0  0  0  0  0  0
   -4.5527    0.2793   37.3570 C   0  0  0  0  0  0  0  0  0  0  0  0
   -4.4970    1.3631   38.2842 C   0  0  0  0  0  0  0  0  0  0  0  0
   -3.8480    1.4157   39.0577 C   0  0  0  0  0  0  0  0  0  0  0  0
   -2.9347    1.2613   39.4525 C   0  0  0  0  0  0  0  0  0  0  0  0
   -1.9229    0.5420   38.5856 C   0  0  0  0  0  0  0  0  0  0  0  0
   -2.1148   -0.1519   37.2792 C   0  0  0  0  0  0  0  0  0  0  0  0
  3  4  1  0
  4  8  2  0
  4  9  1  0
  2 10  1  0
 13 16  1  0
 16 17  1  0
 17 18  1  0
 17 24  2  0
 20 25  1  0
 25 26  2  0
 25 27  1  0
  6 28  1  0
 34 27  1  1
 34 35  1  0
 35 36  2  0
 36 37  1  0
 37 38  1  0
 38 39  2  0
 34 40  1  0
 39 40  1  0
 18 19  2  0
 19 20  1  0
 20 21  2  0
 21 22  1  0
 22 23  2  0
 23 18  1  0
 28 29  2  0
 29 30  1  0
 30 31  2  0
 31 33  1  0
 33 32  2  0
 32 28  1  0
  1  2  2  0
  2  5  1  0
  5  6  2  0
  6  7  1  0
  7  3  2  0
  3  1  1  0
 10 11  2  0
 11 12  1  0
 12 13  2  0
 13 14  1  0
 14 15  2  0
 15 10  1  0
M  END
$$$$
