No_9018-complexes_sdf/6BKW-FPZ/2024-09-17-14-21-01/
     RDKit          3D

 28 31  0  0  0  0  0  0  0  0999 V2000
   -7.7129    4.2099   27.0854 C   0  0  0  0  0  0  0  0  0  0  0  0
   -8.9133    4.4736   27.0998 C   0  0  0  0  0  0  0  0  0  0  0  0
   -9.4643    5.5426   27.7628 C   0  0  0  0  0  0  0  0  0  0  0  0
   -6.8373    4.9942   27.9785 C   0  0  0  0  0  0  0  0  0  0  0  0
   -7.3932    6.0303   28.6784 C   0  0  0  0  0  0  0  0  0  0  0  0
   -8.7122    6.3429   28.5485 C   0  0  0  0  0  0  0  0  0  0  0  0
   -9.7912    3.6118   26.1875 C   0  0  1  0  0  0  0  0  0  0  0  0
  -10.6866    2.7803   26.6116 C   0  0  0  0  0  0  0  0  0  0  0  0
  -10.7702    2.5854   28.1098 C   0  0  0  0  0  0  0  0  0  0  0  0
  -11.6805    1.6108   28.6763 C   0  0  0  0  0  0  0  0  0  0  0  0
  -12.3849    0.8120   27.7876 C   0  0  0  0  0  0  0  0  0  0  0  0
  -12.3029    0.9335   26.4245 C   0  0  0  0  0  0  0  0  0  0  0  0
  -11.4670    1.8743   25.9007 C   0  0  0  0  0  0  0  0  0  0  0  0
   -9.6628    3.8471   24.7612 C   0  0  0  0  0  0  0  0  0  0  0  0
  -10.4974    4.4094   24.0906 N   0  0  0  0  0  0  0  0  0  0  0  0
  -10.8278    4.1101   22.7876 C   0  0  0  0  0  0  0  0  0  0  0  0
  -11.8909    4.7479   22.2273 C   0  0  0  0  0  0  0  0  0  0  0  0
  -10.1766    3.1133   22.1264 C   0  0  0  0  0  0  0  0  0  0  0  0
  -10.4453    2.8205   20.7961 C   0  0  0  0  0  0  0  0  0  0  0  0
  -12.2273    4.4440   20.9159 C   0  0  0  0  0  0  0  0  0  0  0  0
  -11.5089    3.5016   20.1888 C   0  0  0  0  0  0  0  0  0  0  0  0
  -13.2872   -0.2088   28.3988 C   0  0  0  0  0  0  0  0  0  0  0  0
  -13.7458   -1.0505   27.7498 C   0  0  0  0  0  0  0  0  0  0  0  0
  -14.5278   -2.0881   28.3751 C   0  0  0  0  0  0  0  0  0  0  0  0
  -14.7382   -2.0503   29.7499 C   0  0  0  0  0  0  0  0  0  0  0  0
  -14.1742   -1.0922   30.5029 C   0  0  0  0  0  0  0  0  0  0  0  0
  -13.3727   -0.1304   29.9201 C   0  0  0  0  0  0  0  0  0  0  0  0
  -15.1585   -3.0375   27.6866 F   0  0  0  0  0  0  0  0  0  0  0  0
  2  7  1  0
  7 14  1  6
 14 15  1  0
 15 16  1  0
 11 22  1  0
 24 28  1  0
  7  8  1  0
 16 17  2  0
 17 20  1  0
 20 21  2  0
 21 19  1  0
 19 18  2  0
 18 16  1  0
  1  2  2  0
  2  3  1  0
  3  6  2  0
  6  5  1  0
  5  4  2  0
  4  1  1  0
 22 23  2  0
 23 24  1  0
 24 25  2  0
 25 26  1  0
 26 27  2  0
 27 22  1  0
  8  9  2  0
  9 10  1  0
 10 11  2  0
 11 12  1  0
 12 13  2  0
 13  8  1  0
M  END
$$$$
