No_9915-complexes_sdf/6BKW-FPZ/2024-09-17-14-21-01/
     RDKit          3D

 27 30  0  0  0  0  0  0  0  0999 V2000
   -7.2496    3.8871   27.4508 C   0  0  0  0  0  0  0  0  0  0  0  0
   -7.6161    2.7143   27.1523 C   0  0  0  0  0  0  0  0  0  0  0  0
   -6.9719    1.5838   27.5324 C   0  0  1  0  0  0  0  0  0  0  0  0
   -5.6316    1.7305   27.9933 C   0  0  0  0  0  0  0  0  0  0  0  0
   -4.9339    0.6009   28.3654 N   0  0  0  0  0  0  0  0  0  0  0  0
   -8.0227    5.0822   27.1346 C   0  0  0  0  0  0  0  0  0  0  0  0
   -9.1657    4.9883   26.3702 C   0  0  0  0  0  0  0  0  0  0  0  0
   -8.9294    2.6341   26.5591 C   0  0  0  0  0  0  0  0  0  0  0  0
   -9.6279    3.7074   26.1206 C   0  0  0  0  0  0  0  0  0  0  0  0
   -5.4617   -0.5539   28.5631 C   0  0  1  0  0  0  0  0  0  0  0  0
   -6.7839   -0.7410   28.1291 C   0  0  0  0  0  0  0  0  0  0  0  0
   -7.5263    0.3089   27.6427 C   0  0  0  0  0  0  0  0  0  0  0  0
   -7.4279    6.6661   27.5847 Cl  0  0  0  0  0  0  0  0  0  0  0  0
   -4.6563   -1.6502   29.0734 C   0  0  0  0  0  0  0  0  0  0  0  0
   -5.0582   -2.6520   29.3515 C   0  0  0  0  0  0  0  0  0  0  0  0
   -4.3012   -3.6958   29.9727 C   0  0  0  0  0  0  0  0  0  0  0  0
   -2.9342   -3.4257   30.2211 C   0  0  0  0  0  0  0  0  0  0  0  0
   -3.2661   -1.2305   29.4452 C   0  0  0  0  0  0  0  0  0  0  0  0
   -2.4246   -2.1446   29.9619 C   0  0  0  0  0  0  0  0  0  0  0  0
  -10.8469    3.5827   25.3229 C   0  0  0  0  0  0  0  0  0  0  0  0
  -10.8204    3.8056   23.9568 C   0  0  0  0  0  0  0  0  0  0  0  0
  -11.8916    3.9855   23.1588 C   0  0  0  0  0  0  0  0  0  0  0  0
  -13.1771    3.9129   23.7741 C   0  0  0  0  0  0  0  0  0  0  0  0
  -12.0981    3.5767   25.9642 C   0  0  0  0  0  0  0  0  0  0  0  0
  -13.2647    3.7631   25.1887 C   0  0  0  0  0  0  0  0  0  0  0  0
   -5.0047    2.8321   27.8455 O   0  0  0  0  0  0  0  0  0  0  0  0
  -14.2944    4.1047   23.0587 O   0  0  0  0  0  0  0  0  0  0  0  0
  3  2  1  1
  3  4  1  0
  4  5  1  0
 10 11  1  0
  3 12  1  0
  6 13  1  0
 10 14  1  6
  9 20  1  0
  4 26  2  0
 23 27  1  0
 12 11  1  0
 10  5  1  0
 14 15  2  0
 15 16  1  0
 16 17  2  0
 17 19  1  0
 19 18  2  0
 18 14  1  0
 20 21  2  0
 21 22  1  0
 22 23  2  0
 23 25  1  0
 25 24  2  0
 24 20  1  0
  1  2  2  0
  2  8  1  0
  8  9  2  0
  9  7  1  0
  7  6  2  0
  6  1  1  0
M  END
$$$$
