No_9140-complexes_sdf/6BKW-FPZ/2024-09-17-14-21-01/
     RDKit          3D

 28 32  0  0  0  0  0  0  0  0999 V2000
   -7.7129    4.2099   27.0854 C   0  0  0  0  0  0  0  0  0  0  0  0
   -7.7814    5.1722   27.8972 C   0  0  0  0  0  0  0  0  0  0  0  0
   -8.8998    3.8713   26.3707 C   0  0  0  0  0  0  0  0  0  0  0  0
   -8.9563    2.6796   25.5490 C   0  0  0  0  0  0  0  0  0  0  0  0
   -8.8131    6.0996   27.7331 C   0  0  0  0  0  0  0  0  0  0  0  0
   -9.8942    4.7752   26.3268 C   0  0  0  0  0  0  0  0  0  0  0  0
   -9.8180    5.9214   27.0054 C   0  0  0  0  0  0  0  0  0  0  0  0
   -8.3229    1.5829   26.0616 N   0  0  0  0  0  0  0  0  0  0  0  0
   -8.1837    0.4327   25.3730 C   0  0  0  0  0  0  0  0  0  0  0  0
   -7.2592   -0.5032   25.8681 C   0  0  0  0  0  0  0  0  0  0  0  0
   -6.5203   -0.2278   27.0618 C   0  0  1  0  0  0  0  0  0  0  0  0
   -6.6522    1.0404   27.6874 C   0  0  0  0  0  0  0  0  0  0  0  0
   -7.4791    1.9481   27.1664 C   0  0  1  0  0  0  0  0  0  0  0  0
   -7.3261    3.1748   27.5998 N   0  0  0  0  0  0  0  0  0  0  0  0
   -9.7535    2.5385   24.6196 O   0  0  0  0  0  0  0  0  0  0  0  0
   -6.7212    5.6096   28.6639 O   0  0  0  0  0  0  0  0  0  0  0  0
   -5.6744   -1.2984   27.6582 C   0  0  0  0  0  0  0  0  0  0  0  0
   -5.5596   -2.2771   27.2890 C   0  0  0  0  0  0  0  0  0  0  0  0
   -4.7353   -3.3235   27.8631 C   0  0  0  0  0  0  0  0  0  0  0  0
   -4.0769   -3.0159   29.0565 C   0  0  0  0  0  0  0  0  0  0  0  0
   -4.2523   -1.7468   29.6234 C   0  0  0  0  0  0  0  0  0  0  0  0
   -5.0057   -0.8409   28.9888 C   0  0  0  0  0  0  0  0  0  0  0  0
   -3.5538   -1.3459   30.8944 C   0  0  0  0  0  0  0  0  0  0  0  0
   -4.1511   -1.7490   32.1063 C   0  0  0  0  0  0  0  0  0  0  0  0
   -3.7249   -1.1593   33.2794 C   0  0  0  0  0  0  0  0  0  0  0  0
   -2.5600   -0.3144   33.3077 C   0  0  0  0  0  0  0  0  0  0  0  0
   -2.0938    0.0705   32.0348 N   0  0  0  0  0  0  0  0  0  0  0  0
   -2.5574   -0.3669   30.8981 C   0  0  0  0  0  0  0  0  0  0  0  0
  3  4  1  0
  4  8  1  0
  8  9  1  0
 10 11  1  0
  8 13  1  0
 13 12  1  6
  1 14  1  0
 13 14  1  0
  4 15  2  0
  2 16  1  0
 11 17  1  1
 21 23  1  0
  9 10  1  0
 11 12  1  0
 23 24  2  0
 24 25  1  0
 25 26  2  0
 26 27  1  0
 27 28  2  0
 28 23  1  0
 17 18  2  0
 18 19  1  0
 19 20  2  0
 20 21  1  0
 21 22  2  0
 22 17  1  0
  1  2  2  0
  2  5  1  0
  5  7  2  0
  7  6  1  0
  6  3  2  0
  3  1  1  0
M  END
$$$$
