No_9505-complexes_sdf/6BKW-FPZ/2024-09-17-14-21-01/
     RDKit          3D

 25 27  0  0  0  0  0  0  0  0999 V2000
   -7.2496    3.8871   27.4508 C   0  0  0  0  0  0  0  0  0  0  0  0
   -7.6161    2.7143   27.1523 C   0  0  0  0  0  0  0  0  0  0  0  0
   -8.6212    2.2239   26.4073 C   0  0  0  0  0  0  0  0  0  0  0  0
   -8.1953    4.9310   27.1292 C   0  0  0  0  0  0  0  0  0  0  0  0
   -9.3000    4.6721   26.3461 C   0  0  0  0  0  0  0  0  0  0  0  0
   -9.5494    3.3375   25.9684 C   0  0  0  0  0  0  0  0  0  0  0  0
   -7.8775    6.2111   27.4562 F   0  0  0  0  0  0  0  0  0  0  0  0
   -8.9030    0.9184   26.0625 C   0  0  0  0  0  0  0  0  0  0  0  0
   -9.8191    0.4317   25.6662 N   0  0  0  0  0  0  0  0  0  0  0  0
  -10.1080   -0.7644   25.3337 C   0  0  0  0  0  0  0  0  0  0  0  0
   -7.8452    0.1382   26.3160 O   0  0  0  0  0  0  0  0  0  0  0  0
   -9.5654   -1.7167   25.3591 C   0  0  0  0  0  0  0  0  0  0  0  0
   -9.9872   -3.0738   25.0212 C   0  0  0  0  0  0  0  0  0  0  0  0
  -11.2729   -3.1234   24.4970 C   0  0  0  0  0  0  0  0  0  0  0  0
  -12.0203   -2.0012   24.3477 C   0  0  0  0  0  0  0  0  0  0  0  0
  -11.5423   -0.7991   24.7422 C   0  0  0  0  0  0  0  0  0  0  0  0
  -11.8295   -4.4366   24.0819 C   0  0  0  0  0  0  0  0  0  0  0  0
  -12.7815   -4.6655   23.6108 N   0  0  0  0  0  0  0  0  0  0  0  0
  -11.1630   -5.5624   24.7340 C   0  0  0  0  0  0  0  0  0  0  0  0
  -11.6575   -6.8260   24.4082 C   0  0  0  0  0  0  0  0  0  0  0  0
  -13.3775   -5.7800   23.2276 C   0  0  0  0  0  0  0  0  0  0  0  0
  -12.7712   -6.9326   23.6877 C   0  0  0  0  0  0  0  0  0  0  0  0
  -10.9519   -8.0167   24.9252 C   0  0  0  0  0  0  0  0  0  0  0  0
  -10.4016   -7.9876   25.9523 O   0  0  0  0  0  0  0  0  0  0  0  0
  -11.2534   -9.1386   24.2958 O   0  0  0  0  0  0  0  0  0  0  0  0
  4  7  1  0
  3  8  1  0
  8  9  1  0
  9 10  1  0
  8 11  2  0
 14 17  1  0
 20 23  1  0
 23 24  2  0
 23 25  1  0
  1  2  2  0
  2  3  1  0
  3  6  2  0
  6  5  1  0
  5  4  2  0
  4  1  1  0
 17 18  2  0
 18 21  1  0
 21 22  2  0
 22 20  1  0
 20 19  2  0
 19 17  1  0
 10 12  2  0
 12 13  1  0
 13 14  2  0
 14 15  1  0
 15 16  2  0
 16 10  1  0
M  END
$$$$
