No_9991-complexes_sdf/6BKW-FPZ/2024-09-17-14-21-01/
     RDKit          3D

 15 16  0  0  0  0  0  0  0  0999 V2000
   -7.2496    3.8871   27.4508 C   0  0  0  0  0  0  0  0  0  0  0  0
   -7.6161    2.7143   27.1523 C   0  0  0  0  0  0  0  0  0  0  0  0
   -7.1619    1.8631   27.5232 C   0  0  0  0  0  0  0  0  0  0  0  0
   -8.0036    5.1085   27.2100 C   0  0  2  0  0  0  0  0  0  0  0  0
   -9.0765    5.1562   26.4023 C   0  0  0  0  0  0  0  0  0  0  0  0
   -9.5423    3.9741   25.8512 C   0  0  0  0  0  0  0  0  0  0  0  0
   -8.8464    2.7352   26.2620 C   0  0  0  0  0  0  0  0  0  0  0  0
   -7.5925    0.4293   27.3761 C   0  0  0  0  0  0  0  0  0  0  0  0
   -8.8064    0.3083   26.6947 C   0  0  0  0  0  0  0  0  0  0  0  0
   -9.4560    1.4926   26.0294 C   0  0  0  0  0  0  0  0  0  0  0  0
   -7.2994    6.2329   27.7370 N   0  0  0  0  0  0  0  0  0  0  0  0
  -10.6042    1.2760   25.2590 C   0  0  0  0  0  0  0  0  0  0  0  0
  -11.7223    1.6580   25.7627 C   0  0  0  0  0  0  0  0  0  0  0  0
  -12.0187    1.7724   26.9219 C   0  0  0  0  0  0  0  0  0  0  0  0
  -11.1790    1.2742   27.9976 C   0  0  0  0  0  0  0  0  0  0  0  0
  1  2  1  0
  1  4  1  0
  4  5  1  0
  5  6  1  0
  6  7  1  0
  4 11  1  6
 10 12  1  0
 12 13  1  0
 13 14  2  3
 14 15  1  0
  2  3  2  0
  3  8  1  0
  8  9  2  0
  9 10  1  0
 10  7  2  0
  7  2  1  0
M  END
$$$$
