No_9767-complexes_sdf/6BKW-FPZ/2024-09-17-14-21-01/
     RDKit          3D

 23 25  0  0  0  0  0  0  0  0999 V2000
   -7.7129    4.2099   27.0854 C   0  0  0  0  0  0  0  0  0  0  0  0
   -7.7814    5.1722   27.8972 C   0  0  0  0  0  0  0  0  0  0  0  0
   -8.8255    3.2789   27.1191 C   0  0  0  0  0  0  0  0  0  0  0  0
   -9.9209    3.4734   27.9101 C   0  0  0  0  0  0  0  0  0  0  0  0
   -9.9736    4.7085   28.6831 C   0  0  0  0  0  0  0  0  0  0  0  0
   -8.8840    5.5441   28.6612 C   0  0  0  0  0  0  0  0  0  0  0  0
   -8.7102    2.0171   26.3293 C   0  0  0  0  0  0  0  0  0  0  0  0
   -7.9282    0.9441   26.6637 C   0  0  0  0  0  0  0  0  0  0  0  0
   -7.8145   -0.1498   25.9000 C   0  0  0  0  0  0  0  0  0  0  0  0
   -9.3559    1.9918   25.1065 C   0  0  0  0  0  0  0  0  0  0  0  0
   -9.2614    0.9281   24.2398 C   0  0  0  0  0  0  0  0  0  0  0  0
   -8.4468   -0.1443   24.6586 C   0  0  0  0  0  0  0  0  0  0  0  0
  -11.0680    2.6087   27.9537 C   0  0  0  0  0  0  0  0  0  0  0  0
  -12.2548    2.8994   27.2857 C   0  0  0  0  0  0  0  0  0  0  0  0
  -13.3259    2.0334   27.2378 C   0  0  0  0  0  0  0  0  0  0  0  0
  -13.1357    0.7553   27.8692 C   0  0  0  0  0  0  0  0  0  0  0  0
  -11.9601    0.3840   28.4794 C   0  0  0  0  0  0  0  0  0  0  0  0
  -10.8937    1.3164   28.5318 C   0  0  0  0  0  0  0  0  0  0  0  0
   -9.9720    0.8787   22.9884 C   0  0  0  0  0  0  0  0  0  0  0  0
  -11.1918    0.6857   23.0278 N   0  0  0  0  0  0  0  0  0  0  0  0
  -12.1391    0.6599   22.3243 C   0  0  0  0  0  0  0  0  0  0  0  0
  -11.9762    0.9938   21.1356 C   0  0  0  0  0  0  0  0  0  0  0  0
  -12.9325    1.0901   20.1291 C   0  0  0  0  0  0  0  0  0  0  0  0
  3  7  1  0
  4 13  1  0
 11 19  1  0
 19 20  1  0
 20 21  1  0
 21 22  2  3
 22 23  1  0
 13 14  2  0
 14 15  1  0
 15 16  2  0
 16 17  1  0
 17 18  2  0
 18 13  1  0
  1  2  2  0
  2  6  1  0
  6  5  2  0
  5  4  1  0
  4  3  2  0
  3  1  1  0
  7  8  2  0
  8  9  1  0
  9 12  2  0
 12 11  1  0
 11 10  2  0
 10  7  1  0
M  END
$$$$
