No_9840-complexes_sdf/6BKW-FPZ/2024-09-17-14-21-01/
     RDKit          3D

 15 16  0  0  0  0  0  0  0  0999 V2000
   -7.9040    3.9820   27.1177 C   0  0  0  0  0  0  0  0  0  0  0  0
   -7.8663    4.8694   27.9238 C   0  0  0  0  0  0  0  0  0  0  0  0
   -9.0806    3.1428   27.1220 C   0  0  0  0  0  0  0  0  0  0  0  0
   -8.9544    1.8782   26.5467 C   0  0  0  0  0  0  0  0  0  0  0  0
   -8.9948    5.7403   28.1705 C   0  0  0  0  0  0  0  0  0  0  0  0
   -7.8336    1.3009   26.2700 C   0  0  0  0  0  0  0  0  0  0  0  0
  -10.2833    5.1099   27.9724 C   0  0  0  0  0  0  0  0  0  0  0  0
  -10.2524    3.7583   27.4028 C   0  0  0  0  0  0  0  0  0  0  0  0
   -7.7122   -0.0054   25.7754 C   0  0  0  0  0  0  0  0  0  0  0  0
  -10.1030    1.1962   26.1473 C   0  0  0  0  0  0  0  0  0  0  0  0
  -10.0709   -0.0724   25.6254 C   0  0  0  0  0  0  0  0  0  0  0  0
   -8.8234   -0.6538   25.4526 C   0  0  0  0  0  0  0  0  0  0  0  0
   -8.7367   -2.0400   24.8906 C   0  0  0  0  0  0  0  0  0  0  0  0
   -8.7816   -2.9929   25.5094 O   0  0  0  0  0  0  0  0  0  0  0  0
   -8.5121   -2.0823   23.5698 O   0  0  0  0  0  0  0  0  0  0  0  0
  3  4  1  0
 12 13  1  0
 13 14  1  0
 13 15  2  0
  1  2  2  0
  2  5  1  0
  5  7  2  0
  7  8  1  0
  8  3  2  0
  3  1  1  0
  4  6  2  0
  6  9  1  0
  9 12  2  0
 12 11  1  0
 11 10  2  0
 10  4  1  0
M  END
$$$$
