No_9621-complexes_sdf/6BKW-FPZ/2024-09-17-14-21-01/
     RDKit          3D

 18 20  0  0  0  0  0  0  0  0999 V2000
   -7.7129    4.2099   27.0854 C   0  0  0  0  0  0  0  0  0  0  0  0
   -7.7814    5.1722   27.8972 C   0  0  0  0  0  0  0  0  0  0  0  0
   -7.2983    2.9533   27.5684 C   0  0  0  0  0  0  0  0  0  0  0  0
   -7.6908    1.8111   26.9553 C   0  0  0  0  0  0  0  0  0  0  0  0
   -7.2237    0.5782   27.3450 C   0  0  0  0  0  0  0  0  0  0  0  0
   -7.9192   -0.5866   27.0520 C   0  0  0  0  0  0  0  0  0  0  0  0
   -9.0536   -0.4309   26.2277 C   0  0  0  0  0  0  0  0  0  0  0  0
   -9.4570    0.7633   25.7177 C   0  0  0  0  0  0  0  0  0  0  0  0
  -10.5493    0.9450   24.8867 C   0  0  0  0  0  0  0  0  0  0  0  0
   -8.7339    1.9031   26.1331 C   0  0  0  0  0  0  0  0  0  0  0  0
   -8.5101    6.3850   27.5598 C   0  0  0  0  0  0  0  0  0  0  0  0
  -10.7144    1.9133   24.1551 N   0  0  0  0  0  0  0  0  0  0  0  0
  -11.2856    2.1514   23.0839 C   0  0  0  0  0  0  0  0  0  0  0  0
  -11.2961    3.4416   22.4232 C   0  0  0  0  0  0  0  0  0  0  0  0
  -10.6433    4.4881   23.1126 C   0  0  0  0  0  0  0  0  0  0  0  0
  -10.0653    4.3252   24.3374 C   0  0  0  0  0  0  0  0  0  0  0  0
  -10.0848    3.1056   24.8987 C   0  0  2  0  0  0  0  0  0  0  0  0
   -9.1544    2.9529   25.8192 N   0  0  0  0  0  0  0  0  0  0  0  0
  1  2  2  3
  1  3  1  0
  3  4  1  0
  8  9  1  0
  2 11  1  0
  9 12  1  0
 12 13  1  0
 14 15  1  0
 12 17  1  0
 17 16  1  6
 10 18  1  0
 13 14  1  0
 15 16  1  0
 18 17  1  0
  4  5  2  0
  5  6  1  0
  6  7  2  0
  7  8  1  0
  8 10  2  0
 10  4  1  0
M  END
$$$$
