No_9969-complexes_sdf/6BKW-FPZ/2024-09-17-14-21-01/
     RDKit          3D

 12 12  0  0  0  0  0  0  0  0999 V2000
   -7.7129    4.2099   27.0854 C   0  0  0  0  0  0  0  0  0  0  0  0
   -8.2112    3.0637   26.9225 C   0  0  0  0  0  0  0  0  0  0  0  0
   -7.5138    1.9223   27.4249 C   0  0  0  0  0  0  0  0  0  0  0  0
   -6.5434    4.4363   27.9024 C   0  0  0  0  0  0  0  0  0  0  0  0
   -8.0049    0.5813   27.2334 C   0  0  0  0  0  0  0  0  0  0  0  0
   -5.7705    3.2822   28.1710 C   0  0  0  0  0  0  0  0  0  0  0  0
   -6.2650    2.0456   28.0026 C   0  0  0  0  0  0  0  0  0  0  0  0
   -7.3703   -0.4664   27.3033 C   0  0  0  0  0  0  0  0  0  0  0  0
   -7.3227   -1.5324   27.4665 C   0  0  0  0  0  0  0  0  0  0  0  0
   -6.3031   -2.5504   27.5515 C   0  0  0  0  0  0  0  0  0  0  0  0
   -5.0047   -2.0882   27.4580 C   0  0  0  0  0  0  0  0  0  0  0  0
   -4.7812   -0.7646   27.2084 C   0  0  0  0  0  0  0  0  0  0  0  0
  5  8  1  0
  8  9  2  3
  9 10  1  0
 10 11  2  3
 11 12  1  0
  5  3  1  0
  1  2  2  0
  2  3  1  0
  3  7  2  0
  7  6  1  0
  6  4  2  0
  4  1  1  0
M  END
$$$$
