No_9135-complexes_sdf/6BKW-FPZ/2024-09-17-14-21-01/
     RDKit          3D

 21 23  0  0  0  0  0  0  0  0999 V2000
   -7.9040    3.9820   27.1177 C   0  0  0  0  0  0  0  0  0  0  0  0
   -8.2057    2.8231   26.8733 C   0  0  0  0  0  0  0  0  0  0  0  0
   -7.4766    1.7477   27.4593 C   0  0  0  0  0  0  0  0  0  0  0  0
   -8.7468    5.1251   26.6967 C   0  0  0  0  0  0  0  0  0  0  0  0
   -9.6471    4.9075   26.0510 C   0  0  0  0  0  0  0  0  0  0  0  0
  -10.0309    3.6580   25.5399 C   0  0  0  0  0  0  0  0  0  0  0  0
   -9.2845    2.5302   26.0222 C   0  0  0  0  0  0  0  0  0  0  0  0
   -6.2167    1.9146   27.8900 N   0  0  0  0  0  0  0  0  0  0  0  0
   -7.9879    0.4597   27.7028 C   0  0  0  0  0  0  0  0  0  0  0  0
   -5.4129    0.8702   28.3122 C   0  0  0  0  0  0  0  0  0  0  0  0
   -5.9028   -0.3704   28.4680 C   0  0  0  0  0  0  0  0  0  0  0  0
   -5.1150   -1.3995   29.0195 C   0  0  0  0  0  0  0  0  0  0  0  0
   -7.2231   -0.5301   28.1943 C   0  0  0  0  0  0  0  0  0  0  0  0
   -8.3240    6.5241   27.1585 C   0  0  0  0  0  0  0  0  0  0  0  0
   -8.9596    7.5749   26.6654 N   0  0  0  0  0  0  0  0  0  0  0  0
   -7.1191    6.6539   27.8329 N   0  0  0  0  0  0  0  0  0  0  0  0
   -5.2529   -2.3072   29.5439 C   0  0  0  0  0  0  0  0  0  0  0  0
   -4.3195   -3.3097   30.1169 C   0  0  0  0  0  0  0  0  0  0  0  0
   -2.9678   -3.0190   29.9263 C   0  0  0  0  0  0  0  0  0  0  0  0
   -3.5428   -0.9931   28.9465 C   0  0  0  0  0  0  0  0  0  0  0  0
   -2.6006   -1.8346   29.3684 C   0  0  0  0  0  0  0  0  0  0  0  0
  2  3  1  0
 11 12  1  0
  4 14  1  0
 14 15  2  0
 14 16  1  0
  3  8  2  0
  8 10  1  0
 10 11  2  0
 11 13  1  0
 13  9  2  0
  9  3  1  0
  1  2  2  0
  2  7  1  0
  7  6  2  0
  6  5  1  0
  5  4  2  0
  4  1  1  0
 12 17  2  0
 17 18  1  0
 18 19  2  0
 19 21  1  0
 21 20  2  0
 20 12  1  0
M  END
$$$$
