No_9024-complexes_sdf/6BKW-FPZ/2024-09-17-14-21-01/
     RDKit          3D

 19 21  0  0  0  0  0  0  0  0999 V2000
   -7.2496    3.8871   27.4508 C   0  0  0  0  0  0  0  0  0  0  0  0
   -7.9379    4.9063   27.8518 C   0  0  0  0  0  0  0  0  0  0  0  0
   -8.7729    5.5444   27.0168 C   0  0  0  0  0  0  0  0  0  0  0  0
   -7.7708    3.0049   26.4155 C   0  0  0  0  0  0  0  0  0  0  0  0
   -9.4150    4.8195   25.9760 C   0  0  0  0  0  0  0  0  0  0  0  0
   -8.8843    3.5312   25.7385 C   0  0  0  0  0  0  0  0  0  0  0  0
   -9.4858    2.7961   24.6228 C   0  0  0  0  0  0  0  0  0  0  0  0
   -9.2590    1.5105   24.4633 C   0  0  0  0  0  0  0  0  0  0  0  0
  -10.5596    3.4006   23.9013 C   0  0  0  0  0  0  0  0  0  0  0  0
   -9.8024    0.8104   23.3815 C   0  0  0  0  0  0  0  0  0  0  0  0
  -11.1126    2.7500   22.8029 C   0  0  0  0  0  0  0  0  0  0  0  0
  -10.7591    1.4399   22.5529 C   0  0  0  0  0  0  0  0  0  0  0  0
   -6.2659    3.2868   28.1360 F   0  0  0  0  0  0  0  0  0  0  0  0
  -11.3493    0.7671   21.4941 N   0  0  0  0  0  0  0  0  0  0  0  0
  -12.3090   -0.1030   21.7378 C   0  0  0  0  0  0  0  0  0  0  0  0
  -12.8406   -0.7817   20.6671 C   0  0  0  0  0  0  0  0  0  0  0  0
  -10.8910    0.9448   20.1701 C   0  0  0  0  0  0  0  0  0  0  0  0
  -11.4012    0.3139   19.0876 C   0  0  0  0  0  0  0  0  0  0  0  0
  -12.4051   -0.5819   19.3367 C   0  0  0  0  0  0  0  0  0  0  0  0
  6  7  1  0
  1 13  1  0
 12 14  1  0
 14 15  1  0
 14 17  1  0
 16 19  1  0
 18 19  1  0
 15 16  1  0
 18 17  1  0
  1  2  2  0
  2  3  1  0
  3  5  2  0
  5  6  1  0
  6  4  2  0
  4  1  1  0
  7  8  2  0
  8 10  1  0
 10 12  2  0
 12 11  1  0
 11  9  2  0
  9  7  1  0
M  END
$$$$
