No_9127-complexes_sdf/6BKW-FPZ/2024-09-17-14-21-01/
     RDKit          3D

 26 28  0  0  0  0  0  0  0  0999 V2000
   -7.7129    4.2099   27.0854 C   0  0  0  0  0  0  0  0  0  0  0  0
   -7.7814    5.1722   27.8972 C   0  0  0  0  0  0  0  0  0  0  0  0
   -7.3155    2.9699   27.6145 C   0  0  0  0  0  0  0  0  0  0  0  0
   -7.9010    1.7962   27.2023 C   0  0  0  0  0  0  0  0  0  0  0  0
   -7.4186    0.5908   27.4662 C   0  0  0  0  0  0  0  0  0  0  0  0
   -8.5380    6.3719   27.5386 C   0  0  0  0  0  0  0  0  0  0  0  0
   -6.1096    0.4861   28.0096 C   0  0  0  0  0  0  0  0  0  0  0  0
   -5.3301    1.6667   28.1493 C   0  0  0  0  0  0  0  0  0  0  0  0
   -5.8582    2.8450   27.8312 C   0  0  0  0  0  0  0  0  0  0  0  0
   -8.8886    4.2803   26.2467 C   0  0  0  0  0  0  0  0  0  0  0  0
   -9.5209    5.3796   25.7391 C   0  0  0  0  0  0  0  0  0  0  0  0
   -9.2994    6.5322   26.5095 C   0  0  0  0  0  0  0  0  0  0  0  0
   -5.3268   -0.7552   28.2744 C   0  0  0  0  0  0  0  0  0  0  0  0
   -5.7832   -1.7867   28.1021 O   0  0  0  0  0  0  0  0  0  0  0  0
   -4.3539   -0.6321   29.1748 O   0  0  0  0  0  0  0  0  0  0  0  0
   -4.1454   -1.3422   30.1738 C   0  0  0  0  0  0  0  0  0  0  0  0
   -4.3520   -0.9614   31.2727 C   0  0  0  0  0  0  0  0  0  0  0  0
   -4.2221   -1.7776   32.5203 C   0  0  0  0  0  0  0  0  0  0  0  0
   -3.6142   -3.0294   32.3156 C   0  0  0  0  0  0  0  0  0  0  0  0
   -3.5168   -2.5964   29.9705 C   0  0  0  0  0  0  0  0  0  0  0  0
   -3.2390   -3.3967   31.0539 C   0  0  0  0  0  0  0  0  0  0  0  0
   -9.2145    3.1889   25.4207 F   0  0  0  0  0  0  0  0  0  0  0  0
   -4.6210   -1.2741   33.8766 C   0  0  0  0  0  0  0  0  0  0  0  0
   -4.7020   -1.8638   34.9304 N   0  0  0  0  0  0  0  0  0  0  0  0
   -4.3559   -2.9759   35.0622 C   0  0  0  0  0  0  0  0  0  0  0  0
   -4.7476   -3.4135   35.9617 C   0  0  0  0  0  0  0  0  0  0  0  0
  1  3  1  0
  7 13  1  0
 13 14  2  0
 13 15  1  0
 15 16  1  0
 10 22  1  0
 18 23  1  0
 23 24  2  3
 24 25  1  0
 25 26  2  0
  3  4  2  0
  4  5  1  0
  5  7  2  0
  7  8  1  0
  8  9  2  0
  9  3  1  0
  1  2  2  0
  2  6  1  0
  6 12  2  0
 12 11  1  0
 11 10  2  0
 10  1  1  0
 16 17  2  0
 17 18  1  0
 18 19  2  0
 19 21  1  0
 21 20  2  0
 20 16  1  0
M  END
$$$$
