No_9260-complexes_sdf/6BKW-FPZ/2024-09-17-14-21-01/
     RDKit          3D

 21 23  0  0  0  0  0  0  0  0999 V2000
   -7.2496    3.8871   27.4508 C   0  0  0  0  0  0  0  0  0  0  0  0
   -8.5096    4.0291   27.2770 C   0  0  0  0  0  0  0  0  0  0  0  0
   -9.2677    5.1714   27.5773 C   0  0  0  0  0  0  0  0  0  0  0  0
   -9.2765    2.8248   26.8371 C   0  0  2  0  0  0  0  0  0  0  0  0
  -10.4623    3.0171   26.3236 C   0  0  0  0  0  0  0  0  0  0  0  0
  -10.8972    2.6250   25.3350 C   0  0  0  0  0  0  0  0  0  0  0  0
  -10.0294    1.7957   24.4945 C   0  0  0  0  0  0  0  0  0  0  0  0
   -6.4963    4.9658   28.0859 C   0  0  0  0  0  0  0  0  0  0  0  0
   -8.9767    1.1891   25.1556 C   0  0  0  0  0  0  0  0  0  0  0  0
   -8.8144    1.5577   27.3814 C   0  0  0  0  0  0  0  0  0  0  0  0
   -8.3864    0.9389   26.2624 C   0  0  1  0  0  0  0  0  0  0  0  0
   -7.2364    6.1735   28.2919 C   0  0  0  0  0  0  0  0  0  0  0  0
   -8.5417    6.3289   27.9952 C   0  0  0  0  0  0  0  0  0  0  0  0
   -7.4694   -0.2239   26.4245 C   0  0  0  0  0  0  0  0  0  0  0  0
   -7.8963   -1.4291   26.8431 C   0  0  0  0  0  0  0  0  0  0  0  0
   -8.8860   -1.7726   27.1345 C   0  0  0  0  0  0  0  0  0  0  0  0
   -9.3068   -3.1053   27.6964 C   0  0  0  0  0  0  0  0  0  0  0  0
   -8.2735   -3.9888   27.7869 C   0  0  0  0  0  0  0  0  0  0  0  0
   -7.0292   -3.6579   27.4836 C   0  0  0  0  0  0  0  0  0  0  0  0
   -6.6801   -2.3754   27.0229 C   0  0  0  0  0  0  0  0  0  0  0  0
   -6.2333    0.2560   26.5377 O   0  0  0  0  0  0  0  0  0  0  0  0
  4  2  1  1
  4  5  1  0
  5  6  2  0
  6  7  1  0
  7  9  2  0
  4 10  1  0
  9 11  1  0
 10 11  1  0
 11 14  1  1
 14 15  1  0
 14 21  2  0
 15 16  2  0
 16 17  1  0
 17 18  2  0
 18 19  1  0
 19 20  2  0
 20 15  1  0
  1  2  2  0
  2  3  1  0
  3 13  2  0
 13 12  1  0
 12  8  2  0
  8  1  1  0
M  END
$$$$
