No_9637-complexes_sdf/6BKW-FPZ/2024-09-17-14-21-01/
     RDKit          3D

 32 35  0  0  0  0  0  0  0  0999 V2000
   -7.9040    3.9820   27.1177 C   0  0  1  0  0  0  0  0  0  0  0  0
   -8.2057    2.8231   26.8733 C   0  0  0  0  0  0  0  0  0  0  0  0
   -7.4766    1.7477   27.4593 C   0  0  0  0  0  0  0  0  0  0  0  0
   -8.7468    5.1251   26.6967 C   0  0  0  0  0  0  0  0  0  0  0  0
   -8.4775    6.4967   27.1056 C   0  0  1  0  0  0  0  0  0  0  0  0
   -7.7919    0.3946   27.2728 C   0  0  0  0  0  0  0  0  0  0  0  0
   -7.0057   -0.5912   27.8075 C   0  0  1  0  0  0  0  0  0  0  0  0
   -7.3743    6.4935   27.9661 N   0  0  0  0  0  0  0  0  0  0  0  0
   -7.0169    4.7062   27.9809 N   0  0  0  0  0  0  0  0  0  0  0  0
   -9.2633    2.3479   26.1388 C   0  0  0  0  0  0  0  0  0  0  0  0
   -9.5597    1.0632   25.8086 C   0  0  0  0  0  0  0  0  0  0  0  0
   -8.8066    0.0995   26.4159 C   0  0  0  0  0  0  0  0  0  0  0  0
   -5.5071   -0.2364   28.4368 Cl  0  0  0  0  0  0  0  0  0  0  0  0
   -7.4246   -1.9370   28.0498 C   0  0  0  0  0  0  0  0  0  0  0  0
   -7.9334   -2.3276   28.9566 N   0  0  0  0  0  0  0  0  0  0  0  0
   -8.7450   -3.3967   29.1725 C   0  0  0  0  0  0  0  0  0  0  0  0
   -9.3942   -3.5490   30.3588 C   0  0  0  0  0  0  0  0  0  0  0  0
   -8.9213   -2.7780   31.3581 C   0  0  0  0  0  0  0  0  0  0  0  0
   -7.8858   -1.9458   31.4253 C   0  0  0  0  0  0  0  0  0  0  0  0
   -7.3078   -1.6978   30.1513 C   0  0  0  0  0  0  0  0  0  0  0  0
   -7.0740   -2.6828   27.0609 O   0  0  0  0  0  0  0  0  0  0  0  0
   -9.0279    7.5635   26.7611 N   0  0  0  0  0  0  0  0  0  0  0  0
   -9.5810   -3.0492   32.8182 C   0  0  0  0  0  0  0  0  0  0  0  0
   -8.9069   -3.3009   33.8650 N   0  0  0  0  0  0  0  0  0  0  0  0
  -10.8599   -2.8734   32.8927 O   0  0  0  0  0  0  0  0  0  0  0  0
   -7.4879   -3.4621   33.9580 C   0  0  0  0  0  0  0  0  0  0  0  0
   -7.0382   -3.2780   35.2115 C   0  0  0  0  0  0  0  0  0  0  0  0
   -7.8845   -3.3488   36.3059 C   0  0  0  0  0  0  0  0  0  0  0  0
   -9.2251   -3.2337   36.1762 C   0  0  0  0  0  0  0  0  0  0  0  0
   -9.7385   -3.1681   34.9515 C   0  0  0  0  0  0  0  0  0  0  0  0
  -10.9998   -2.9814   34.7044 O   0  0  0  0  0  0  0  0  0  0  0  0
  -12.1786   -2.6743   35.0892 C   0  0  0  0  0  0  0  0  0  0  0  0
  1  4  1  0
  4  5  1  0
  5  8  1  0
  1  9  1  0
  8  9  1  0
  7 13  1  1
  7 14  1  0
 14 15  1  0
 15 16  1  0
 17 18  1  0
 15 20  1  0
 19 20  1  0
 14 21  2  0
  5 22  1  6
 18 23  1  0
 23 24  1  0
 23 25  2  0
 24 26  1  0
 27 28  1  0
 24 30  1  0
 29 30  1  0
 30 31  1  0
 31 32  1  0
  1  2  1  1
  7  6  1  0
 26 27  1  0
 28 29  1  0
 16 17  1  0
 18 19  1  0
  2  3  2  0
  3  6  1  0
  6 12  2  0
 12 11  1  0
 11 10  2  0
 10  2  1  0
M  END
$$$$
