No_9775-complexes_sdf/6BKW-FPZ/2024-09-17-14-21-01/
     RDKit          3D

 18 19  0  0  0  0  0  0  0  0999 V2000
   -7.9040    3.9820   27.1177 C   0  0  0  0  0  0  0  0  0  0  0  0
   -8.2057    2.8231   26.8733 C   0  0  0  0  0  0  0  0  0  0  0  0
   -8.7695    5.0740   26.7916 C   0  0  0  0  0  0  0  0  0  0  0  0
   -9.9618    4.7598   26.1630 C   0  0  0  0  0  0  0  0  0  0  0  0
   -9.4200    2.4524   26.2849 C   0  0  0  0  0  0  0  0  0  0  0  0
  -10.2590    3.4815   25.9250 C   0  0  0  0  0  0  0  0  0  0  0  0
   -8.1804    6.4174   27.1235 C   0  0  0  0  0  0  0  0  0  0  0  0
   -8.9656    7.5322   26.8904 N   0  0  0  0  0  0  0  0  0  0  0  0
   -7.0700    6.4722   27.7071 O   0  0  0  0  0  0  0  0  0  0  0  0
   -7.2957    1.6406   27.2623 C   0  0  0  0  0  0  0  0  0  0  0  0
   -7.6380    0.3756   27.1025 N   0  0  0  0  0  0  0  0  0  0  0  0
   -6.1423    1.9183   27.7259 O   0  0  0  0  0  0  0  0  0  0  0  0
   -6.7452   -0.7264   27.4668 C   0  0  0  0  0  0  0  0  0  0  0  0
   -7.3525   -1.7457   27.9318 C   0  0  0  0  0  0  0  0  0  0  0  0
   -6.7502   -2.4097   28.9378 C   0  0  0  0  0  0  0  0  0  0  0  0
   -5.3639   -2.2084   29.2583 C   0  0  0  0  0  0  0  0  0  0  0  0
   -4.7559   -1.0588   28.6646 C   0  0  0  0  0  0  0  0  0  0  0  0
   -5.4900   -0.2611   27.9122 C   0  0  0  0  0  0  0  0  0  0  0  0
  3  7  1  0
  7  8  1  0
  7  9  2  0
  2 10  1  0
 10 11  1  0
 10 12  2  0
 11 13  1  0
 13 14  2  0
 14 15  1  0
 15 16  2  0
 16 17  1  0
 17 18  2  0
 18 13  1  0
  1  2  2  0
  2  5  1  0
  5  6  2  0
  6  4  1  0
  4  3  2  0
  3  1  1  0
M  END
$$$$
