No_9587-complexes_sdf/6BKW-FPZ/2024-09-17-14-21-01/
     RDKit          3D

 19 20  0  0  0  0  0  0  0  0999 V2000
   -7.9040    3.9820   27.1177 C   0  0  0  0  0  0  0  0  0  0  0  0
   -8.2057    2.8231   26.8733 C   0  0  0  0  0  0  0  0  0  0  0  0
   -8.7695    5.0740   26.7916 C   0  0  0  0  0  0  0  0  0  0  0  0
   -8.4337    6.4678   27.0913 C   0  0  0  0  0  0  0  0  0  0  0  0
   -7.3775    1.6806   27.3986 C   0  0  0  0  0  0  0  0  0  0  0  0
   -7.6795    0.3394   27.2177 C   0  0  0  0  0  0  0  0  0  0  0  0
   -6.9317   -0.6286   27.8039 C   0  0  0  0  0  0  0  0  0  0  0  0
   -5.7202   -0.2551   28.4199 C   0  0  0  0  0  0  0  0  0  0  0  0
   -5.3006    1.0801   28.4292 C   0  0  0  0  0  0  0  0  0  0  0  0
   -6.0372    2.0526   27.9340 C   0  0  0  0  0  0  0  0  0  0  0  0
   -9.2190    7.4406   26.7285 N   0  0  0  0  0  0  0  0  0  0  0  0
   -9.2951    2.4880   26.0716 C   0  0  0  0  0  0  0  0  0  0  0  0
  -10.0938    3.5319   25.5316 C   0  0  0  0  0  0  0  0  0  0  0  0
   -9.7554    4.8593   25.9006 C   0  0  0  0  0  0  0  0  0  0  0  0
   -7.1305    6.7757   27.4485 N   0  0  0  0  0  0  0  0  0  0  0  0
   -4.8417   -1.3357   29.0070 C   0  0  0  0  0  0  0  0  0  0  0  0
   -4.9801   -2.2000   29.7211 F   0  0  0  0  0  0  0  0  0  0  0  0
   -4.1306   -1.9009   27.8250 F   0  0  0  0  0  0  0  0  0  0  0  0
   -3.6684   -0.6592   29.6166 F   0  0  0  0  0  0  0  0  0  0  0  0
  3  4  1  0
  4 11  2  0
  4 15  1  0
  8 16  1  0
 16 17  1  0
 16 18  1  0
 16 19  1  0
  5  2  1  0
  1  2  2  0
  2 12  1  0
 12 13  2  0
 13 14  1  0
 14  3  2  0
  3  1  1  0
  5  6  2  0
  6  7  1  0
  7  8  2  0
  8  9  1  0
  9 10  2  0
 10  5  1  0
M  END
$$$$
