No_9218-complexes_sdf/6BKW-FPZ/2024-09-17-14-21-01/
     RDKit          3D

 18 18  0  0  0  0  0  0  0  0999 V2000
   -7.2496    3.8871   27.4508 C   0  0  0  0  0  0  0  0  0  0  0  0
   -7.6161    2.7143   27.1523 C   0  0  0  0  0  0  0  0  0  0  0  0
   -6.9719    1.5838   27.5324 C   0  0  0  0  0  0  0  0  0  0  0  0
   -7.4590    0.2827   27.2615 C   0  0  0  0  0  0  0  0  0  0  0  0
   -8.6787    2.5578   26.1663 C   0  0  0  0  0  0  0  0  0  0  0  0
   -9.1184    1.2615   25.8299 C   0  0  0  0  0  0  0  0  0  0  0  0
   -6.7985   -0.8541   27.8684 C   0  0  0  0  0  0  0  0  0  0  0  0
  -10.1968    1.1448   24.9484 C   0  0  0  0  0  0  0  0  0  0  0  0
   -8.5005    0.2245   26.4014 C   0  0  0  0  0  0  0  0  0  0  0  0
   -8.0058    5.1529   27.2798 C   0  0  0  0  0  0  0  0  0  0  0  0
   -9.2880    5.2670   27.3331 C   0  0  0  0  0  0  0  0  0  0  0  0
   -9.8284    6.6265   27.1933 C   0  0  0  0  0  0  0  0  0  0  0  0
  -11.4351    1.5551   25.2201 C   0  0  0  0  0  0  0  0  0  0  0  0
  -11.9198    1.7586   26.0973 C   0  0  0  0  0  0  0  0  0  0  0  0
  -13.3063    2.2841   26.4035 C   0  0  0  0  0  0  0  0  0  0  0  0
  -13.8544    2.5673   27.6803 C   0  0  0  0  0  0  0  0  0  0  0  0
  -12.9927    2.4036   28.8181 C   0  0  0  0  0  0  0  0  0  0  0  0
  -11.6590    2.0049   28.6334 C   0  0  0  0  0  0  0  0  0  0  0  0
  1  2  2  3
  2  3  1  0
  3  4  1  0
  2  5  1  0
  5  6  1  0
  4  7  1  0
  6  8  1  0
  4  9  1  0
  6  9  1  0
  1 10  1  0
 10 11  2  3
 11 12  1  0
  8 13  1  0
 13 14  2  3
 14 15  1  0
 15 16  2  3
 16 17  1  0
 17 18  2  0
M  END
$$$$
