No_9707-complexes_sdf/6BKW-FPZ/2024-09-17-14-21-01/
     RDKit          3D

 12 13  0  0  0  0  0  0  0  0999 V2000
   -7.9040    3.9820   27.1177 C   0  0  0  0  0  0  0  0  0  0  0  0
   -7.8663    4.8694   27.9238 C   0  0  0  0  0  0  0  0  0  0  0  0
   -9.0501    3.8017   26.2617 C   0  0  0  0  0  0  0  0  0  0  0  0
  -10.0189    4.7608   26.3707 C   0  0  0  0  0  0  0  0  0  0  0  0
   -8.6973    5.9722   27.8968 C   0  0  0  0  0  0  0  0  0  0  0  0
   -9.8216    5.8946   27.1241 C   0  0  0  0  0  0  0  0  0  0  0  0
   -9.3622    2.6765   25.4475 C   0  0  0  0  0  0  0  0  0  0  0  0
  -10.2192    1.9211   25.8429 C   0  0  0  0  0  0  0  0  0  0  0  0
  -10.3919    0.7104   25.1364 C   0  0  0  0  0  0  0  0  0  0  0  0
   -9.9587    0.2806   24.3149 C   0  0  0  0  0  0  0  0  0  0  0  0
   -8.8856    1.2138   23.6355 C   0  0  0  0  0  0  0  0  0  0  0  0
   -8.5685    2.3581   24.2962 C   0  0  0  0  0  0  0  0  0  0  0  0
  3  7  1  0
  1  2  2  0
  2  5  1  0
  5  6  2  0
  6  4  1  0
  4  3  2  0
  3  1  1  0
  7  8  2  0
  8  9  1  0
  9 10  2  0
 10 11  1  0
 11 12  2  0
 12  7  1  0
M  END
$$$$
