No_9013-complexes_sdf/6BKW-FPZ/2024-09-17-14-21-01/
     RDKit          3D

 18 20  0  0  0  0  0  0  0  0999 V2000
   -7.9040    3.9820   27.1177 C   0  0  0  0  0  0  0  0  0  0  0  0
   -7.8663    4.8694   27.9238 C   0  0  0  0  0  0  0  0  0  0  0  0
   -9.0491    3.8523   26.2542 C   0  0  0  0  0  0  0  0  0  0  0  0
   -8.7661    5.9491   27.9690 C   0  0  0  0  0  0  0  0  0  0  0  0
   -9.9295    4.8502   26.2323 C   0  0  0  0  0  0  0  0  0  0  0  0
   -9.8077    5.9288   27.0933 C   0  0  0  0  0  0  0  0  0  0  0  0
   -6.7232    2.6940   27.3813 Cl  0  0  0  0  0  0  0  0  0  0  0  0
   -9.0694    2.7600   25.3786 N   0  0  0  0  0  0  0  0  0  0  0  0
   -8.8743    1.5523   25.6949 C   0  0  0  0  0  0  0  0  0  0  0  0
   -8.7943    0.6108   24.6393 C   0  0  0  0  0  0  0  0  0  0  0  0
   -9.7179    2.9754   24.1246 C   0  0  0  0  0  0  0  0  0  0  0  0
   -9.8152    2.0589   23.1916 C   0  0  0  0  0  0  0  0  0  0  0  0
   -9.3340    0.8103   23.4534 C   0  0  0  0  0  0  0  0  0  0  0  0
  -10.3789    2.3671   21.8502 C   0  0  0  0  0  0  0  0  0  0  0  0
  -10.9265    1.4465   21.0659 C   0  0  0  0  0  0  0  0  0  0  0  0
  -10.4774    0.0737   21.4027 C   0  0  0  0  0  0  0  0  0  0  0  0
   -9.6863   -0.2104   22.5417 C   0  0  0  0  0  0  0  0  0  0  0  0
  -10.1232    4.2651   23.9636 O   0  0  0  0  0  0  0  0  0  0  0  0
  1  7  1  0
  3  8  1  0
  8  9  1  0
  8 11  1  0
 11 12  1  0
 10 13  1  0
 11 18  2  0
  9 10  1  0
 12 14  2  0
 14 15  1  0
 15 16  2  0
 16 17  1  0
 17 13  2  0
 13 12  1  0
  1  2  2  0
  2  4  1  0
  4  6  2  0
  6  5  1  0
  5  3  2  0
  3  1  1  0
M  END
$$$$
