No_9400-complexes_sdf/6BKW-FPZ/2024-09-17-14-21-01/
     RDKit          3D

 27 30  0  0  0  0  0  0  0  0999 V2000
   -7.2496    3.8871   27.4508 C   0  0  0  0  0  0  0  0  0  0  0  0
   -7.6161    2.7143   27.1523 C   0  0  0  0  0  0  0  0  0  0  0  0
   -6.9719    1.5838   27.5324 C   0  0  0  0  0  0  0  0  0  0  0  0
   -5.6316    1.7305   27.9933 C   0  0  0  0  0  0  0  0  0  0  0  0
   -5.8952    4.0984   27.9705 C   0  0  0  0  0  0  0  0  0  0  0  0
   -5.1627    3.0216   28.2671 C   0  0  0  0  0  0  0  0  0  0  0  0
   -8.0902    5.0888   27.1966 C   0  0  0  0  0  0  0  0  0  0  0  0
   -9.2027    5.0955   26.3260 C   0  0  0  0  0  0  0  0  0  0  0  0
   -7.7402    6.3362   27.8825 C   0  0  0  0  0  0  0  0  0  0  0  0
   -4.8014    0.5714   28.2612 C   0  0  0  0  0  0  0  0  0  0  0  0
   -3.5637    0.5888   28.5181 N   0  0  0  0  0  0  0  0  0  0  0  0
   -5.4133   -0.7472   28.4140 C   0  0  0  0  0  0  0  0  0  0  0  0
   -8.4686    7.4907   27.4442 C   0  0  0  0  0  0  0  0  0  0  0  0
   -4.6862   -1.7190   28.9718 C   0  0  0  0  0  0  0  0  0  0  0  0
   -2.7273   -0.2732   29.0295 C   0  0  0  0  0  0  0  0  0  0  0  0
   -3.2742   -1.5172   29.1864 C   0  0  0  0  0  0  0  0  0  0  0  0
   -9.7323    3.8927   25.9462 C   0  0  0  0  0  0  0  0  0  0  0  0
   -8.9344    2.5987   26.3963 C   0  0  0  0  0  0  0  0  0  0  0  0
   -9.4080    1.3110   25.9287 C   0  0  0  0  0  0  0  0  0  0  0  0
   -9.5631    1.0911   24.6837 C   0  0  0  0  0  0  0  0  0  0  0  0
   -9.9081   -0.1903   24.1464 C   0  0  0  0  0  0  0  0  0  0  0  0
  -10.0168   -1.2233   25.0257 C   0  0  0  0  0  0  0  0  0  0  0  0
   -9.8112   -1.0134   26.3839 C   0  0  0  0  0  0  0  0  0  0  0  0
   -9.4530    0.2443   26.9001 C   0  0  0  0  0  0  0  0  0  0  0  0
   -2.4761   -2.5868   29.7792 C   0  0  0  0  0  0  0  0  0  0  0  0
   -2.7468   -3.2547   30.5941 O   0  0  0  0  0  0  0  0  0  0  0  0
   -1.1610   -2.3995   29.4577 O   0  0  0  0  0  0  0  0  0  0  0  0
  7  9  1  0
  4 10  1  0
  9 13  1  0
 18 19  1  0
 16 25  1  0
 25 26  2  0
 25 27  1  0
  2 18  1  0
 18 17  2  0
 17  8  1  0
  8  7  2  0
  7  1  1  0
  1  2  1  0
  2  3  2  0
  3  4  1  0
  4  6  2  0
  6  5  1  0
  5  1  2  0
 10 11  2  0
 11 15  1  0
 15 16  2  0
 16 14  1  0
 14 12  2  0
 12 10  1  0
 19 20  2  0
 20 21  1  0
 21 22  2  0
 22 23  1  0
 23 24  2  0
 24 19  1  0
M  END
$$$$
