No_9115-complexes_sdf/6BKW-FPZ/2024-09-17-14-21-01/
     RDKit          3D

 25 28  0  0  0  0  0  0  0  0999 V2000
   -7.7129    4.2099   27.0854 C   0  0  0  0  0  0  0  0  0  0  0  0
   -7.7814    5.1722   27.8972 C   0  0  0  0  0  0  0  0  0  0  0  0
   -8.7889    3.2468   27.2220 C   0  0  0  0  0  0  0  0  0  0  0  0
   -8.5940    1.9755   26.6525 C   0  0  0  0  0  0  0  0  0  0  0  0
   -7.5537    1.2112   27.0910 C   0  0  0  0  0  0  0  0  0  0  0  0
   -9.0671    5.9088   28.0133 C   0  0  0  0  0  0  0  0  0  0  0  0
   -7.3320   -0.0917   26.6655 C   0  0  0  0  0  0  0  0  0  0  0  0
   -9.9806    3.6886   27.7330 C   0  0  0  0  0  0  0  0  0  0  0  0
  -11.1052    2.7953   27.8887 C   0  0  0  0  0  0  0  0  0  0  0  0
  -10.1344    4.9939   28.2127 C   0  0  0  0  0  0  0  0  0  0  0  0
   -8.3174   -0.6271   25.8731 C   0  0  0  0  0  0  0  0  0  0  0  0
   -9.5365    1.3354   25.8795 C   0  0  0  0  0  0  0  0  0  0  0  0
   -9.3519    0.0967   25.3818 C   0  0  0  0  0  0  0  0  0  0  0  0
  -11.3060    1.7445   27.9271 C   0  0  0  0  0  0  0  0  0  0  0  0
  -12.4654    0.9632   28.3623 C   0  0  0  0  0  0  0  0  0  0  0  0
  -13.4331    1.7367   28.8646 C   0  0  0  0  0  0  0  0  0  0  0  0
  -13.3667    3.0906   28.9958 C   0  0  0  0  0  0  0  0  0  0  0  0
  -12.2178    3.7015   28.6109 C   0  0  0  0  0  0  0  0  0  0  0  0
  -10.3378   -0.4855   24.4766 C   0  0  0  0  0  0  0  0  0  0  0  0
  -11.1739    0.3357   23.9254 C   0  0  0  0  0  0  0  0  0  0  0  0
  -12.1717   -0.1698   23.0400 C   0  0  0  0  0  0  0  0  0  0  0  0
  -13.1808    0.6914   22.5035 C   0  0  0  0  0  0  0  0  0  0  0  0
  -13.1284    2.0412   22.8605 C   0  0  0  0  0  0  0  0  0  0  0  0
  -12.2437    2.5535   23.7497 C   0  0  0  0  0  0  0  0  0  0  0  0
  -11.3378    1.7702   24.3072 C   0  0  0  0  0  0  0  0  0  0  0  0
  3  4  1  0
  8  9  1  0
 13 19  1  0
 19 20  1  0
 20 21  2  0
 21 22  1  0
 22 23  2  0
 23 24  1  0
 24 25  2  0
 25 20  1  0
  9 14  2  0
 14 15  1  0
 15 16  2  0
 16 17  1  0
 17 18  2  0
 18  9  1  0
  1  2  2  0
  2  6  1  0
  6 10  2  0
 10  8  1  0
  8  3  2  0
  3  1  1  0
  4  5  2  0
  5  7  1  0
  7 11  2  0
 11 13  1  0
 13 12  2  0
 12  4  1  0
M  END
$$$$
