No_9612-complexes_sdf/6BKW-FPZ/2024-09-17-14-21-01/
     RDKit          3D

 14 14  0  0  0  0  0  0  0  0999 V2000
   -7.9040    3.9820   27.1177 C   0  0  0  0  0  0  0  0  0  0  0  0
   -9.0711    4.3164   27.0630 C   0  0  0  0  0  0  0  0  0  0  0  0
   -9.8698    3.9665   25.9495 C   0  0  0  0  0  0  0  0  0  0  0  0
   -7.0332    4.5030   28.2025 C   0  0  0  0  0  0  0  0  0  0  0  0
   -9.4357    2.9501   25.1393 C   0  0  0  0  0  0  0  0  0  0  0  0
   -8.2567    2.3218   25.4797 C   0  0  0  0  0  0  0  0  0  0  0  0
   -7.5105    2.7966   26.5752 C   0  0  0  0  0  0  0  0  0  0  0  0
  -10.3743    2.6618   24.0569 C   0  0  0  0  0  0  0  0  0  0  0  0
  -10.8626    3.5685   23.3998 F   0  0  0  0  0  0  0  0  0  0  0  0
   -9.4545    2.0573   23.0801 F   0  0  0  0  0  0  0  0  0  0  0  0
  -11.2167    1.7093   24.3465 F   0  0  0  0  0  0  0  0  0  0  0  0
   -7.6666    5.2633   29.0833 F   0  0  0  0  0  0  0  0  0  0  0  0
   -6.0431    5.3865   27.6420 F   0  0  0  0  0  0  0  0  0  0  0  0
   -6.1997    3.5805   28.6339 F   0  0  0  0  0  0  0  0  0  0  0  0
  1  4  1  0
  5  8  1  0
  8  9  1  0
  8 10  1  0
  8 11  1  0
  4 12  1  0
  4 13  1  0
  4 14  1  0
  1  2  2  0
  2  3  1  0
  3  5  2  0
  5  6  1  0
  6  7  2  0
  7  1  1  0
M  END
$$$$
