No_9639-complexes_sdf/6BKW-FPZ/2024-09-17-14-21-01/
     RDKit          3D

 40 44  0  0  0  0  0  0  0  0999 V2000
   -7.2496    3.8871   27.4508 C   0  0  0  0  0  0  0  0  0  0  0  0
   -7.9379    4.9063   27.8518 C   0  0  0  0  0  0  0  0  0  0  0  0
   -7.5112    6.1898   27.6280 C   0  0  0  0  0  0  0  0  0  0  0  0
   -9.3085    4.6933   28.2930 C   0  0  0  0  0  0  0  0  0  0  0  0
   -7.7804    2.5137   27.6844 C   0  0  0  0  0  0  0  0  0  0  0  0
   -9.1546    2.3398   27.7350 C   0  0  0  0  0  0  0  0  0  0  0  0
   -9.8867    3.4718   28.2310 C   0  0  0  0  0  0  0  0  0  0  0  0
   -6.9583    1.3805   27.1142 C   0  0  1  0  0  0  0  0  0  0  0  0
   -6.8639    0.3138   28.0245 C   0  0  0  0  0  0  0  0  0  0  0  0
   -5.7899   -0.5817   27.8357 C   0  0  0  0  0  0  0  0  0  0  0  0
   -4.8850   -0.6267   28.5995 C   0  0  0  0  0  0  0  0  0  0  0  0
   -3.5335   -1.1127   28.4330 C   0  0  0  0  0  0  0  0  0  0  0  0
   -3.3346   -1.7898   27.2365 C   0  0  0  0  0  0  0  0  0  0  0  0
   -4.3427   -1.7628   26.2975 C   0  0  0  0  0  0  0  0  0  0  0  0
   -5.5414   -1.0536   26.5240 C   0  0  0  0  0  0  0  0  0  0  0  0
  -11.2635    3.0362   28.5757 C   0  0  0  0  0  0  0  0  0  0  0  0
  -12.1716    4.0966   28.9465 C   0  0  0  0  0  0  0  0  0  0  0  0
  -12.1401    5.2201   28.3059 C   0  0  0  0  0  0  0  0  0  0  0  0
  -13.4957    3.6103   29.4442 C   0  0  0  0  0  0  0  0  0  0  0  0
  -14.5783    4.3624   29.4452 C   0  0  0  0  0  0  0  0  0  0  0  0
  -14.4960    5.6341   28.7250 C   0  0  0  0  0  0  0  0  0  0  0  0
  -13.3146    6.0548   28.1820 C   0  0  0  0  0  0  0  0  0  0  0  0
   -8.0307    7.2904   26.8313 C   0  0  0  0  0  0  0  0  0  0  0  0
   -9.2555    7.1537   26.3295 N   0  0  0  0  0  0  0  0  0  0  0  0
   -7.3645    8.2930   26.7069 O   0  0  0  0  0  0  0  0  0  0  0  0
   -6.4564   -0.9641   25.4194 C   0  0  0  0  0  0  0  0  0  0  0  0
   -7.6473   -0.5598   25.5514 C   0  0  0  0  0  0  0  0  0  0  0  0
   -7.7409    0.8958   25.8707 C   0  0  0  0  0  0  0  0  0  0  0  0
   -5.9864   -1.3333   24.0868 C   0  0  0  0  0  0  0  0  0  0  0  0
   -6.0102   -0.5805   23.2085 O   0  0  0  0  0  0  0  0  0  0  0  0
   -6.0566   -2.7227   23.8250 N   0  0  0  0  0  0  0  0  0  0  0  0
   -5.8809   -3.2941   22.5158 C   0  0  0  0  0  0  0  0  0  0  0  0
   -6.6588   -2.9533   21.6097 C   0  0  0  0  0  0  0  0  0  0  0  0
   -6.3213   -3.0201   20.3321 C   0  0  0  0  0  0  0  0  0  0  0  0
   -5.0874   -3.6195   19.8992 C   0  0  0  0  0  0  0  0  0  0  0  0
   -4.2314   -3.9519   20.9077 C   0  0  0  0  0  0  0  0  0  0  0  0
   -4.5665   -3.7464   22.2542 C   0  0  0  0  0  0  0  0  0  0  0  0
   -2.5267   -1.1621   29.5064 C   0  0  0  0  0  0  0  0  0  0  0  0
   -2.8605   -1.6526   30.7737 C   0  0  0  0  0  0  0  0  0  0  0  0
   -3.1351   -0.6857   31.7153 C   0  0  0  0  0  0  0  0  0  0  0  0
  2  3  1  0
  8  5  1  1
  8  9  1  0
  9 10  1  0
  7 16  1  0
  3 23  1  0
 23 24  1  0
 23 25  2  0
 15 26  1  0
 26 27  1  0
  8 28  1  0
 27 28  1  0
 26 29  1  0
 29 30  2  0
 29 31  1  0
 31 32  1  0
 12 38  1  0
 38 39  1  0
 39 40  1  0
 16 17  1  0
 32 33  2  0
 33 34  1  0
 34 35  2  0
 35 36  1  0
 36 37  2  0
 37 32  1  0
  1  2  2  0
  2  4  1  0
  4  7  2  0
  7  6  1  0
  6  5  2  0
  5  1  1  0
 10 11  2  0
 11 12  1  0
 12 13  2  0
 13 14  1  0
 14 15  2  0
 15 10  1  0
 17 18  2  0
 18 22  1  0
 22 21  2  0
 21 20  1  0
 20 19  2  0
 19 17  1  0
M  END
$$$$
