No_9951-complexes_sdf/6BKW-FPZ/2024-09-17-14-21-01/
     RDKit          3D

 23 26  0  0  0  0  0  0  0  0999 V2000
   -7.9040    3.9820   27.1177 C   0  0  0  0  0  0  0  0  0  0  0  0
   -7.8663    4.8694   27.9238 C   0  0  0  0  0  0  0  0  0  0  0  0
   -7.4547    2.7080   27.4594 C   0  0  0  0  0  0  0  0  0  0  0  0
   -7.9337    1.5946   26.8372 C   0  0  0  0  0  0  0  0  0  0  0  0
   -8.9032    1.7881   25.8510 C   0  0  0  0  0  0  0  0  0  0  0  0
   -9.3787    2.9871   25.5530 C   0  0  0  0  0  0  0  0  0  0  0  0
   -8.9781    4.0300   26.2200 C   0  0  0  0  0  0  0  0  0  0  0  0
   -8.2132    6.2312   27.6173 N   0  0  0  0  0  0  0  0  0  0  0  0
   -9.1696    6.5863   26.7528 C   0  0  0  0  0  0  0  0  0  0  0  0
   -9.5393    5.4067   25.9211 C   0  0  0  0  0  0  0  0  0  0  0  0
   -7.3285    0.2615   27.1217 C   0  0  0  0  0  0  0  0  0  0  0  0
   -6.0542    0.1237   27.6096 C   0  0  0  0  0  0  0  0  0  0  0  0
   -5.5312   -1.0783   28.0224 C   0  0  0  0  0  0  0  0  0  0  0  0
   -6.3764   -2.1686   27.9003 C   0  0  0  0  0  0  0  0  0  0  0  0
   -8.1843   -0.9072   27.1009 C   0  0  0  0  0  0  0  0  0  0  0  0
   -7.6633   -2.0885   27.5005 C   0  0  0  0  0  0  0  0  0  0  0  0
   -4.1117   -0.9263   28.4055 C   0  0  0  0  0  0  0  0  0  0  0  0
   -3.3180   -0.0277   27.9257 C   0  0  0  0  0  0  0  0  0  0  0  0
   -3.9670    1.2134   27.4495 C   0  0  0  0  0  0  0  0  0  0  0  0
   -5.1775    1.2738   27.2877 C   0  0  0  0  0  0  0  0  0  0  0  0
  -10.3574    3.0726   24.4274 C   0  0  0  0  0  0  0  0  0  0  0  0
  -11.5163    3.6371   24.5168 C   0  0  0  0  0  0  0  0  0  0  0  0
  -12.4375    3.6823   23.4590 C   0  0  0  0  0  0  0  0  0  0  0  0
  4 11  1  0
  6 21  1  0
 21 22  2  3
 22 23  1  0
  1  2  2  0
  2  8  1  0
  8  9  2  0
  9 10  1  0
 10  7  2  0
 11 12  2  0
 13 14  2  0
 14 16  1  0
 16 15  2  0
 15 11  1  0
 12 13  1  0
 13 17  1  0
 17 18  2  0
 18 19  1  0
 19 20  2  0
 20 12  1  0
  1  3  1  0
  3  4  2  0
  4  5  1  0
  5  6  2  0
  6  7  1  0
  7  1  1  0
M  END
$$$$
