No_9412-complexes_sdf/6BKW-FPZ/2024-09-17-14-21-01/
     RDKit          3D

 12 12  0  0  0  0  0  0  0  0999 V2000
   -7.9040    3.9820   27.1177 C   0  0  0  0  0  0  0  0  0  0  0  0
   -7.8663    4.8694   27.9238 C   0  0  0  0  0  0  0  0  0  0  0  0
   -7.4547    2.7080   27.4594 C   0  0  0  0  0  0  0  0  0  0  0  0
   -7.9337    1.5946   26.8372 C   0  0  0  0  0  0  0  0  0  0  0  0
   -7.4947    0.3059   27.1189 C   0  0  0  0  0  0  0  0  0  0  0  0
   -6.3125    0.1774   27.7925 C   0  0  0  0  0  0  0  0  0  0  0  0
   -5.8144   -1.1385   28.1646 C   0  0  0  0  0  0  0  0  0  0  0  0
   -8.7321    5.9714   27.8849 C   0  0  0  0  0  0  0  0  0  0  0  0
   -6.6491   -2.1611   27.8401 C   0  0  0  0  0  0  0  0  0  0  0  0
   -8.0631   -0.9274   26.9804 C   0  0  0  0  0  0  0  0  0  0  0  0
   -7.7479   -2.0901   27.2833 C   0  0  0  0  0  0  0  0  0  0  0  0
   -9.5191    6.1443   26.6323 C   0  0  0  0  0  0  0  0  0  0  0  0
  1  2  1  0
  1  3  2  3
  3  4  1  0
  4  5  1  0
  2  8  2  3
  8 12  1  0
  5  6  2  0
  6  7  1  0
  7  9  2  0
  9 11  1  0
 11 10  2  0
 10  5  1  0
M  END
$$$$
