No_9307-complexes_sdf/6BKW-FPZ/2024-09-17-14-21-01/
     RDKit          3D

 16 17  0  0  0  0  0  0  0  0999 V2000
   -7.7129    4.2099   27.0854 C   0  0  0  0  0  0  0  0  0  0  0  0
   -8.2112    3.0637   26.9225 C   0  0  0  0  0  0  0  0  0  0  0  0
   -9.4446    2.8304   26.1868 C   0  0  0  0  0  0  0  0  0  0  0  0
   -8.4697    5.3956   26.7238 C   0  0  0  0  0  0  0  0  0  0  0  0
   -8.0091    6.7588   26.9904 C   0  0  0  0  0  0  0  0  0  0  0  0
  -10.1208    3.9213   25.7408 C   0  0  0  0  0  0  0  0  0  0  0  0
   -9.5939    5.2026   25.9665 C   0  0  0  0  0  0  0  0  0  0  0  0
   -7.1418    6.8792   27.9186 O   0  0  0  0  0  0  0  0  0  0  0  0
   -8.4805    7.8185   26.3934 N   0  0  0  0  0  0  0  0  0  0  0  0
   -7.4704    1.8116   27.3781 C   0  0  0  0  0  0  0  0  0  0  0  0
   -6.1138    1.9091   27.7469 C   0  0  0  0  0  0  0  0  0  0  0  0
   -5.3917    0.7692   28.2103 C   0  0  0  0  0  0  0  0  0  0  0  0
   -6.0343   -0.4669   28.1593 C   0  0  0  0  0  0  0  0  0  0  0  0
   -7.9903    0.5303   27.3570 C   0  0  0  0  0  0  0  0  0  0  0  0
   -7.3179   -0.5501   27.8064 C   0  0  0  0  0  0  0  0  0  0  0  0
   -3.7428    0.9987   28.6785 Cl  0  0  0  0  0  0  0  0  0  0  0  0
  4  5  1  0
  5  8  2  0
  5  9  1  0
  2 10  1  0
 12 16  1  0
  1  2  2  0
  2  3  1  0
  3  6  2  0
  6  7  1  0
  7  4  2  0
  4  1  1  0
 10 11  2  0
 11 12  1  0
 12 13  2  0
 13 15  1  0
 15 14  2  0
 14 10  1  0
M  END
$$$$
