No_9569-complexes_sdf/6BKW-FPZ/2024-09-17-14-21-01/
     RDKit          3D

 39 43  0  0  0  0  0  0  0  0999 V2000
   -7.9040    3.9820   27.1177 C   0  0  0  0  0  0  0  0  0  0  0  0
   -9.0711    4.3164   27.0630 C   0  0  0  0  0  0  0  0  0  0  0  0
   -9.8698    3.9665   25.9494 C   0  0  0  0  0  0  0  0  0  0  0  0
   -7.4046    2.7946   26.4568 C   0  0  0  0  0  0  0  0  0  0  0  0
   -8.3659    2.1310   25.6816 C   0  0  0  0  0  0  0  0  0  0  0  0
  -11.1286    4.5770   25.7029 C   0  0  0  0  0  0  0  0  0  0  0  0
   -9.5689    2.7557   25.3149 C   0  0  0  0  0  0  0  0  0  0  0  0
   -7.0468    4.4752   28.0643 F   0  0  0  0  0  0  0  0  0  0  0  0
  -12.2437    3.7619   25.7194 C   0  0  0  0  0  0  0  0  0  0  0  0
  -13.1972    3.9974   24.7426 C   0  0  0  0  0  0  0  0  0  0  0  0
  -14.4698    3.4784   24.8722 C   0  0  0  0  0  0  0  0  0  0  0  0
  -14.7462    2.6220   25.9269 C   0  0  0  0  0  0  0  0  0  0  0  0
  -13.8088    2.4034   26.8917 C   0  0  0  0  0  0  0  0  0  0  0  0
  -12.5705    3.0513   26.9006 C   0  0  0  0  0  0  0  0  0  0  0  0
  -10.4237    2.1888   24.3196 C   0  0  1  0  0  0  0  0  0  0  0  0
  -10.1566    2.5408   23.0287 C   0  0  0  0  0  0  0  0  0  0  0  0
  -10.8097    2.0183   21.9231 C   0  0  0  0  0  0  0  0  0  0  0  0
  -10.5649    2.5973   20.6591 C   0  0  0  0  0  0  0  0  0  0  0  0
   -9.8401    3.8290   20.5866 C   0  0  0  0  0  0  0  0  0  0  0  0
   -9.6155    4.5836   21.6976 C   0  0  0  0  0  0  0  0  0  0  0  0
   -9.8758    4.0228   22.9586 C   0  0  0  0  0  0  0  0  0  0  0  0
  -10.1721    0.5996   24.4343 C   0  0  0  0  0  0  0  0  0  0  0  0
   -9.4755    0.0577   23.6570 C   0  0  0  0  0  0  0  0  0  0  0  0
   -9.1824   -1.3983   23.7776 C   0  0  0  0  0  0  0  0  0  0  0  0
   -9.8786   -2.0440   24.6861 C   0  0  0  0  0  0  0  0  0  0  0  0
  -10.7749   -0.1930   25.5214 C   0  0  0  0  0  0  0  0  0  0  0  0
  -10.6688   -1.4699   25.6415 C   0  0  0  0  0  0  0  0  0  0  0  0
   -8.3224   -2.1009   22.7623 C   0  0  2  0  0  0  0  0  0  0  0  0
   -7.0388   -1.8898   22.7537 C   0  0  0  0  0  0  0  0  0  0  0  0
   -6.1721   -2.4617   23.2682 C   0  0  0  0  0  0  0  0  0  0  0  0
   -5.8101   -2.5817   24.4961 C   0  0  0  0  0  0  0  0  0  0  0  0
   -4.7396   -3.3191   25.0879 C   0  0  0  0  0  0  0  0  0  0  0  0
   -4.2962   -3.1756   26.4002 C   0  0  0  0  0  0  0  0  0  0  0  0
   -5.0750   -2.3886   27.2674 C   0  0  0  0  0  0  0  0  0  0  0  0
   -6.1566   -1.6438   26.7946 C   0  0  0  0  0  0  0  0  0  0  0  0
   -6.4554   -1.6533   25.4755 C   0  0  0  0  0  0  0  0  0  0  0  0
   -9.0575   -2.8951   21.8554 C   0  0  0  0  0  0  0  0  0  0  0  0
   -9.2056   -4.1434   21.9247 C   0  0  0  0  0  0  0  0  0  0  0  0
   -9.8940   -4.9234   20.9655 C   0  0  0  0  0  0  0  0  0  0  0  0
  3  6  1  0
  1  8  1  0
  6  9  1  0
 15  7  1  1
 15 22  1  0
 28 24  1  6
 28 29  1  0
 29 30  2  3
 30 31  1  0
 28 37  1  0
 37 38  2  3
 38 39  1  0
 15 16  1  0
 31 32  2  0
 32 33  1  0
 33 34  2  0
 34 35  1  0
 35 36  2  0
 36 31  1  0
  9 10  2  0
 10 11  1  0
 11 12  2  0
 12 13  1  0
 13 14  2  0
 14  9  1  0
  1  2  2  0
  2  3  1  0
  3  7  2  0
  7  5  1  0
  5  4  2  0
  4  1  1  0
 22 23  2  0
 23 24  1  0
 24 25  2  0
 25 27  1  0
 27 26  2  0
 26 22  1  0
 16 17  2  0
 17 18  1  0
 18 19  2  0
 19 20  1  0
 20 21  2  0
 21 16  1  0
M  END
$$$$
