No_9718-complexes_sdf/6BKW-FPZ/2024-09-17-14-21-01/
     RDKit          3D

 14 15  0  0  0  0  0  0  0  0999 V2000
   -7.7129    4.2099   27.0854 C   0  0  0  0  0  0  0  0  0  0  0  0
   -8.2112    3.0637   26.9225 C   0  0  0  0  0  0  0  0  0  0  0  0
   -9.5629    2.7997   27.0678 C   0  0  0  0  0  0  0  0  0  0  0  0
   -8.5911    5.3704   27.2036 C   0  0  0  0  0  0  0  0  0  0  0  0
   -9.9544    5.1489   27.1401 C   0  0  0  0  0  0  0  0  0  0  0  0
  -10.4577    3.9280   27.0818 C   0  0  0  0  0  0  0  0  0  0  0  0
   -8.1983    6.7717   27.3757 C   0  0  0  0  0  0  0  0  0  0  0  0
   -8.0180    7.6273   26.4910 N   0  0  0  0  0  0  0  0  0  0  0  0
  -10.0639    1.3858   26.9449 C   0  0  0  0  0  0  0  0  0  0  0  0
  -10.1880    0.8184   25.6982 C   0  0  0  0  0  0  0  0  0  0  0  0
  -10.0225   -0.3633   25.5359 C   0  0  0  0  0  0  0  0  0  0  0  0
  -10.1058   -1.2991   26.5698 C   0  0  0  0  0  0  0  0  0  0  0  0
  -10.1727   -0.7898   27.9177 C   0  0  0  0  0  0  0  0  0  0  0  0
  -10.0768    0.5770   28.1444 C   0  0  0  0  0  0  0  0  0  0  0  0
  4  7  1  0
  7  8  1  0
  3  9  1  0
  1  2  2  0
  2  3  1  0
  3  6  2  0
  6  5  1  0
  5  4  2  0
  4  1  1  0
  9 10  2  0
 10 11  1  0
 11 12  2  0
 12 13  1  0
 13 14  2  0
 14  9  1  0
M  END
$$$$
