No_9872-complexes_sdf/6BKW-FPZ/2024-09-17-14-21-01/
     RDKit          3D

 28 31  0  0  0  0  0  0  0  0999 V2000
   -7.2496    3.8871   27.4508 C   0  0  0  0  0  0  0  0  0  0  0  0
   -7.6161    2.7143   27.1523 C   0  0  0  0  0  0  0  0  0  0  0  0
   -8.8302    2.4659   26.5056 C   0  0  0  0  0  0  0  0  0  0  0  0
   -8.1584    5.0090   27.3234 C   0  0  0  0  0  0  0  0  0  0  0  0
   -9.3788    4.7965   26.7695 C   0  0  0  0  0  0  0  0  0  0  0  0
   -9.7028    3.5649   26.3276 C   0  0  0  0  0  0  0  0  0  0  0  0
   -6.7803    1.6411   27.3559 N   0  0  0  0  0  0  0  0  0  0  0  0
   -7.0291    0.3561   27.0278 C   0  0  0  0  0  0  0  0  0  0  0  0
   -8.2418    0.0828   26.5397 C   0  0  0  0  0  0  0  0  0  0  0  0
   -9.1666    1.1121   26.2215 C   0  0  0  0  0  0  0  0  0  0  0  0
   -7.7377    6.2112   27.7775 F   0  0  0  0  0  0  0  0  0  0  0  0
   -5.8978   -0.8136   27.4975 Cl  0  0  0  0  0  0  0  0  0  0  0  0
  -10.9936    3.4203   25.6257 C   0  0  0  0  0  0  0  0  0  0  0  0
  -11.4270    2.4453   25.0663 N   0  0  0  0  0  0  0  0  0  0  0  0
  -12.4436    2.3598   24.3113 C   0  0  0  0  0  0  0  0  0  0  0  0
  -13.0440    3.4354   24.1649 C   0  0  0  0  0  0  0  0  0  0  0  0
  -11.9841    4.4323   25.5826 C   0  0  0  0  0  0  0  0  0  0  0  0
  -12.9619    4.6029   24.8947 C   0  0  0  0  0  0  0  0  0  0  0  0
  -12.5563    1.2405   23.5748 N   0  0  0  0  0  0  0  0  0  0  0  0
  -13.3221    1.0169   22.6400 C   0  0  0  0  0  0  0  0  0  0  0  0
  -13.8455    0.0536   22.3225 C   0  0  0  0  0  0  0  0  0  0  0  0
  -14.7009   -0.2109   21.1531 C   0  0  0  0  0  0  0  0  0  0  0  0
  -14.9280    0.8972   20.3851 C   0  0  0  0  0  0  0  0  0  0  0  0
  -14.3355    2.0912   20.6444 C   0  0  0  0  0  0  0  0  0  0  0  0
  -13.4977    2.2684   21.7172 C   0  0  0  0  0  0  0  0  0  0  0  0
  -11.8661   -0.0115   24.0846 C   0  0  0  0  0  0  0  0  0  0  0  0
  -12.0982   -1.2220   23.6113 C   0  0  0  0  0  0  0  0  0  0  0  0
  -11.4637   -2.3735   24.0937 C   0  0  0  0  0  0  0  0  0  0  0  0
  4 11  1  0
  8 12  1  0
  6 13  1  0
 15 19  1  0
 19 20  1  0
 19 26  1  0
 26 27  2  3
 27 28  1  0
  1  2  2  0
  3  6  2  0
  6  5  1  0
  5  4  2  0
  4  1  1  0
  2  3  1  0
  3 10  1  0
 10  9  2  0
  9  8  1  0
  8  7  2  0
  7  2  1  0
 13 14  2  0
 14 15  1  0
 15 16  2  0
 16 18  1  0
 18 17  2  0
 17 13  1  0
 20 21  2  0
 21 22  1  0
 22 23  2  0
 23 24  1  0
 24 25  2  0
 25 20  1  0
M  END
$$$$
