No_9395-complexes_sdf/6BKW-FPZ/2024-09-17-14-21-01/
     RDKit          3D

 16 17  0  0  0  0  0  0  0  0999 V2000
   -7.9040    3.9820   27.1177 C   0  0  0  0  0  0  0  0  0  0  0  0
   -7.8663    4.8694   27.9238 C   0  0  0  0  0  0  0  0  0  0  0  0
   -9.0491    3.8523   26.2542 C   0  0  0  0  0  0  0  0  0  0  0  0
   -8.7661    5.9491   27.9690 C   0  0  0  0  0  0  0  0  0  0  0  0
   -9.1715    2.7136   25.4037 C   0  0  0  0  0  0  0  0  0  0  0  0
   -9.8832    5.8611   27.1405 C   0  0  0  0  0  0  0  0  0  0  0  0
  -10.0016    4.7998   26.3324 C   0  0  0  0  0  0  0  0  0  0  0  0
  -10.0621    2.7513   24.3194 C   0  0  0  0  0  0  0  0  0  0  0  0
  -10.1745    1.6572   23.4753 C   0  0  0  0  0  0  0  0  0  0  0  0
   -9.3008    0.5253   23.6845 C   0  0  0  0  0  0  0  0  0  0  0  0
   -8.4382    0.4960   24.7316 C   0  0  0  0  0  0  0  0  0  0  0  0
   -8.2456    1.6834   25.6922 C   0  0  0  0  0  0  0  0  0  0  0  0
   -9.4078   -0.8574   22.6063 P   0  0  0  0  0  0  0  0  0  0  0  0
   -8.2758   -1.2510   22.2775 O   0  0  0  0  0  0  0  0  0  0  0  0
  -10.1459   -1.8762   23.4946 O   0  0  0  0  0  0  0  0  0  0  0  0
  -10.3674   -0.3975   21.5218 O   0  0  0  0  0  0  0  0  0  0  0  0
  3  5  1  0
 10 13  1  0
 13 14  1  0
 13 15  1  0
 13 16  2  0
  5  8  2  0
  8  9  1  0
  9 10  2  0
 10 11  1  0
 11 12  2  0
 12  5  1  0
  1  2  2  0
  2  4  1  0
  4  6  2  0
  6  7  1  0
  7  3  2  0
  3  1  1  0
M  END
$$$$
