No_9201-complexes_sdf/6BKW-FPZ/2024-09-17-14-21-01/
     RDKit          3D

 17 18  0  0  0  0  0  0  0  0999 V2000
   -7.2496    3.8871   27.4508 C   0  0  0  0  0  0  0  0  0  0  0  0
   -7.6161    2.7143   27.1523 C   0  0  0  0  0  0  0  0  0  0  0  0
   -8.8827    2.2318   27.1220 C   0  0  0  0  0  0  0  0  0  0  0  0
   -8.2837    4.9116   27.6108 C   0  0  0  0  0  0  0  0  0  0  0  0
   -9.6088    4.5175   27.5560 C   0  0  0  0  0  0  0  0  0  0  0  0
   -9.9243    3.2149   27.3938 C   0  0  0  0  0  0  0  0  0  0  0  0
   -7.9033    6.1948   27.8730 N   0  0  0  0  0  0  0  0  0  0  0  0
   -9.2638    0.8542   26.9412 C   0  0  0  0  0  0  0  0  0  0  0  0
   -9.7095    0.4773   25.8333 C   0  0  0  0  0  0  0  0  0  0  0  0
   -9.9137    1.4460   24.7615 C   0  0  0  0  0  0  0  0  0  0  0  0
  -10.3229    1.0232   23.4220 C   0  0  0  0  0  0  0  0  0  0  0  0
  -10.5466   -0.3554   23.2502 C   0  0  0  0  0  0  0  0  0  0  0  0
  -10.3633   -1.2415   24.2484 C   0  0  0  0  0  0  0  0  0  0  0  0
   -9.9407   -0.8890   25.4772 C   0  0  0  0  0  0  0  0  0  0  0  0
   -7.9460    7.1494   26.8107 C   0  0  0  0  0  0  0  0  0  0  0  0
   -7.3346    8.3820   27.2693 C   0  0  0  0  0  0  0  0  0  0  0  0
   -8.6579    6.9904   25.8845 O   0  0  0  0  0  0  0  0  0  0  0  0
  4  7  1  0
  3  8  1  0
  7 15  1  0
 15 16  1  0
 15 17  2  0
  8  9  1  0
  1  2  2  0
  2  3  1  0
  3  6  2  0
  6  5  1  0
  5  4  2  0
  4  1  1  0
  9 10  2  0
 10 11  1  0
 11 12  2  0
 12 13  1  0
 13 14  2  0
 14  9  1  0
M  END
$$$$
