No_9100-complexes_sdf/6BKW-FPZ/2024-09-17-14-21-01/
     RDKit          3D

 21 23  0  0  0  0  0  0  0  0999 V2000
   -7.9040    3.9820   27.1177 C   0  0  0  0  0  0  0  0  0  0  0  0
   -8.2057    2.8231   26.8733 C   0  0  0  0  0  0  0  0  0  0  0  0
   -7.4766    1.7477   27.4593 C   0  0  0  0  0  0  0  0  0  0  0  0
   -8.7468    5.1251   26.6967 C   0  0  0  0  0  0  0  0  0  0  0  0
   -9.7234    4.8589   25.8202 C   0  0  0  0  0  0  0  0  0  0  0  0
   -9.9711    3.5858   25.4266 C   0  0  0  0  0  0  0  0  0  0  0  0
   -9.2266    2.4957   25.9600 C   0  0  0  0  0  0  0  0  0  0  0  0
   -6.2367    1.9389   27.9277 N   0  0  0  0  0  0  0  0  0  0  0  0
   -5.4678    0.8434   28.3484 C   0  0  0  0  0  0  0  0  0  0  0  0
   -5.6999   -0.2543   28.0182 C   0  0  0  0  0  0  0  0  0  0  0  0
   -7.5996    0.3742   27.0646 C   0  0  0  0  0  0  0  0  0  0  0  0
   -8.9303    0.1254   26.4512 C   0  0  2  0  0  0  0  0  0  0  0  0
   -6.8398   -0.6107   27.4587 C   0  0  0  0  0  0  0  0  0  0  0  0
   -9.6512    1.1804   25.8012 C   0  0  0  0  0  0  0  0  0  0  0  0
   -4.1947    1.3639   28.9424 N   0  0  0  0  0  0  0  0  0  0  0  0
   -8.3888    6.5254   27.0992 C   0  0  0  0  0  0  0  0  0  0  0  0
   -7.9465    6.8485   28.2547 N   0  0  0  0  0  0  0  0  0  0  0  0
   -8.6941    7.5478   26.2685 N   0  0  0  0  0  0  0  0  0  0  0  0
   -9.5898   -1.1685   26.5473 C   0  0  0  0  0  0  0  0  0  0  0  0
   -9.4354   -2.2415   26.4460 C   0  0  0  0  0  0  0  0  0  0  0  0
  -10.3309   -3.3362   26.6783 C   0  0  0  0  0  0  0  0  0  0  0  0
  2  3  1  0
 11 12  1  0
  7 14  1  0
 12 14  1  1
  9 15  1  0
  4 16  1  0
 16 17  2  0
 16 18  1  0
 12 19  1  0
 19 20  2  3
 20 21  1  0
  1  2  2  0
  2  7  1  0
  7  6  2  0
  6  5  1  0
  5  4  2  0
  4  1  1  0
  3  8  2  0
  8  9  1  0
  9 10  2  0
 10 13  1  0
 13 11  2  0
 11  3  1  0
M  END
$$$$
