No_9892-complexes_sdf/6BKW-FPZ/2024-09-17-14-21-01/
     RDKit          3D

 40 44  0  0  0  0  0  0  0  0999 V2000
   -7.9040    3.9820   27.1177 C   0  0  0  0  0  0  0  0  0  0  0  0
   -7.8663    4.8694   27.9238 C   0  0  0  0  0  0  0  0  0  0  0  0
   -9.0491    3.8523   26.2542 C   0  0  0  0  0  0  0  0  0  0  0  0
   -8.7661    5.9491   27.9690 C   0  0  0  0  0  0  0  0  0  0  0  0
   -9.9295    4.8502   26.2323 C   0  0  0  0  0  0  0  0  0  0  0  0
   -9.8077    5.9288   27.0933 C   0  0  0  0  0  0  0  0  0  0  0  0
   -7.0120    2.8934   27.1747 N   0  0  0  0  0  0  0  0  0  0  0  0
   -5.9584    2.9314   27.9624 C   0  0  0  0  0  0  0  0  0  0  0  0
   -5.1075    1.6948   27.9648 C   0  0  0  0  0  0  0  0  0  0  0  0
   -7.4214    1.5986   26.7170 C   0  0  0  0  0  0  0  0  0  0  0  0
   -6.6908    0.4688   26.9746 C   0  0  0  0  0  0  0  0  0  0  0  0
   -5.4897    0.6110   27.6201 C   0  0  0  0  0  0  0  0  0  0  0  0
   -4.6795   -0.6046   27.8821 C   0  0  0  0  0  0  0  0  0  0  0  0
   -4.5168   -1.1183   28.8665 C   0  0  0  0  0  0  0  0  0  0  0  0
   -3.6374   -2.2842   29.1589 C   0  0  0  0  0  0  0  0  0  0  0  0
   -2.9784   -2.7661   28.0817 C   0  0  0  0  0  0  0  0  0  0  0  0
   -3.8534   -1.2129   26.8422 C   0  0  0  0  0  0  0  0  0  0  0  0
   -3.0543   -2.1912   26.9115 C   0  0  0  0  0  0  0  0  0  0  0  0
   -9.1782    2.5783   25.1288 Cl  0  0  0  0  0  0  0  0  0  0  0  0
   -5.2071   -0.6201   30.2635 C   0  0  0  0  0  0  0  0  0  0  0  0
   -4.2653   -0.0377   31.2250 C   0  0  0  0  0  0  0  0  0  0  0  0
   -2.9189   -0.0632   31.0683 C   0  0  0  0  0  0  0  0  0  0  0  0
   -2.2437    0.1253   32.4194 C   0  0  0  0  0  0  0  0  0  0  0  0
   -2.1497   -1.0437   33.2477 C   0  0  0  0  0  0  0  0  0  0  0  0
   -1.6120   -0.8781   34.5129 C   0  0  0  0  0  0  0  0  0  0  0  0
   -1.3123   -1.3071   35.3923 C   0  0  0  0  0  0  0  0  0  0  0  0
   -0.7032   -0.7594   36.6767 C   0  0  0  0  0  0  0  0  0  0  0  0
   -0.6842   -1.1600   37.9307 C   0  0  0  0  0  0  0  0  0  0  0  0
   -0.2483   -0.3362   38.9805 C   0  0  0  0  0  0  0  0  0  0  0  0
    0.2544    0.9663   38.6706 C   0  0  0  0  0  0  0  0  0  0  0  0
    0.3049    1.3952   37.3867 C   0  0  0  0  0  0  0  0  0  0  0  0
   -0.1808    0.6332   36.3804 C   0  0  0  0  0  0  0  0  0  0  0  0
   -2.5545   -2.3079   32.8415 C   0  0  0  0  0  0  0  0  0  0  0  0
   -2.5253   -3.2429   34.0462 C   0  0  0  0  0  0  0  0  0  0  0  0
   -1.8017   -2.7950   35.3975 C   0  0  0  0  0  0  0  0  0  0  0  0
    0.8245    1.8275   39.7849 C   0  0  0  0  0  0  0  0  0  0  0  0
    0.9757    2.9982   39.6442 C   0  0  0  0  0  0  0  0  0  0  0  0
   -0.0673    3.9767   39.7785 C   0  0  0  0  0  0  0  0  0  0  0  0
   -1.3202    3.6280   40.2992 C   0  0  0  0  0  0  0  0  0  0  0  0
   -2.3613    4.6203   40.2846 C   0  0  0  0  0  0  0  0  0  0  0  0
  1  7  1  0
  7  8  1  0
  7 10  1  0
  9 12  1  0
 11 12  1  0
 12 13  1  0
  3 19  1  0
 14 20  1  0
 20 21  1  0
 21 22  1  0
 22 23  2  3
 23 24  1  0
 30 36  1  0
 36 37  1  0
 37 38  2  3
 38 39  1  0
 39 40  2  0
 26 27  1  0
  8  9  1  0
 11 10  1  0
 24 25  2  0
 25 26  1  0
 26 35  2  0
 35 34  1  0
 34 33  2  0
 33 24  1  0
 27 28  2  0
 28 29  1  0
 29 30  2  0
 30 31  1  0
 31 32  2  0
 32 27  1  0
 13 14  1  0
 14 15  2  0
 15 16  1  0
 16 18  2  0
 18 17  1  0
 17 13  2  0
  1  2  2  0
  2  4  1  0
  4  6  2  0
  6  5  1  0
  5  3  2  0
  3  1  1  0
M  END
$$$$
