No_9908-complexes_sdf/6BKW-FPZ/2024-09-17-14-21-01/
     RDKit          3D

 28 29  0  0  0  0  0  0  0  0999 V2000
   -7.9040    3.9820   27.1177 C   0  0  0  0  0  0  0  0  0  0  0  0
   -8.2057    2.8231   26.8733 C   0  0  0  0  0  0  0  0  0  0  0  0
   -8.7695    5.0740   26.7916 C   0  0  0  0  0  0  0  0  0  0  0  0
   -9.9618    4.7598   26.1630 C   0  0  0  0  0  0  0  0  0  0  0  0
   -9.4200    2.4524   26.2849 C   0  0  0  0  0  0  0  0  0  0  0  0
  -10.2590    3.4815   25.9250 C   0  0  0  0  0  0  0  0  0  0  0  0
   -8.3840    6.4693   27.0829 C   0  0  0  0  0  0  0  0  0  0  0  0
   -7.6245    7.3016   26.6037 C   0  0  0  0  0  0  0  0  0  0  0  0
   -7.4987    1.5105   27.2053 C   0  0  0  0  0  0  0  0  0  0  0  0
   -6.1638    1.7016   27.7657 C   0  0  0  0  0  0  0  0  0  0  0  0
   -5.3752    0.5720   28.1218 C   0  0  0  0  0  0  0  0  0  0  0  0
   -5.9228   -0.6584   27.9422 C   0  0  0  0  0  0  0  0  0  0  0  0
   -7.7764    0.2024   27.1658 C   0  0  0  0  0  0  0  0  0  0  0  0
   -7.1599   -0.8175   27.5360 C   0  0  0  0  0  0  0  0  0  0  0  0
   -3.7155    0.9291   28.7499 P   0  0  2  0  0  0  0  0  0  0  0  0
   -2.9760    1.4052   27.6690 O   0  0  0  0  0  0  0  0  0  0  0  0
   -3.3283   -0.5456   29.0858 O   0  0  0  0  0  0  0  0  0  0  0  0
   -3.8079    1.7323   29.8968 O   0  0  0  0  0  0  0  0  0  0  0  0
   -2.0903   -0.7764   29.4932 C   0  0  0  0  0  0  0  0  0  0  0  0
   -7.6390    8.7113   27.2161 C   0  0  0  0  0  0  0  0  0  0  0  0
   -9.5919    7.1058   27.5086 O   0  0  0  0  0  0  0  0  0  0  0  0
   -1.4887   -1.6157   28.5124 C   0  0  2  0  0  0  0  0  0  0  0  0
   -1.6102   -2.7939   28.6142 O   0  0  0  0  0  0  0  0  0  0  0  0
   -1.8108   -3.5840   27.6536 C   0  0  0  0  0  0  0  0  0  0  0  0
   -1.6600   -3.0195   26.4943 C   0  0  0  0  0  0  0  0  0  0  0  0
   -1.3652   -1.9547   26.4334 Cl  0  0  0  0  0  0  0  0  0  0  0  0
   -0.0633   -1.0691   28.1552 C   0  0  0  0  0  0  0  0  0  0  0  0
    0.6398   -1.7534   27.6158 C   0  0  0  0  0  0  0  0  0  0  0  0
  3  7  1  0
  7  8  2  3
  2  9  1  0
 11 15  1  0
 15 16  2  0
 15 17  1  0
 15 18  1  1
 17 19  1  0
  8 20  1  0
  7 21  1  0
 22 19  1  1
 22 23  1  0
 23 24  1  0
 24 25  2  3
 25 26  1  0
 22 27  1  0
 27 28  2  0
  1  2  2  0
  2  5  1  0
  5  6  2  0
  6  4  1  0
  4  3  2  0
  3  1  1  0
  9 10  2  0
 10 11  1  0
 11 12  2  0
 12 14  1  0
 14 13  2  0
 13  9  1  0
M  END
$$$$
