No_9559-complexes_sdf/6BKW-FPZ/2024-09-17-14-21-01/
     RDKit          3D

 13 13  0  0  0  0  0  0  0  0999 V2000
   -7.9040    3.9820   27.1177 C   0  0  0  0  0  0  0  0  0  0  0  0
   -8.2057    2.8231   26.8733 C   0  0  0  0  0  0  0  0  0  0  0  0
   -8.7695    5.0740   26.7916 C   0  0  0  0  0  0  0  0  0  0  0  0
   -9.9618    4.7598   26.1630 C   0  0  0  0  0  0  0  0  0  0  0  0
   -9.4200    2.4524   26.2849 C   0  0  0  0  0  0  0  0  0  0  0  0
  -10.2590    3.4815   25.9250 C   0  0  0  0  0  0  0  0  0  0  0  0
   -8.3840    6.4693   27.0829 C   0  0  1  0  0  0  0  0  0  0  0  0
   -7.7453    6.8270   28.1334 N   0  0  0  0  0  0  0  0  0  0  0  0
   -8.6241    7.2472   26.1665 F   0  0  0  0  0  0  0  0  0  0  0  0
   -7.2784    1.6759   27.2996 C   0  0  0  0  0  0  0  0  0  0  0  0
   -6.0928    1.9527   27.8229 N   0  0  0  0  0  0  0  0  0  0  0  0
   -5.2653    0.8812   28.1564 C   0  0  0  0  0  0  0  0  0  0  0  0
   -3.9576    1.1039   28.7441 C   0  0  0  0  0  0  0  0  0  0  0  0
  3  7  1  0
  7  8  1  6
  7  9  1  0
  2 10  1  0
 10 11  2  3
 11 12  1  0
 12 13  1  0
  1  2  2  0
  2  5  1  0
  5  6  2  0
  6  4  1  0
  4  3  2  0
  3  1  1  0
M  END
$$$$
