No_9104-complexes_sdf/6BKW-FPZ/2024-09-17-14-21-01/
     RDKit          3D

 18 19  0  0  0  0  0  0  0  0999 V2000
   -7.9040    3.9820   27.1177 C   0  0  0  0  0  0  0  0  0  0  0  0
   -7.8663    4.8694   27.9238 C   0  0  0  0  0  0  0  0  0  0  0  0
   -7.4698    2.6989   27.4277 C   0  0  0  0  0  0  0  0  0  0  0  0
   -7.9683    1.5964   26.8266 C   0  0  1  0  0  0  0  0  0  0  0  0
   -8.9447    1.7923   25.8533 C   0  0  0  0  0  0  0  0  0  0  0  0
   -9.4405    2.9988   25.5757 C   0  0  2  0  0  0  0  0  0  0  0  0
  -10.4397    3.2630   24.6146 C   0  0  0  0  0  0  0  0  0  0  0  0
   -8.9100    4.1245   26.1959 C   0  0  0  0  0  0  0  0  0  0  0  0
   -8.1498    6.2592   27.6587 N   0  0  0  0  0  0  0  0  0  0  0  0
   -9.1628    6.6323   26.8618 C   0  0  0  0  0  0  0  0  0  0  0  0
   -9.5241    5.4416   25.9620 C   0  0  0  0  0  0  0  0  0  0  0  0
  -11.7057    3.1515   24.8995 C   0  0  0  0  0  0  0  0  0  0  0  0
  -12.1452    2.6812   26.1582 C   0  0  0  0  0  0  0  0  0  0  0  0
  -11.4768    2.2648   27.0317 C   0  0  0  0  0  0  0  0  0  0  0  0
  -11.8160    1.8707   28.3203 C   0  0  0  0  0  0  0  0  0  0  0  0
   -7.3584    0.2398   26.9505 C   0  0  0  0  0  0  0  0  0  0  0  0
   -8.0174   -0.8844   26.7475 C   0  0  0  0  0  0  0  0  0  0  0  0
   -7.4935   -2.1288   27.0000 C   0  0  0  0  0  0  0  0  0  0  0  0
  1  3  1  0
  4  3  1  6
  4  5  1  0
  6  5  1  6
  6  7  1  0
  6  8  1  0
  7 12  2  3
 12 13  1  0
 13 14  2  3
 14 15  1  0
  4 16  1  0
 16 17  2  3
 17 18  1  0
  1  2  2  0
  2  9  1  0
  9 10  2  0
 10 11  1  0
 11  8  2  0
  8  1  1  0
M  END
$$$$
