No_993-complexes_sdf/6BKW-FPZ/2024-09-17-14-21-01/
     RDKit          3D

 12 13  0  0  0  0  0  0  0  0999 V2000
   -7.9040    3.9820   27.1177 C   0  0  0  0  0  0  0  0  0  0  0  0
   -9.0711    4.3164   27.0630 C   0  0  2  0  0  0  0  0  0  0  0  0
   -9.8698    3.9665   25.9494 C   0  0  0  0  0  0  0  0  0  0  0  0
   -6.9515    4.6878   28.0207 C   0  0  1  0  0  0  0  0  0  0  0  0
   -9.6406    4.4469   24.7375 C   0  0  0  0  0  0  0  0  0  0  0  0
   -7.6317    5.5566   28.8290 N   0  0  0  0  0  0  0  0  0  0  0  0
  -10.4238    4.2193   23.5949 C   0  0  0  0  0  0  0  0  0  0  0  0
  -11.4568    3.3417   23.6440 C   0  0  0  0  0  0  0  0  0  0  0  0
  -11.0423    3.2391   26.0314 C   0  0  0  0  0  0  0  0  0  0  0  0
  -11.8361    2.9325   24.9441 C   0  0  0  0  0  0  0  0  0  0  0  0
   -9.3179    5.4430   28.0025 C   0  0  0  0  0  0  0  0  0  0  0  0
   -5.7794    4.3185   28.3282 N   0  0  0  0  0  0  0  0  0  0  0  0
  1  2  1  0
  2  3  1  6
  1  4  1  0
  4  6  1  0
  2 11  1  0
  6 11  1  0
  4 12  1  1
  3  5  2  0
  5  7  1  0
  7  8  2  0
  8 10  1  0
 10  9  2  0
  9  3  1  0
M  END
$$$$
