No_9090-complexes_sdf/6BKW-FPZ/2024-09-17-14-21-01/
     RDKit          3D

 30 33  0  0  0  0  0  0  0  0999 V2000
   -7.9040    3.9820   27.1177 C   0  0  0  0  0  0  0  0  0  0  0  0
   -8.2057    2.8231   26.8733 C   0  0  0  0  0  0  0  0  0  0  0  0
   -7.0130    4.3706   28.1140 C   0  0  0  0  0  0  0  0  0  0  0  0
   -9.3829    2.4374   26.1668 C   0  0  1  0  0  0  0  0  0  0  0  0
  -10.0975    3.4171   25.5988 C   0  0  1  0  0  0  0  0  0  0  0  0
   -9.7335    4.7745   25.7705 C   0  0  0  0  0  0  0  0  0  0  0  0
   -8.7317    5.1107   26.5933 C   0  0  2  0  0  0  0  0  0  0  0  0
   -8.4060    6.4842   26.8915 C   0  0  0  0  0  0  0  0  0  0  0  0
   -7.5473    7.0726   27.1167 C   0  0  0  0  0  0  0  0  0  0  0  0
   -6.5201    6.6310   28.1164 C   0  0  0  0  0  0  0  0  0  0  0  0
   -6.2735    5.4743   28.3798 C   0  0  0  0  0  0  0  0  0  0  0  0
  -11.1852    3.1244   24.6551 C   0  0  0  0  0  0  0  0  0  0  0  0
  -12.4319    3.0611   25.0822 C   0  0  0  0  0  0  0  0  0  0  0  0
  -10.9077    2.9289   23.2719 C   0  0  0  0  0  0  0  0  0  0  0  0
  -11.6721    3.1016   22.3209 C   0  0  0  0  0  0  0  0  0  0  0  0
  -13.4926    3.1406   24.0598 C   0  0  0  0  0  0  0  0  0  0  0  0
  -13.1240    3.0462   22.6934 C   0  0  0  0  0  0  0  0  0  0  0  0
   -9.6566    1.0436   25.7916 C   0  0  0  0  0  0  0  0  0  0  0  0
   -8.6050    0.2582   25.5571 C   0  0  0  0  0  0  0  0  0  0  0  0
   -8.7984   -1.1218   25.2532 C   0  0  0  0  0  0  0  0  0  0  0  0
  -10.0805   -1.5333   25.1690 C   0  0  0  0  0  0  0  0  0  0  0  0
  -11.1718   -0.6929   25.3623 C   0  0  0  0  0  0  0  0  0  0  0  0
  -10.9290    0.5714   25.7467 C   0  0  0  0  0  0  0  0  0  0  0  0
  -12.7692    3.7521   26.3509 C   0  0  0  0  0  0  0  0  0  0  0  0
  -13.9389    3.3373   27.0419 C   0  0  0  0  0  0  0  0  0  0  0  0
  -14.2042    3.8482   28.2826 C   0  0  0  0  0  0  0  0  0  0  0  0
  -13.8679    3.4954   29.3253 C   0  0  0  0  0  0  0  0  0  0  0  0
  -13.7739    3.6659   30.4208 C   0  0  0  0  0  0  0  0  0  0  0  0
  -14.6302    4.7671   30.9693 C   0  0  0  0  0  0  0  0  0  0  0  0
  -14.7303    5.1886   32.2714 C   0  0  0  0  0  0  0  0  0  0  0  0
  1  2  1  0
  1  3  2  0
  2  4  1  0
  4  5  1  0
  5  6  1  0
  1  7  1  0
  7  6  1  6
  7  8  1  0
  8  9  2  0
  9 10  1  0
  3 11  1  0
 10 11  2  0
  5 12  1  6
  4 18  1  6
 13 24  1  0
 24 25  2  3
 25 26  1  0
 26 27  2  3
 27 28  1  0
 28 29  2  3
 29 30  1  0
 18 19  2  0
 19 20  1  0
 20 21  2  0
 21 22  1  0
 22 23  2  0
 23 18  1  0
 12 13  2  0
 13 16  1  0
 16 17  2  0
 17 15  1  0
 15 14  2  0
 14 12  1  0
M  END
$$$$
