No_9653-complexes_sdf/6BKW-FPZ/2024-09-17-14-21-01/
     RDKit          3D

 40 44  0  0  0  0  0  0  0  0999 V2000
   -7.7129    4.2099   27.0854 C   0  0  0  0  0  0  0  0  0  0  0  0
   -8.2112    3.0637   26.9225 C   0  0  0  0  0  0  0  0  0  0  0  0
   -8.4224    5.2106   27.8516 C   0  0  0  0  0  0  0  0  0  0  0  0
   -9.5628    2.7160   27.4089 C   0  0  0  0  0  0  0  0  0  0  0  0
  -10.2639    3.7034   28.1156 C   0  0  0  0  0  0  0  0  0  0  0  0
   -9.7059    4.9514   28.3169 C   0  0  0  0  0  0  0  0  0  0  0  0
  -11.6210    3.4159   28.6340 C   0  0  0  0  0  0  0  0  0  0  0  0
  -12.0063    2.0964   28.7914 C   0  0  0  0  0  0  0  0  0  0  0  0
  -13.2711    1.8145   29.3144 C   0  0  0  0  0  0  0  0  0  0  0  0
  -14.0706    2.8742   29.7475 C   0  0  0  0  0  0  0  0  0  0  0  0
  -13.7308    4.1819   29.5424 C   0  0  0  0  0  0  0  0  0  0  0  0
  -12.4864    4.4650   28.9918 C   0  0  0  0  0  0  0  0  0  0  0  0
   -7.5140    2.1802   26.2571 N   0  0  0  0  0  0  0  0  0  0  0  0
   -7.7329    0.7762   26.5677 C   0  0  0  0  0  0  0  0  0  0  0  0
   -6.7835    0.2009   27.3641 C   0  0  0  0  0  0  0  0  0  0  0  0
   -5.5928    0.9192   27.6280 C   0  0  0  0  0  0  0  0  0  0  0  0
   -4.6365    0.3678   28.6184 C   0  0  0  0  0  0  0  0  0  0  0  0
   -4.8793   -0.8029   29.2988 C   0  0  0  0  0  0  0  0  0  0  0  0
   -6.0772   -1.4585   28.9911 C   0  0  0  0  0  0  0  0  0  0  0  0
   -6.9669   -0.7510   28.2828 C   0  0  0  0  0  0  0  0  0  0  0  0
   -8.3436    0.0841   25.7590 O   0  0  0  0  0  0  0  0  0  0  0  0
   -3.8762   -1.2806   30.2360 C   0  0  0  0  0  0  0  0  0  0  0  0
   -3.6970   -0.6261   31.3077 C   0  0  0  0  0  0  0  0  0  0  0  0
   -2.6639   -0.9120   32.2869 C   0  0  0  0  0  0  0  0  0  0  0  0
   -1.8704   -1.9939   32.0466 C   0  0  0  0  0  0  0  0  0  0  0  0
   -2.0508   -2.6878   30.8717 C   0  0  0  0  0  0  0  0  0  0  0  0
   -3.0098   -2.3278   29.9601 C   0  0  0  0  0  0  0  0  0  0  0  0
   -2.5200    0.0535   33.7277 Cl  0  0  0  0  0  0  0  0  0  0  0  0
   -7.9013    6.4677   27.9972 O   0  0  0  0  0  0  0  0  0  0  0  0
   -3.5034    1.1451   28.5876 O   0  0  0  0  0  0  0  0  0  0  0  0
   -7.5741    7.1649   26.7573 C   0  0  0  0  0  0  0  0  0  0  0  0
  -15.4437    2.5097   30.3079 C   0  0  0  0  0  0  0  0  0  0  0  0
  -16.0968    1.7426   29.8836 C   0  0  0  0  0  0  0  0  0  0  0  0
  -17.2386    1.3314   30.4793 C   0  0  0  0  0  0  0  0  0  0  0  0
  -18.0912    0.2724   30.0192 C   0  0  0  0  0  0  0  0  0  0  0  0
  -17.6799   -0.3497   28.8565 C   0  0  0  0  0  0  0  0  0  0  0  0
  -16.5265   -0.0096   28.2188 C   0  0  0  0  0  0  0  0  0  0  0  0
  -15.7195    0.9432   28.6831 C   0  0  0  0  0  0  0  0  0  0  0  0
  -15.6803    3.4445   31.4948 C   0  0  0  0  0  0  0  0  0  0  0  0
  -15.3004    3.1279   32.7382 C   0  0  0  0  0  0  0  0  0  0  0  0
  5  7  1  0
  2 13  1  0
 13 14  1  0
 14 15  1  0
 14 21  2  0
 18 22  1  0
 24 28  1  0
  3 29  1  0
 17 30  1  0
 29 31  1  0
 10 32  1  0
 32 33  1  0
 32 39  1  0
 39 40  2  0
 15 16  2  0
 16 17  1  0
 17 18  2  0
 18 19  1  0
 19 20  2  0
 20 15  1  0
  1  2  2  0
  2  4  1  0
  4  5  2  0
  5  6  1  0
  6  3  2  0
  3  1  1  0
 33 34  2  0
 34 35  1  0
 35 36  2  0
 36 37  1  0
 37 38  2  0
 38 33  1  0
 22 23  2  0
 23 24  1  0
 24 25  2  0
 25 26  1  0
 26 27  2  0
 27 22  1  0
  7  8  2  0
  8  9  1  0
  9 10  2  0
 10 11  1  0
 11 12  2  0
 12  7  1  0
M  END
$$$$
