No_9977-complexes_sdf/6BKW-FPZ/2024-09-17-14-21-01/
     RDKit          3D

 30 33  0  0  0  0  0  0  0  0999 V2000
   -7.7129    4.2099   27.0854 C   0  0  0  0  0  0  0  0  0  0  0  0
   -8.9133    4.4736   27.0998 C   0  0  0  0  0  0  0  0  0  0  0  0
   -9.8363    3.8127   27.2418 C   0  0  0  0  0  0  0  0  0  0  0  0
   -7.2995    2.8520   27.3808 C   0  0  0  0  0  0  0  0  0  0  0  0
   -8.3404    1.9507   27.4989 C   0  0  0  0  0  0  0  0  0  0  0  0
   -9.6166    2.3791   27.4719 C   0  0  0  0  0  0  0  0  0  0  0  0
   -9.3656    5.9824   26.9817 C   0  0  0  0  0  0  0  0  0  0  0  0
   -8.2766    6.9402   27.0981 C   0  0  0  0  0  0  0  0  0  0  0  0
   -8.5413    8.2603   26.5472 C   0  0  0  0  0  0  0  0  0  0  0  0
   -8.0240    0.4994   27.6703 C   0  0  0  0  0  0  0  0  0  0  0  0
   -6.7163    0.0688   27.7080 C   0  0  0  0  0  0  0  0  0  0  0  0
   -6.3618   -1.2080   28.1609 C   0  0  0  0  0  0  0  0  0  0  0  0
   -5.0312   -1.5501   28.3701 C   0  0  0  0  0  0  0  0  0  0  0  0
   -3.9938   -0.5991   28.0729 C   0  0  0  0  0  0  0  0  0  0  0  0
   -4.3543    0.6443   27.5866 C   0  0  0  0  0  0  0  0  0  0  0  0
   -5.6767    1.0363   27.4931 C   0  0  0  0  0  0  0  0  0  0  0  0
   -6.0703    2.3892   27.3158 N   0  0  0  0  0  0  0  0  0  0  0  0
   -7.0591    6.7368   27.7253 C   0  0  0  0  0  0  0  0  0  0  0  0
  -10.8105    1.4443   27.7076 C   0  0  0  0  0  0  0  0  0  0  0  0
  -11.5955    1.7735   28.7481 C   0  0  0  0  0  0  0  0  0  0  0  0
  -12.7608    1.0181   29.0532 C   0  0  0  0  0  0  0  0  0  0  0  0
  -12.9070   -0.1834   28.3764 C   0  0  0  0  0  0  0  0  0  0  0  0
  -12.0650   -0.5416   27.3644 C   0  0  0  0  0  0  0  0  0  0  0  0
  -10.9885    0.2784   27.0595 C   0  0  0  0  0  0  0  0  0  0  0  0
   -2.5513   -0.9224   28.2330 C   0  0  0  0  0  0  0  0  0  0  0  0
   -2.0681   -0.9317   29.5225 C   0  0  0  0  0  0  0  0  0  0  0  0
   -1.8029   -1.1795   27.1037 C   0  0  0  0  0  0  0  0  0  0  0  0
   -1.9428   -1.6460   30.2912 N   0  0  0  0  0  0  0  0  0  0  0  0
   -1.5653   -2.8339   30.1410 C   0  0  0  0  0  0  0  0  0  0  0  0
   -1.5446   -3.6762   31.3089 C   0  0  0  0  0  0  0  0  0  0  0  0
  2  7  1  0
  7  8  1  0
  8  9  2  0
  5 10  1  0
 10 11  1  0
  4 17  1  0
 16 17  1  0
  8 18  1  0
  6 19  1  0
 14 25  1  0
 25 26  1  0
 25 27  1  0
 26 28  2  3
 28 29  1  0
 29 30  2  0
 11 12  2  0
 12 13  1  0
 13 14  2  0
 14 15  1  0
 15 16  2  0
 16 11  1  0
  1  2  2  0
  2  3  1  0
  3  6  2  0
  6  5  1  0
  5  4  2  0
  4  1  1  0
 19 20  2  0
 20 21  1  0
 21 22  2  0
 22 23  1  0
 23 24  2  0
 24 19  1  0
M  END
$$$$
