No_9010-complexes_sdf/6BKW-FPZ/2024-09-17-14-21-01/
     RDKit          3D

 26 29  0  0  0  0  0  0  0  0999 V2000
   -7.9040    3.9820   27.1177 C   0  0  0  0  0  0  0  0  0  0  0  0
   -8.2057    2.8231   26.8733 C   0  0  0  0  0  0  0  0  0  0  0  0
   -8.7695    5.0740   26.7916 C   0  0  0  0  0  0  0  0  0  0  0  0
   -8.4337    6.4678   27.0913 C   0  0  0  0  0  0  0  0  0  0  0  0
   -9.3742    2.4311   26.2346 C   0  0  0  0  0  0  0  0  0  0  0  0
  -10.2395    3.4267   25.8887 C   0  0  0  0  0  0  0  0  0  0  0  0
   -9.9567    4.7548   26.1374 C   0  0  0  0  0  0  0  0  0  0  0  0
   -8.5581    6.7982   28.2290 F   0  0  0  0  0  0  0  0  0  0  0  0
   -9.2129    7.3305   26.2866 F   0  0  0  0  0  0  0  0  0  0  0  0
   -7.1026    6.7155   26.8328 F   0  0  0  0  0  0  0  0  0  0  0  0
   -7.2362    1.6938   27.3194 C   0  0  0  0  0  0  0  0  0  0  0  0
   -5.9405    1.9785   27.7751 C   0  0  0  0  0  0  0  0  0  0  0  0
   -5.0897    0.9238   28.1895 C   0  0  0  0  0  0  0  0  0  0  0  0
   -5.5446   -0.3516   28.1584 C   0  0  0  0  0  0  0  0  0  0  0  0
   -7.5881    0.3366   27.3222 C   0  0  0  0  0  0  0  0  0  0  0  0
   -6.8494   -0.6161   27.7934 C   0  0  0  0  0  0  0  0  0  0  0  0
   -4.6623   -1.4065   28.7252 C   0  0  0  0  0  0  0  0  0  0  0  0
   -3.7319   -1.0971   29.6002 C   0  0  0  0  0  0  0  0  0  0  0  0
   -3.3387    0.3299   29.6490 C   0  0  0  0  0  0  0  0  0  0  0  0
   -3.9411    1.3172   29.0137 C   0  0  0  0  0  0  0  0  0  0  0  0
  -11.4560    3.1636   25.1253 C   0  0  0  0  0  0  0  0  0  0  0  0
  -11.6603    2.2509   24.4803 C   0  0  0  0  0  0  0  0  0  0  0  0
  -12.8462    1.9614   23.6923 C   0  0  0  0  0  0  0  0  0  0  0  0
  -13.8135    2.9349   23.7370 C   0  0  0  0  0  0  0  0  0  0  0  0
  -13.6504    4.1068   24.4593 C   0  0  0  0  0  0  0  0  0  0  0  0
  -12.4867    4.3104   25.1948 C   0  0  0  0  0  0  0  0  0  0  0  0
  3  4  1  0
  4  8  1  0
  4  9  1  0
  4 10  1  0
  2 11  1  0
  6 21  1  0
 11 12  2  0
 12 13  1  0
 14 16  1  0
 16 15  2  0
 15 11  1  0
  1  2  2  0
  2  5  1  0
  5  6  2  0
  6  7  1  0
  7  3  2  0
  3  1  1  0
 13 14  2  0
 14 17  1  0
 17 18  2  0
 18 19  1  0
 19 20  2  0
 20 13  1  0
 21 22  2  0
 22 23  1  0
 23 24  2  0
 24 25  1  0
 25 26  2  0
 26 21  1  0
M  END
$$$$
