No_9128-complexes_sdf/6BKW-FPZ/2024-09-17-14-21-01/
     RDKit          3D

 18 19  0  0  0  0  0  0  0  0999 V2000
   -7.7129    4.2099   27.0854 C   0  0  0  0  0  0  0  0  0  0  0  0
   -8.2112    3.0637   26.9225 C   0  0  0  0  0  0  0  0  0  0  0  0
   -9.4446    2.8304   26.1868 C   0  0  0  0  0  0  0  0  0  0  0  0
   -8.4697    5.3956   26.7238 C   0  0  0  0  0  0  0  0  0  0  0  0
   -9.6172    5.2111   25.9513 C   0  0  0  0  0  0  0  0  0  0  0  0
  -10.0424    3.9782   25.6873 C   0  0  0  0  0  0  0  0  0  0  0  0
   -7.9172    6.7181   27.0124 C   0  0  0  0  0  0  0  0  0  0  0  0
   -8.3485    7.7109   27.2025 N   0  0  0  0  0  0  0  0  0  0  0  0
   -6.7019    6.5389   27.7068 O   0  0  0  0  0  0  0  0  0  0  0  0
   -7.5047    1.7894   27.3610 C   0  0  0  0  0  0  0  0  0  0  0  0
   -6.0336    1.9733   28.0627 Cl  0  0  0  0  0  0  0  0  0  0  0  0
   -7.9998    0.5040   27.1801 C   0  0  0  0  0  0  0  0  0  0  0  0
   -8.0631   -0.2225   27.9101 C   0  0  0  0  0  0  0  0  0  0  0  0
   -8.6642   -1.6187   27.7998 C   0  0  0  0  0  0  0  0  0  0  0  0
   -8.7813   -2.5112   28.7758 C   0  0  0  0  0  0  0  0  0  0  0  0
   -7.8595   -2.4081   29.8258 C   0  0  0  0  0  0  0  0  0  0  0  0
   -6.9239   -1.3877   29.8878 C   0  0  0  0  0  0  0  0  0  0  0  0
   -6.9399   -0.3738   28.9554 C   0  0  0  0  0  0  0  0  0  0  0  0
  4  7  1  0
  7  8  2  0
  7  9  1  0
  2 10  1  0
 10 11  1  0
 10 12  1  0
 12 13  1  0
 13 14  2  0
 14 15  1  0
 15 16  2  0
 16 17  1  0
 17 18  2  0
 18 13  1  0
  1  2  2  0
  2  3  1  0
  3  6  2  0
  6  5  1  0
  5  4  2  0
  4  1  1  0
M  END
$$$$
