No_9863-complexes_sdf/6BKW-FPZ/2024-09-17-14-21-01/
     RDKit          3D

 36 40  0  0  0  0  0  0  0  0999 V2000
   -7.2496    3.8871   27.4508 C   0  0  0  0  0  0  0  0  0  0  0  0
   -7.6161    2.7143   27.1523 C   0  0  0  0  0  0  0  0  0  0  0  0
   -8.8302    2.4659   26.5056 C   0  0  0  0  0  0  0  0  0  0  0  0
   -8.1584    5.0090   27.3234 C   0  0  0  0  0  0  0  0  0  0  0  0
   -9.3788    4.7965   26.7695 C   0  0  0  0  0  0  0  0  0  0  0  0
   -9.7028    3.5649   26.3276 C   0  0  0  0  0  0  0  0  0  0  0  0
   -6.7182    1.5519   27.3631 C   0  0  0  0  0  0  0  0  0  0  0  0
   -5.4694    1.7365   28.0694 C   0  0  0  0  0  0  0  0  0  0  0  0
   -4.6099    0.6493   28.2636 C   0  0  0  0  0  0  0  0  0  0  0  0
   -3.4090    0.7843   28.9266 C   0  0  0  0  0  0  0  0  0  0  0  0
   -5.0837   -0.6356   27.8579 C   0  0  0  0  0  0  0  0  0  0  0  0
   -6.3228   -0.8103   27.2575 C   0  0  0  0  0  0  0  0  0  0  0  0
   -7.1314    0.2960   27.0138 C   0  0  0  0  0  0  0  0  0  0  0  0
   -7.6154    6.5852   27.8672 Cl  0  0  0  0  0  0  0  0  0  0  0  0
   -2.4866   -0.2172   28.8542 N   0  0  0  0  0  0  0  0  0  0  0  0
   -2.1428   -1.0803   29.8723 C   0  0  0  0  0  0  0  0  0  0  0  0
   -2.2366   -2.1626   29.8791 C   0  0  0  0  0  0  0  0  0  0  0  0
   -1.9362   -2.9817   31.0712 C   0  0  0  0  0  0  0  0  0  0  0  0
   -1.5595   -2.3593   32.2885 C   0  0  0  0  0  0  0  0  0  0  0  0
   -1.6528   -0.9229   32.2912 C   0  0  0  0  0  0  0  0  0  0  0  0
   -1.9920   -0.2535   31.1836 C   0  0  0  0  0  0  0  0  0  0  0  0
   -1.7193   -0.4195   27.6870 C   0  0  0  0  0  0  0  0  0  0  0  0
  -10.9845    3.3760   25.6241 C   0  0  0  0  0  0  0  0  0  0  0  0
  -12.1250    3.3271   26.2720 C   0  0  0  0  0  0  0  0  0  0  0  0
  -11.0028    3.2777   24.1929 C   0  0  0  0  0  0  0  0  0  0  0  0
  -12.1478    3.2689   23.4728 C   0  0  0  0  0  0  0  0  0  0  0  0
  -13.3780    3.3334   25.6199 C   0  0  0  0  0  0  0  0  0  0  0  0
  -12.1610    3.1859   22.0553 C   0  0  0  0  0  0  0  0  0  0  0  0
  -13.3680    3.3114   24.2144 C   0  0  0  0  0  0  0  0  0  0  0  0
  -11.7499    1.9480   21.6157 C   0  0  0  0  0  0  0  0  0  0  0  0
  -10.4612    1.6933   21.6911 C   0  0  0  0  0  0  0  0  0  0  0  0
   -9.8975    0.3623   21.2977 C   0  0  0  0  0  0  0  0  0  0  0  0
  -10.6881   -0.4314   20.4745 C   0  0  0  0  0  0  0  0  0  0  0  0
  -12.0146   -0.0443   20.2792 C   0  0  0  0  0  0  0  0  0  0  0  0
  -12.5208    1.0987   20.7787 C   0  0  0  0  0  0  0  0  0  0  0  0
   -1.5347   -0.1263   33.3425 O   0  0  0  0  0  0  0  0  0  0  0  0
  2  7  1  0
  9 10  1  0
  4 14  1  0
 10 15  1  0
 15 16  1  0
 15 22  1  0
  6 23  1  0
 26 28  1  0
 28 30  1  0
 20 36  1  0
  1  2  2  0
  2  3  1  0
  3  6  2  0
  6  5  1  0
  5  4  2  0
  4  1  1  0
 23 24  2  0
 24 27  1  0
 27 29  2  0
 29 26  1  0
 26 25  2  0
 25 23  1  0
 30 31  2  0
 31 32  1  0
 32 33  2  0
 33 34  1  0
 34 35  2  0
 35 30  1  0
  7  8  2  0
  8  9  1  0
  9 11  2  0
 11 12  1  0
 12 13  2  0
 13  7  1  0
 16 17  2  0
 17 18  1  0
 18 19  2  0
 19 20  1  0
 20 21  2  0
 21 16  1  0
M  END
$$$$
