No_9374-complexes_sdf/6BKW-FPZ/2024-09-17-14-21-01/
     RDKit          3D

 17 18  0  0  0  0  0  0  0  0999 V2000
   -7.2496    3.8871   27.4508 C   0  0  0  0  0  0  0  0  0  0  0  0
   -7.6161    2.7143   27.1523 C   0  0  0  0  0  0  0  0  0  0  0  0
   -6.9719    1.5838   27.5324 C   0  0  0  0  0  0  0  0  0  0  0  0
   -7.4590    0.2827   27.2615 C   0  0  0  0  0  0  0  0  0  0  0  0
   -8.7521    2.5117   26.3068 C   0  0  0  0  0  0  0  0  0  0  0  0
   -9.2100    1.2391   25.9794 C   0  0  0  0  0  0  0  0  0  0  0  0
   -8.5134    0.1313   26.5112 C   0  0  0  0  0  0  0  0  0  0  0  0
   -8.0343    5.0565   27.1688 C   0  0  0  0  0  0  0  0  0  0  0  0
   -9.1387    5.0244   26.3111 C   0  0  0  0  0  0  0  0  0  0  0  0
   -9.5547    3.6826   25.9029 C   0  0  0  0  0  0  0  0  0  0  0  0
   -7.5880    6.4104   27.6699 C   0  0  0  0  0  0  0  0  0  0  0  0
   -8.3174    7.4336   27.2967 O   0  0  0  0  0  0  0  0  0  0  0  0
   -6.5987   -1.0820   27.9367 Cl  0  0  0  0  0  0  0  0  0  0  0  0
   -6.9277    6.5126   28.7088 O   0  0  0  0  0  0  0  0  0  0  0  0
  -10.6747    3.6229   25.0163 C   0  0  0  0  0  0  0  0  0  0  0  0
  -10.5241    3.4187   23.7201 C   0  0  0  0  0  0  0  0  0  0  0  0
  -11.3145    3.4649   22.7551 C   0  0  0  0  0  0  0  0  0  0  0  0
  8 11  1  0
 11 12  2  0
  4 13  1  0
 11 14  1  0
 10 15  1  0
 15 16  2  3
 16 17  1  0
  1  2  2  0
  5 10  2  0
 10  9  1  0
  9  8  2  0
  8  1  1  0
  2  3  1  0
  3  4  2  0
  4  7  1  0
  7  6  2  0
  6  5  1  0
  5  2  1  0
M  END
$$$$
