No_9871-complexes_sdf/6BKW-FPZ/2024-09-17-14-21-01/
     RDKit          3D

 14 14  0  0  0  0  0  0  0  0999 V2000
   -7.2496    3.8871   27.4508 C   0  0  1  0  0  0  0  0  0  0  0  0
   -7.6161    2.7143   27.1523 C   0  0  0  0  0  0  0  0  0  0  0  0
   -8.6212    2.2239   26.4074 C   0  0  2  0  0  0  0  0  0  0  0  0
   -8.2540    4.9237   27.1711 C   0  0  2  0  0  0  0  0  0  0  0  0
   -9.3709    4.6019   26.4511 C   0  0  0  0  0  0  0  0  0  0  0  0
   -9.5922    3.3274   26.0949 C   0  0  0  0  0  0  0  0  0  0  0  0
   -7.9320    6.2329   27.5387 N   0  0  0  0  0  0  0  0  0  0  0  0
   -8.8678    0.9165   26.0535 C   0  0  0  0  0  0  0  0  0  0  0  0
   -9.2177    0.0415   26.8602 F   0  0  0  0  0  0  0  0  0  0  0  0
   -7.7171    0.3810   25.4832 F   0  0  0  0  0  0  0  0  0  0  0  0
   -9.7609    0.7896   24.9878 F   0  0  0  0  0  0  0  0  0  0  0  0
   -8.3422    7.3533   26.8721 C   0  0  0  0  0  0  0  0  0  0  0  0
   -6.1564    4.2330   28.2031 N   0  0  0  0  0  0  0  0  0  0  0  0
  -10.6315    2.9795   25.3666 O   0  0  0  0  0  0  0  0  0  0  0  0
  1  2  1  0
  1  4  1  0
  4  5  1  0
  3  6  1  0
  5  6  1  0
  4  7  1  6
  3  8  1  1
  8  9  1  0
  8 10  1  0
  8 11  1  0
  7 12  1  0
  1 13  1  1
  6 14  2  0
  3  2  1  0
M  END
$$$$
