No_9289-complexes_sdf/6BKW-FPZ/2024-09-17-14-21-01/
     RDKit          3D

 25 28  0  0  0  0  0  0  0  0999 V2000
   -7.9040    3.9820   27.1177 C   0  0  0  0  0  0  0  0  0  0  0  0
   -9.0711    4.3164   27.0630 C   0  0  0  0  0  0  0  0  0  0  0  0
   -9.8698    3.9665   25.9494 C   0  0  0  0  0  0  0  0  0  0  0  0
   -7.0332    4.5030   28.2025 C   0  0  0  0  0  0  0  0  0  0  0  0
  -10.9909    4.7237   25.5958 C   0  0  0  0  0  0  0  0  0  0  0  0
   -7.4989    5.5573   28.9524 C   0  0  0  0  0  0  0  0  0  0  0  0
  -11.7350    4.2316   24.5284 C   0  0  0  0  0  0  0  0  0  0  0  0
  -11.2838    3.2467   23.6902 C   0  0  0  0  0  0  0  0  0  0  0  0
  -10.1288    2.5811   23.9926 C   0  0  0  0  0  0  0  0  0  0  0  0
   -9.3812    2.9944   25.1034 C   0  0  0  0  0  0  0  0  0  0  0  0
   -9.1193    5.7538   27.6233 C   0  0  0  0  0  0  0  0  0  0  0  0
   -8.5100    6.1790   28.6453 N   0  0  0  0  0  0  0  0  0  0  0  0
  -12.0478    2.8158   22.4895 C   0  0  0  0  0  0  0  0  0  0  0  0
  -11.5321    2.9689   21.3784 C   0  0  0  0  0  0  0  0  0  0  0  0
  -11.9630    2.6190   20.1379 C   0  0  0  0  0  0  0  0  0  0  0  0
  -13.3661    2.4362   22.6060 C   0  0  0  0  0  0  0  0  0  0  0  0
  -14.0262    2.0939   21.3773 C   0  0  0  0  0  0  0  0  0  0  0  0
  -11.2576    2.7110   18.8806 C   0  0  0  0  0  0  0  0  0  0  0  0
  -13.3260    2.1946   20.1276 C   0  0  0  0  0  0  0  0  0  0  0  0
   -9.5636    1.4989   23.1823 C   0  0  0  0  0  0  0  0  0  0  0  0
   -9.0713    0.3442   23.9313 C   0  0  0  0  0  0  0  0  0  0  0  0
   -8.4869   -0.6939   23.2431 C   0  0  0  0  0  0  0  0  0  0  0  0
   -8.5900   -0.6960   21.8316 C   0  0  0  0  0  0  0  0  0  0  0  0
   -9.2465    0.3597   21.1708 C   0  0  0  0  0  0  0  0  0  0  0  0
   -9.6471    1.4328   21.8720 C   0  0  0  0  0  0  0  0  0  0  0  0
  8 13  1  0
 15 18  1  0
  9 20  1  0
  3  2  1  0
  1  2  2  0
  2 11  1  0
 11 12  2  0
 12  6  1  0
  6  4  2  0
  4  1  1  0
 13 14  2  0
 14 15  1  0
 15 19  2  0
 19 17  1  0
 17 16  2  0
 16 13  1  0
  3  5  2  0
  5  7  1  0
  7  8  2  0
  8  9  1  0
  9 10  2  0
 10  3  1  0
 20 21  2  0
 21 22  1  0
 22 23  2  0
 23 24  1  0
 24 25  2  0
 25 20  1  0
M  END
$$$$
