No_9628-complexes_sdf/6BKW-FPZ/2024-09-17-14-21-01/
     RDKit          3D

 40 45  0  0  0  0  0  0  0  0999 V2000
   -7.9040    3.9820   27.1177 C   0  0  0  0  0  0  0  0  0  0  0  0
   -7.8663    4.8694   27.9238 C   0  0  0  0  0  0  0  0  0  0  0  0
   -7.4698    2.6989   27.4277 C   0  0  0  0  0  0  0  0  0  0  0  0
   -7.9683    1.5964   26.8266 C   0  0  1  0  0  0  0  0  0  0  0  0
   -8.9446    1.7923   25.8533 C   0  0  0  0  0  0  0  0  0  0  0  0
   -9.4405    2.9988   25.5757 C   0  0  1  0  0  0  0  0  0  0  0  0
   -8.9424    4.1117   26.2388 C   0  0  0  0  0  0  0  0  0  0  0  0
   -8.2732    6.2141   27.6484 N   0  0  0  0  0  0  0  0  0  0  0  0
   -9.1540    6.5068   26.6734 C   0  0  0  0  0  0  0  0  0  0  0  0
   -9.5312    5.3927   25.9147 C   0  0  0  0  0  0  0  0  0  0  0  0
   -7.3887    0.2740   27.0971 C   0  0  0  0  0  0  0  0  0  0  0  0
   -8.1779   -0.7293   27.5473 C   0  0  0  0  0  0  0  0  0  0  0  0
   -6.0020    0.0628   26.9575 C   0  0  0  0  0  0  0  0  0  0  0  0
   -5.4425   -1.1698   27.0788 C   0  0  0  0  0  0  0  0  0  0  0  0
   -7.6473   -2.0022   27.8436 C   0  0  0  0  0  0  0  0  0  0  0  0
   -6.2778   -2.2082   27.6204 C   0  0  0  0  0  0  0  0  0  0  0  0
   -9.8449   -0.4697   27.8756 Cl  0  0  0  0  0  0  0  0  0  0  0  0
  -10.4402    3.0777   24.4936 C   0  0  0  0  0  0  0  0  0  0  0  0
  -11.6252    3.4930   24.7716 C   0  0  0  0  0  0  0  0  0  0  0  0
  -12.1318    3.5390   26.1562 C   0  0  0  0  0  0  0  0  0  0  0  0
  -13.4340    3.9456   26.4513 C   0  0  0  0  0  0  0  0  0  0  0  0
  -13.8960    4.0744   27.7984 C   0  0  0  0  0  0  0  0  0  0  0  0
  -13.0321    3.5730   28.8160 C   0  0  0  0  0  0  0  0  0  0  0  0
  -11.7307    3.1314   28.5111 C   0  0  0  0  0  0  0  0  0  0  0  0
  -11.3281    3.1126   27.1997 C   0  0  0  0  0  0  0  0  0  0  0  0
  -13.5017    3.6463   30.2555 C   0  0  0  0  0  0  0  0  0  0  0  0
  -14.6525    4.2769   30.6298 C   0  0  0  0  0  0  0  0  0  0  0  0
  -15.4733    4.7693   29.5403 C   0  0  0  0  0  0  0  0  0  0  0  0
  -15.1067    4.7235   28.2061 C   0  0  0  0  0  0  0  0  0  0  0  0
  -15.0434    4.3488   32.0125 C   0  0  0  0  0  0  0  0  0  0  0  0
  -14.9947    5.4281   32.5954 C   0  0  0  0  0  0  0  0  0  0  0  0
  -14.6987    5.5082   33.9441 C   0  0  0  0  0  0  0  0  0  0  0  0
  -14.5306    4.3550   34.7092 C   0  0  0  0  0  0  0  0  0  0  0  0
  -14.5634    3.1234   34.0243 C   0  0  0  0  0  0  0  0  0  0  0  0
  -14.6769    3.0949   32.6472 C   0  0  0  0  0  0  0  0  0  0  0  0
  -14.4771    1.8324   31.9995 C   0  0  0  0  0  0  0  0  0  0  0  0
  -15.5797    1.0427   31.8885 C   0  0  0  0  0  0  0  0  0  0  0  0
  -16.4553    0.9691   32.5147 C   0  0  0  0  0  0  0  0  0  0  0  0
  -15.6300    0.5483   30.3965 C   0  0  0  0  0  0  0  0  0  0  0  0
  -16.5006    1.3067   33.9176 C   0  0  0  0  0  0  0  0  0  0  0  0
  1  3  1  0
  3  4  1  0
  4  5  1  0
  6  5  1  6
  6  7  1  0
  4 11  1  6
 12 17  1  0
  6 18  1  0
 18 19  2  3
 19 20  1  0
 27 30  1  0
 35 36  1  0
 36 37  1  0
 37 38  2  3
 37 39  1  0
 38 40  1  0
  1  2  2  0
  2  8  1  0
  8  9  2  0
  9 10  1  0
 10  7  2  0
  7  1  1  0
 30 31  2  0
 31 32  1  0
 32 33  2  0
 33 34  1  0
 34 35  2  0
 35 30  1  0
 20 21  2  0
 21 22  1  0
 23 24  1  0
 24 25  2  0
 25 20  1  0
 11 12  2  0
 12 15  1  0
 15 16  2  0
 16 14  1  0
 14 13  2  0
 13 11  1  0
 22 23  2  0
 23 26  1  0
 26 27  2  0
 27 28  1  0
 28 29  2  0
 29 22  1  0
M  END
$$$$
