No_9712-complexes_sdf/6BKW-FPZ/2024-09-17-14-21-01/
     RDKit          3D

 17 18  0  0  0  0  0  0  0  0999 V2000
   -7.2496    3.8871   27.4508 C   0  0  0  0  0  0  0  0  0  0  0  0
   -8.5096    4.0291   27.2770 C   0  0  0  0  0  0  0  0  0  0  0  0
   -9.3502    2.8685   26.8763 C   0  0  0  0  0  0  0  0  0  0  0  0
   -6.6288    2.5513   27.4938 C   0  0  0  0  0  0  0  0  0  0  0  0
   -7.4365    1.4714   27.2032 C   0  0  0  0  0  0  0  0  0  0  0  0
   -8.7772    1.6579   26.9338 C   0  0  0  0  0  0  0  0  0  0  0  0
   -9.1078    5.3660   27.2249 C   0  0  0  0  0  0  0  0  0  0  0  0
   -8.3546    6.4796   26.8735 C   0  0  0  0  0  0  0  0  0  0  0  0
   -8.8296    7.8124   27.0217 C   0  0  0  0  0  0  0  0  0  0  0  0
   -7.0051    0.0779   27.2504 C   0  0  0  0  0  0  0  0  0  0  0  0
   -7.5940   -0.8627   27.2609 O   0  0  0  0  0  0  0  0  0  0  0  0
   -5.6251   -0.0149   27.7179 N   0  0  0  0  0  0  0  0  0  0  0  0
   -5.0011   -1.2935   27.9203 C   0  0  0  0  0  0  0  0  0  0  0  0
   -4.1775   -1.3710   28.6129 C   0  0  0  0  0  0  0  0  0  0  0  0
   -3.3329   -0.2146   29.1937 C   0  0  0  0  0  0  0  0  0  0  0  0
   -3.9790    1.0657   28.8962 C   0  0  0  0  0  0  0  0  0  0  0  0
   -5.0522    1.0951   28.3128 C   0  0  0  0  0  0  0  0  0  0  0  0
  2  7  1  0
  7  8  2  3
  8  9  1  0
  5 10  1  0
 10 11  2  0
 10 12  1  0
 12 13  1  0
 14 15  1  0
 12 17  1  0
 16 17  1  0
 13 14  1  0
 15 16  1  0
  1  2  2  0
  2  3  1  0
  3  6  2  0
  6  5  1  0
  5  4  2  0
  4  1  1  0
M  END
$$$$
