No_9557-complexes_sdf/6BKW-FPZ/2024-09-17-14-21-01/
     RDKit          3D

 13 14  0  0  0  0  0  0  0  0999 V2000
   -7.9040    3.9820   27.1177 C   0  0  0  0  0  0  0  0  0  0  0  0
   -7.8663    4.8694   27.9238 C   0  0  0  0  0  0  0  0  0  0  0  0
   -9.0491    3.8523   26.2542 C   0  0  0  0  0  0  0  0  0  0  0  0
   -8.7661    5.9491   27.9690 C   0  0  0  0  0  0  0  0  0  0  0  0
   -9.9295    4.8502   26.2323 C   0  0  0  0  0  0  0  0  0  0  0  0
   -9.8077    5.9288   27.0933 C   0  0  0  0  0  0  0  0  0  0  0  0
   -6.9377    2.5632   27.0872 Cl  0  0  0  0  0  0  0  0  0  0  0  0
   -9.1620    2.7269   25.2654 C   0  0  0  0  0  0  0  0  0  0  0  0
  -10.1232    2.9112   24.2370 C   0  0  0  0  0  0  0  0  0  0  0  0
  -10.3207    1.8013   23.3987 C   0  0  0  0  0  0  0  0  0  0  0  0
   -9.4900    0.6286   23.5201 C   0  0  0  0  0  0  0  0  0  0  0  0
   -8.5848    0.5390   24.5495 C   0  0  0  0  0  0  0  0  0  0  0  0
   -8.4046    1.5432   25.4125 C   0  0  0  0  0  0  0  0  0  0  0  0
  1  7  1  0
  3  8  1  0
  1  2  2  0
  2  4  1  0
  4  6  2  0
  6  5  1  0
  5  3  2  0
  3  1  1  0
  8  9  2  0
  9 10  1  0
 10 11  2  0
 11 12  1  0
 12 13  2  0
 13  8  1  0
M  END
$$$$
