No_9221-complexes_sdf/6BKW-FPZ/2024-09-17-14-21-01/
     RDKit          3D

 22 24  0  0  0  0  0  0  0  0999 V2000
   -7.9040    3.9820   27.1177 C   0  0  0  0  0  0  0  0  0  0  0  0
   -7.8663    4.8694   27.9238 C   0  0  0  0  0  0  0  0  0  0  0  0
   -9.0806    3.1428   27.1220 C   0  0  0  0  0  0  0  0  0  0  0  0
  -10.0909    3.4892   26.5180 C   0  0  0  0  0  0  0  0  0  0  0  0
   -9.0818    5.8025   27.6063 C   0  0  0  0  0  0  0  0  0  0  0  0
  -10.3119    5.0061   27.2645 C   0  0  0  0  0  0  0  0  0  0  0  0
   -8.6731    1.6134   26.6578 C   0  0  0  0  0  0  0  0  0  0  0  0
   -7.5495    1.0852   27.1325 C   0  0  0  0  0  0  0  0  0  0  0  0
   -7.2632   -0.2651   26.8679 C   0  0  0  0  0  0  0  0  0  0  0  0
   -8.2303   -1.0273   26.2682 C   0  0  0  0  0  0  0  0  0  0  0  0
   -9.4491    0.3781   26.4689 C   0  0  2  0  0  0  0  0  0  0  0  0
   -6.8726    5.5865   28.6158 C   0  0  0  0  0  0  0  0  0  0  0  0
  -10.7202    0.2466   25.9843 C   0  0  0  0  0  0  0  0  0  0  0  0
  -11.2192    0.7668   24.9393 C   0  0  0  0  0  0  0  0  0  0  0  0
  -12.5032    0.8944   24.6394 C   0  0  0  0  0  0  0  0  0  0  0  0
  -11.5554   -0.3851   26.9821 C   0  0  0  0  0  0  0  0  0  0  0  0
  -12.9897   -0.3314   26.7199 C   0  0  0  0  0  0  0  0  0  0  0  0
  -13.4098    0.2693   25.5492 C   0  0  0  0  0  0  0  0  0  0  0  0
  -14.8391    0.2743   25.1880 C   0  0  0  0  0  0  0  0  0  0  0  0
  -15.7301    0.1539   25.9689 N   0  0  0  0  0  0  0  0  0  0  0  0
  -15.2153    0.4091   23.8043 C   0  0  0  0  0  0  0  0  0  0  0  0
  -16.5463    0.3456   23.4979 C   0  0  0  0  0  0  0  0  0  0  0  0
  3  7  1  0
  7  8  2  0
  8  9  1  0
  9 10  2  0
  7 11  1  0
 10 11  1  0
  2 12  1  0
 11 13  1  6
 18 19  1  0
 19 20  2  0
 19 21  1  0
 21 22  1  0
 13 14  2  0
 14 15  1  0
 15 18  2  0
 18 17  1  0
 17 16  2  0
 16 13  1  0
  1  2  2  0
  2  5  1  0
  5  6  2  0
  6  4  1  0
  4  3  2  0
  3  1  1  0
M  END
$$$$
