No_9997-complexes_sdf/6BKW-FPZ/2024-09-17-14-21-01/
     RDKit          3D

 23 25  0  0  0  0  0  0  0  0999 V2000
   -7.7129    4.2099   27.0854 C   0  0  0  0  0  0  0  0  0  0  0  0
   -7.7814    5.1722   27.8972 C   0  0  0  0  0  0  0  0  0  0  0  0
   -7.2983    2.9533   27.5684 C   0  0  0  0  0  0  0  0  0  0  0  0
   -7.6908    1.8111   26.9553 C   0  0  0  0  0  0  0  0  0  0  0  0
   -8.6533    1.9165   25.9430 C   0  0  0  0  0  0  0  0  0  0  0  0
   -9.2376    3.0581   25.6387 C   0  0  0  0  0  0  0  0  0  0  0  0
   -8.8901    4.1760   26.2867 C   0  0  0  0  0  0  0  0  0  0  0  0
   -8.3894    6.3916   27.5666 N   0  0  0  0  0  0  0  0  0  0  0  0
   -9.4225    5.4806   26.0539 C   0  0  0  0  0  0  0  0  0  0  0  0
   -9.1307    6.5890   26.7090 C   0  0  0  0  0  0  0  0  0  0  0  0
   -7.0379    0.5242   27.2196 C   0  0  0  0  0  0  0  0  0  0  0  0
   -5.8205    0.4676   27.9079 C   0  0  0  0  0  0  0  0  0  0  0  0
   -5.1586   -0.4821   28.0681 C   0  0  0  0  0  0  0  0  0  0  0  0
   -5.6618   -1.7474   27.7485 C   0  0  0  0  0  0  0  0  0  0  0  0
   -7.4701   -0.6956   26.8669 C   0  0  0  0  0  0  0  0  0  0  0  0
   -6.8448   -1.8235   27.1223 C   0  0  0  0  0  0  0  0  0  0  0  0
   -3.7896   -0.4423   28.8772 C   0  0  0  0  0  0  0  0  0  0  0  0
   -3.6525   -1.1717   29.7660 F   0  0  0  0  0  0  0  0  0  0  0  0
   -3.6554    0.8630   29.3584 F   0  0  0  0  0  0  0  0  0  0  0  0
   -2.8457   -0.4726   27.9016 F   0  0  0  0  0  0  0  0  0  0  0  0
  -10.2160    3.0709   24.5404 C   0  0  0  0  0  0  0  0  0  0  0  0
  -11.2929    3.7942   24.5837 C   0  0  0  0  0  0  0  0  0  0  0  0
  -12.2471    3.7690   23.5571 C   0  0  0  0  0  0  0  0  0  0  0  0
  4 11  1  0
 13 17  1  0
 17 18  1  0
 17 19  1  0
 17 20  1  0
  6 21  1  0
 21 22  2  3
 22 23  1  0
  1  2  2  0
  2  8  1  0
  8 10  2  0
 10  9  1  0
  9  7  2  0
 11 12  2  0
 12 13  1  0
 13 14  2  0
 14 16  1  0
 16 15  2  0
 15 11  1  0
  1  3  1  0
  3  4  2  0
  4  5  1  0
  5  6  2  0
  6  7  1  0
  7  1  1  0
M  END
$$$$
