No_9852-complexes_sdf/6BKW-FPZ/2024-09-17-14-21-01/
     RDKit          3D

 17 19  0  0  0  0  0  0  0  0999 V2000
   -7.9040    3.9820   27.1177 C   0  0  0  0  0  0  0  0  0  0  0  0
   -7.8663    4.8694   27.9238 C   0  0  0  0  0  0  0  0  0  0  0  0
   -7.4547    2.7080   27.4594 C   0  0  0  0  0  0  0  0  0  0  0  0
   -7.9337    1.5946   26.8372 C   0  0  0  0  0  0  0  0  0  0  0  0
   -7.4947    0.3059   27.1189 C   0  0  0  0  0  0  0  0  0  0  0  0
   -8.1909    6.2127   27.7180 C   0  0  0  0  0  0  0  0  0  0  0  0
   -8.8830    6.5611   26.5006 C   0  0  0  0  0  0  0  0  0  0  0  0
   -8.6627    4.2361   25.9428 C   0  0  0  0  0  0  0  0  0  0  0  0
   -9.1787    5.4953   25.6819 C   0  0  0  0  0  0  0  0  0  0  0  0
   -8.1985   -0.7997   26.6670 C   0  0  0  0  0  0  0  0  0  0  0  0
   -9.3251   -0.5797   25.8516 C   0  0  0  0  0  0  0  0  0  0  0  0
   -9.7509    0.6549   25.5456 C   0  0  0  0  0  0  0  0  0  0  0  0
   -9.0520    1.7714   26.0532 C   0  0  0  0  0  0  0  0  0  0  0  0
   -9.3416    3.0470   25.3740 C   0  0  0  0  0  0  0  0  0  0  0  0
  -10.2795    3.1863   24.3673 C   0  0  0  0  0  0  0  0  0  0  0  0
  -11.4780    3.7142   24.6090 C   0  0  0  0  0  0  0  0  0  0  0  0
  -12.4647    3.8531   23.6166 C   0  0  0  0  0  0  0  0  0  0  0  0
 14 15  1  0
 15 16  2  3
 16 17  1  0
  4  5  1  0
  5 10  2  0
 10 11  1  0
 11 12  2  0
 12 13  1  0
  1  3  1  0
  3  4  2  0
  4 13  1  0
 13 14  2  0
 14  8  1  0
  1  2  2  0
  2  6  1  0
  6  7  2  0
  7  9  1  0
  9  8  2  0
  8  1  1  0
M  END
$$$$
