No_9503-complexes_sdf/6BKW-FPZ/2024-09-17-14-21-01/
     RDKit          3D

 23 25  0  0  0  0  0  0  0  0999 V2000
   -7.9040    3.9820   27.1177 C   0  0  0  0  0  0  0  0  0  0  0  0
   -8.2057    2.8231   26.8733 C   0  0  0  0  0  0  0  0  0  0  0  0
   -7.0130    4.3706   28.1140 C   0  0  0  0  0  0  0  0  0  0  0  0
   -7.3740    1.7588   27.2586 C   0  0  0  0  0  0  0  0  0  0  0  0
   -6.8741    5.7769   28.4526 C   0  0  0  0  0  0  0  0  0  0  0  0
   -7.7113    0.3987   27.0710 C   0  0  0  0  0  0  0  0  0  0  0  0
   -8.6226    5.0991   26.5359 C   0  0  0  0  0  0  0  0  0  0  0  0
   -8.5510    6.4219   26.8743 C   0  0  0  0  0  0  0  0  0  0  0  0
   -7.6076    6.7475   27.8535 C   0  0  0  0  0  0  0  0  0  0  0  0
   -9.2342    2.3755   26.0454 C   0  0  0  0  0  0  0  0  0  0  0  0
  -10.1008    3.4074   25.5427 C   0  0  1  0  0  0  0  0  0  0  0  0
   -9.7569    4.6711   25.7053 C   0  0  0  0  0  0  0  0  0  0  0  0
   -9.4707    1.0674   25.7319 C   0  0  0  0  0  0  0  0  0  0  0  0
   -8.6884    0.0849   26.2824 C   0  0  0  0  0  0  0  0  0  0  0  0
  -11.1690    3.0783   24.6009 C   0  0  2  0  0  0  0  0  0  0  0  0
  -11.0733    3.6871   23.3670 C   0  0  0  0  0  0  0  0  0  0  0  0
  -11.5164    3.2158   22.2068 C   0  0  0  0  0  0  0  0  0  0  0  0
  -12.0224    2.0593   22.1741 C   0  0  0  0  0  0  0  0  0  0  0  0
  -12.5544    3.1253   25.1083 C   0  0  0  0  0  0  0  0  0  0  0  0
  -12.8273    1.6220   21.4409 C   0  0  0  0  0  0  0  0  0  0  0  0
  -13.3757    0.2402   21.4660 C   0  0  0  0  0  0  0  0  0  0  0  0
  -12.9012   -0.4143   22.1830 C   0  0  0  0  0  0  0  0  0  0  0  0
  -11.8659   -0.2464   23.0979 C   0  0  0  0  0  0  0  0  0  0  0  0
  1  2  1  0
 10 11  1  0
  7 12  1  0
 11 12  1  6
 11 15  1  0
 15 16  1  0
 16 17  2  3
 17 18  1  0
 15 19  1  1
 18 20  2  3
 20 21  1  0
 21 22  2  3
 22 23  1  0
  1  3  2  0
  3  5  1  0
  5  9  2  0
  9  8  1  0
  8  7  2  0
  7  1  1  0
  2  4  2  0
  4  6  1  0
  6 14  2  0
 14 13  1  0
 13 10  2  0
 10  2  1  0
M  END
$$$$
