No_9588-complexes_sdf/6BKW-FPZ/2024-09-17-14-21-01/
     RDKit          3D

 15 16  0  0  0  0  0  0  0  0999 V2000
   -7.9040    3.9820   27.1177 C   0  0  0  0  0  0  0  0  0  0  0  0
   -8.2057    2.8231   26.8733 C   0  0  0  0  0  0  0  0  0  0  0  0
   -7.4766    1.7477   27.4593 C   0  0  0  0  0  0  0  0  0  0  0  0
   -8.7468    5.1251   26.6967 C   0  0  0  0  0  0  0  0  0  0  0  0
   -9.7234    4.8589   25.8202 C   0  0  0  0  0  0  0  0  0  0  0  0
   -9.9711    3.5858   25.4266 C   0  0  0  0  0  0  0  0  0  0  0  0
   -9.2266    2.4957   25.9600 C   0  0  0  0  0  0  0  0  0  0  0  0
   -7.8305    0.3697   27.3235 C   0  0  0  0  0  0  0  0  0  0  0  0
   -6.9776   -0.5878   27.7628 C   0  0  0  0  0  0  0  0  0  0  0  0
   -5.7494   -0.2462   28.3358 C   0  0  0  0  0  0  0  0  0  0  0  0
   -5.2969    1.0989   28.3244 C   0  0  0  0  0  0  0  0  0  0  0  0
   -6.0691    2.0249   27.8475 C   0  0  0  0  0  0  0  0  0  0  0  0
   -8.4198    6.5192   27.1036 C   0  0  0  0  0  0  0  0  0  0  0  0
   -7.9975    6.7168   28.2240 O   0  0  0  0  0  0  0  0  0  0  0  0
   -8.7242    7.5006   26.3239 O   0  0  0  0  0  0  0  0  0  0  0  0
  2  3  1  0
  4 13  1  0
 13 14  2  0
 13 15  1  0
  3  8  2  0
  8  9  1  0
  9 10  2  0
 10 11  1  0
 11 12  2  0
 12  3  1  0
  1  2  2  0
  2  7  1  0
  7  6  2  0
  6  5  1  0
  5  4  2  0
  4  1  1  0
M  END
$$$$
