No_9671-complexes_sdf/6BKW-FPZ/2024-09-17-14-21-01/
     RDKit          3D

 19 21  0  0  0  0  0  0  0  0999 V2000
   -7.7129    4.2099   27.0854 C   0  0  0  0  0  0  0  0  0  0  0  0
   -8.9133    4.4736   27.0998 C   0  0  0  0  0  0  0  0  0  0  0  0
   -9.7135    3.9633   26.0300 C   0  0  0  0  0  0  0  0  0  0  0  0
   -7.1708    2.9509   26.6517 C   0  0  0  0  0  0  0  0  0  0  0  0
   -8.1422    2.1350   26.0104 C   0  0  0  0  0  0  0  0  0  0  0  0
   -9.3363    2.7131   25.6563 C   0  0  0  0  0  0  0  0  0  0  0  0
   -9.2473    5.8634   27.3750 O   0  0  0  0  0  0  0  0  0  0  0  0
   -7.7639    0.7835   25.6518 C   0  0  0  0  0  0  0  0  0  0  0  0
   -8.2081   -0.0038   26.1016 N   0  0  0  0  0  0  0  0  0  0  0  0
   -7.8177   -1.3826   25.9272 C   0  0  0  0  0  0  0  0  0  0  0  0
   -6.7971   -1.4985   25.0811 C   0  0  0  0  0  0  0  0  0  0  0  0
   -6.2225   -0.4942   24.3889 C   0  0  0  0  0  0  0  0  0  0  0  0
   -6.6672    0.7317   24.7291 C   0  0  0  0  0  0  0  0  0  0  0  0
   -8.2929    6.8164   27.3882 C   0  0  0  0  0  0  0  0  0  0  0  0
   -7.1004    6.5662   26.9855 C   0  0  0  0  0  0  0  0  0  0  0  0
   -6.6250    5.2186   27.1706 C   0  0  0  0  0  0  0  0  0  0  0  0
   -6.3404   -2.9872   24.7511 C   0  0  0  0  0  0  0  0  0  0  0  0
   -5.5590   -3.4640   25.3530 O   0  0  0  0  0  0  0  0  0  0  0  0
   -6.9359   -3.4814   23.6976 O   0  0  0  0  0  0  0  0  0  0  0  0
  2  7  1  0
  5  8  1  0
  7 14  1  0
 14 15  2  0
  1 16  1  0
 15 16  1  0
 11 17  1  0
 17 18  1  0
 17 19  2  0
  1  2  1  0
  2  3  2  0
  3  6  1  0
  6  5  2  0
  5  4  1  0
  4  1  2  0
  8  9  2  0
  9 10  1  0
 10 11  2  0
 11 12  1  0
 12 13  2  0
 13  8  1  0
M  END
$$$$
