No_9016-complexes_sdf/6BKW-FPZ/2024-09-17-14-21-01/
     RDKit          3D

 28 31  0  0  0  0  0  0  0  0999 V2000
   -7.9040    3.9820   27.1177 C   0  0  0  0  0  0  0  0  0  0  0  0
   -9.0711    4.3164   27.0630 C   0  0  0  0  0  0  0  0  0  0  0  0
   -9.5182    5.5541   27.5777 C   0  0  0  0  0  0  0  0  0  0  0  0
   -6.9424    4.7983   27.8424 C   0  0  0  0  0  0  0  0  0  0  0  0
   -7.3526    5.9739   28.3909 C   0  0  0  0  0  0  0  0  0  0  0  0
   -8.6479    6.3742   28.2170 C   0  0  0  0  0  0  0  0  0  0  0  0
  -10.0793    3.4689   26.3368 C   0  0  0  0  0  0  0  0  0  0  0  0
   -9.6567    2.5965   25.4484 C   0  0  0  0  0  0  0  0  0  0  0  0
  -10.5086    1.8159   24.6228 C   0  0  0  0  0  0  0  0  0  0  0  0
  -11.8698    2.1070   24.6818 C   0  0  0  0  0  0  0  0  0  0  0  0
  -11.4792    3.7192   26.2197 C   0  0  0  0  0  0  0  0  0  0  0  0
  -11.9063    4.7120   27.2613 C   0  0  0  0  0  0  0  0  0  0  0  0
  -12.3635    3.0183   25.5462 C   0  0  0  0  0  0  0  0  0  0  0  0
   -9.7475    0.9649   23.7466 C   0  0  0  0  0  0  0  0  0  0  0  0
   -9.7486    1.1899   22.4874 N   0  0  0  0  0  0  0  0  0  0  0  0
   -9.8416    2.3866   21.9849 C   0  0  0  0  0  0  0  0  0  0  0  0
   -9.4749    0.0973   21.5704 C   0  0  0  0  0  0  0  0  0  0  0  0
   -9.0211    0.0920   24.3112 O   0  0  0  0  0  0  0  0  0  0  0  0
  -10.6274   -0.2751   20.7966 C   0  0  0  0  0  0  0  0  0  0  0  0
  -11.2151    0.8443   20.2141 C   0  0  0  0  0  0  0  0  0  0  0  0
  -11.1017    2.1927   20.9223 C   0  0  2  0  0  0  0  0  0  0  0  0
  -11.6988    3.3519   20.3221 C   0  0  0  0  0  0  0  0  0  0  0  0
  -12.6151    3.8814   21.2631 C   0  0  0  0  0  0  0  0  0  0  0  0
  -13.9804    3.9261   21.1442 C   0  0  0  0  0  0  0  0  0  0  0  0
  -14.8155    4.3753   22.1716 C   0  0  0  0  0  0  0  0  0  0  0  0
  -14.2008    4.9604   23.2950 C   0  0  0  0  0  0  0  0  0  0  0  0
  -12.8236    5.0803   23.4255 C   0  0  0  0  0  0  0  0  0  0  0  0
  -12.0678    4.5455   22.4993 C   0  0  0  0  0  0  0  0  0  0  0  0
  2  7  1  0
 11 12  1  0
  9 14  1  0
 14 15  1  0
 15 16  1  0
 15 17  1  0
 14 18  2  0
 17 19  1  0
 16 21  1  0
 20 21  1  0
 21 22  1  6
 22 23  1  0
 20 19  1  0
 23 24  2  0
 24 25  1  0
 25 26  2  0
 26 27  1  0
 27 28  2  0
 28 23  1  0
  1  2  2  0
  2  3  1  0
  3  6  2  0
  6  5  1  0
  5  4  2  0
  4  1  1  0
  7  8  2  0
  8  9  1  0
  9 10  2  0
 10 13  1  0
 13 11  2  0
 11  7  1  0
M  END
$$$$
