No_9822-complexes_sdf/6BKW-FPZ/2024-09-17-14-21-01/
     RDKit          3D

  9  9  0  0  0  0  0  0  0  0999 V2000
   -7.7129    4.2099   27.0854 C   0  0  0  0  0  0  0  0  0  0  0  0
   -7.7814    5.1722   27.8972 C   0  0  0  0  0  0  0  0  0  0  0  0
   -8.7889    3.2468   27.2220 C   0  0  0  0  0  0  0  0  0  0  0  0
   -9.8927    3.4443   27.8449 C   0  0  0  0  0  0  0  0  0  0  0  0
   -9.0268    5.6720   28.5154 C   0  0  0  0  0  0  0  0  0  0  0  0
  -10.0572    4.7324   28.5632 C   0  0  0  0  0  0  0  0  0  0  0  0
   -8.6015    1.8826   26.5580 C   0  0  0  0  0  0  0  0  0  0  0  0
   -7.7308    0.9359   27.0907 C   0  0  0  0  0  0  0  0  0  0  0  0
   -7.5596   -0.2995   26.5316 C   0  0  0  0  0  0  0  0  0  0  0  0
  3  7  1  0
  7  8  2  3
  8  9  1  0
  1  2  2  0
  2  5  1  0
  5  6  2  0
  6  4  1  0
  4  3  2  0
  3  1  1  0
M  END
$$$$
