No_9726-complexes_sdf/6BKW-FPZ/2024-09-17-14-21-01/
     RDKit          3D

 40 45  0  0  0  0  0  0  0  0999 V2000
   -7.7129    4.2099   27.0854 C   0  0  0  0  0  0  0  0  0  0  0  0
   -8.2112    3.0637   26.9225 C   0  0  0  0  0  0  0  0  0  0  0  0
   -8.5108    5.3904   26.9436 C   0  0  0  0  0  0  0  0  0  0  0  0
   -9.7256    5.1955   26.3518 C   0  0  0  0  0  0  0  0  0  0  0  0
   -7.4704    1.8386   27.3272 C   0  0  0  0  0  0  0  0  0  0  0  0
   -9.5296    2.9550   26.4652 C   0  0  0  0  0  0  0  0  0  0  0  0
  -10.2465    4.0091   26.1867 C   0  0  0  0  0  0  0  0  0  0  0  0
   -6.0996    1.9856   27.7226 C   0  0  0  0  0  0  0  0  0  0  0  0
   -5.3503    0.8261   28.1096 C   0  0  0  0  0  0  0  0  0  0  0  0
   -5.9432   -0.4076   28.0305 C   0  0  0  0  0  0  0  0  0  0  0  0
   -7.7291    0.4552   27.2858 C   0  0  0  0  0  0  0  0  0  0  0  0
   -7.1741   -0.5484   27.6966 C   0  0  0  0  0  0  0  0  0  0  0  0
   -7.9179    6.7432   27.1656 C   0  0  0  0  0  0  0  0  0  0  0  0
   -8.0665    7.8460   26.7582 N   0  0  0  0  0  0  0  0  0  0  0  0
   -7.1716    6.7277   28.3568 O   0  0  0  0  0  0  0  0  0  0  0  0
   -3.9269    1.0930   28.5592 C   0  0  1  0  0  0  0  0  0  0  0  0
   -3.3720    0.2762   29.4629 N   0  0  0  0  0  0  0  0  0  0  0  0
   -3.6334    0.2950   30.7554 C   0  0  0  0  0  0  0  0  0  0  0  0
   -2.9269   -0.6570   31.6252 C   0  0  0  0  0  0  0  0  0  0  0  0
   -2.4550   -0.7494   29.0167 C   0  0  2  0  0  0  0  0  0  0  0  0
   -1.7603   -1.5954   29.8119 C   0  0  0  0  0  0  0  0  0  0  0  0
   -2.0094   -1.5142   31.1793 C   0  0  0  0  0  0  0  0  0  0  0  0
   -2.1608   -0.7188   27.6716 N   0  0  0  0  0  0  0  0  0  0  0  0
   -2.4770    0.2372   26.7924 C   0  0  0  0  0  0  0  0  0  0  0  0
   -3.2131    1.5790   27.5909 O   0  0  0  0  0  0  0  0  0  0  0  0
   -7.7803   -1.8888   27.6365 C   0  0  0  0  0  0  0  0  0  0  0  0
   -7.2778   -2.8592   27.8748 C   0  0  0  0  0  0  0  0  0  0  0  0
   -7.8825   -4.1994   27.9010 C   0  0  0  0  0  0  0  0  0  0  0  0
   -9.1924   -4.2296   27.5548 C   0  0  0  0  0  0  0  0  0  0  0  0
   -9.8779   -3.0646   27.2488 C   0  0  0  0  0  0  0  0  0  0  0  0
   -9.2463   -1.8662   27.3350 C   0  0  0  0  0  0  0  0  0  0  0  0
  -11.5877    3.8903   25.5687 C   0  0  0  0  0  0  0  0  0  0  0  0
  -11.6570    3.5275   24.2679 C   0  0  0  0  0  0  0  0  0  0  0  0
  -12.7337    3.7048   23.5250 C   0  0  0  0  0  0  0  0  0  0  0  0
  -13.9466    4.1655   24.1873 C   0  0  0  0  0  0  0  0  0  0  0  0
  -13.8839    4.5575   25.5154 C   0  0  0  0  0  0  0  0  0  0  0  0
  -12.6952    4.5404   26.2440 C   0  0  0  0  0  0  0  0  0  0  0  0
  -12.6643    4.8572   27.6639 C   0  0  0  0  0  0  0  0  0  0  0  0
  -13.1494    3.8516   28.5579 C   0  0  0  0  0  0  0  0  0  0  0  0
  -14.0341    4.0947   29.5168 C   0  0  0  0  0  0  0  0  0  0  0  0
  2  5  1  0
  3 13  1  0
 13 14  2  0
 13 15  1  0
 16  9  1  6
 16 17  1  0
 17 18  1  0
 17 20  1  0
 19 22  1  0
 21 22  1  0
 20 23  1  0
 23 24  1  0
 16 25  1  0
 24 25  1  0
 12 26  1  0
  7 32  1  0
 37 38  1  0
 38 39  1  0
 39 40  2  0
 18 19  1  0
 20 21  1  1
 32 33  2  0
 33 34  1  0
 34 35  2  0
 35 36  1  0
 36 37  2  0
 37 32  1  0
  1  2  2  0
  2  6  1  0
  6  7  2  0
  7  4  1  0
  4  3  2  0
  3  1  1  0
  5  8  2  0
  8  9  1  0
  9 10  2  0
 10 12  1  0
 12 11  2  0
 11  5  1  0
 26 27  2  0
 27 28  1  0
 28 29  2  0
 29 30  1  0
 30 31  2  0
 31 26  1  0
M  END
$$$$
