No_9952-complexes_sdf/6BKW-FPZ/2024-09-17-14-21-01/
     RDKit          3D

 17 18  0  0  0  0  0  0  0  0999 V2000
   -7.9040    3.9820   27.1177 C   0  0  0  0  0  0  0  0  0  0  0  0
   -9.0711    4.3164   27.0630 C   0  0  0  0  0  0  0  0  0  0  0  0
   -9.5182    5.5541   27.5777 C   0  0  0  0  0  0  0  0  0  0  0  0
   -7.4468    2.6843   26.6499 C   0  0  0  0  0  0  0  0  0  0  0  0
   -8.3856    1.7878   26.2216 C   0  0  0  0  0  0  0  0  0  0  0  0
   -9.6812    2.2328   26.0889 C   0  0  0  0  0  0  0  0  0  0  0  0
  -10.0147    3.4312   26.5259 C   0  0  0  0  0  0  0  0  0  0  0  0
   -7.9132    0.4733   25.8127 C   0  0  0  0  0  0  0  0  0  0  0  0
   -7.2363   -0.3021   26.6221 N   0  0  0  0  0  0  0  0  0  0  0  0
   -7.2634   -0.1431   27.8768 C   0  0  0  0  0  0  0  0  0  0  0  0
   -6.3552   -1.2627   26.0584 C   0  0  0  0  0  0  0  0  0  0  0  0
   -8.6494    6.7148   27.2373 C   0  0  0  0  0  0  0  0  0  0  0  0
   -8.0184    6.7703   26.0537 C   0  0  0  0  0  0  0  0  0  0  0  0
   -8.2223    0.1385   24.6519 O   0  0  0  0  0  0  0  0  0  0  0  0
   -7.3507    8.0968   26.0740 C   0  0  0  0  0  0  0  0  0  0  0  0
   -6.3683   -1.1303   28.6221 C   0  0  0  0  0  0  0  0  0  0  0  0
   -5.7494   -1.8023   27.5007 C   0  0  0  0  0  0  0  0  0  0  0  0
  2  3  1  0
  5  8  1  0
  8  9  1  0
  9 10  1  0
  9 11  1  0
  3 12  1  0
 12 13  1  0
  8 14  2  0
 13 15  1  0
 10 16  2  0
 11 17  2  0
 16 17  1  0
  1  2  2  0
  2  7  1  0
  7  6  2  0
  6  5  1  0
  5  4  2  0
  4  1  1  0
M  END
$$$$
