No_9296-complexes_sdf/6BKW-FPZ/2024-09-17-14-21-01/
     RDKit          3D

 24 27  0  0  0  0  0  0  0  0999 V2000
   -7.2496    3.8871   27.4508 C   0  0  0  0  0  0  0  0  0  0  0  0
   -8.5096    4.0291   27.2770 C   0  0  0  0  0  0  0  0  0  0  0  0
   -9.3451    2.8786   26.9046 C   0  0  0  0  0  0  0  0  0  0  0  0
   -6.6065    2.5680   27.5073 C   0  0  0  0  0  0  0  0  0  0  0  0
   -7.4233    1.4858   27.2402 C   0  0  0  0  0  0  0  0  0  0  0  0
   -8.7362    1.6525   26.9989 C   0  0  0  0  0  0  0  0  0  0  0  0
   -9.1023    5.3710   27.2131 C   0  0  2  0  0  0  0  0  0  0  0  0
   -8.1691    6.8351   26.7964 Br  0  0  0  0  0  0  0  0  0  0  0  0
   -6.7895    0.1660   27.3624 C   0  0  0  0  0  0  0  0  0  0  0  0
   -6.3686   -0.3868   26.5615 C   0  0  0  0  0  0  0  0  0  0  0  0
   -5.6618   -1.7221   26.6663 C   0  0  0  0  0  0  0  0  0  0  0  0
   -5.5114   -2.2345   27.9199 C   0  0  0  0  0  0  0  0  0  0  0  0
   -6.0279   -1.5266   28.9874 C   0  0  0  0  0  0  0  0  0  0  0  0
   -6.6497   -0.2887   28.7963 C   0  0  0  0  0  0  0  0  0  0  0  0
  -10.5024    5.5588   27.5777 C   0  0  0  0  0  0  0  0  0  0  0  0
   -5.9030   -1.9908   30.4037 C   0  0  0  0  0  0  0  0  0  0  0  0
   -5.0669   -2.7650   30.8852 C   0  0  0  0  0  0  0  0  0  0  0  0
   -4.5656   -2.9592   31.7524 C   0  0  0  0  0  0  0  0  0  0  0  0
   -3.4501   -3.8874   32.1058 C   0  0  0  0  0  0  0  0  0  0  0  0
   -2.9904   -4.5690   31.0520 C   0  0  0  0  0  0  0  0  0  0  0  0
   -3.4840   -4.3529   29.8441 C   0  0  0  0  0  0  0  0  0  0  0  0
   -4.4681   -3.4198   29.6350 C   0  0  0  0  0  0  0  0  0  0  0  0
   -4.7899   -3.0841   28.3256 C   0  0  0  0  0  0  0  0  0  0  0  0
  -11.4465    4.5608   27.4473 C   0  0  0  0  0  0  0  0  0  0  0  0
  2  7  1  0
  7  8  1  1
  5  9  1  0
  7 15  1  0
 15 24  2  0
 17 18  1  0
 18 19  2  0
 19 20  1  0
 20 21  2  0
 21 22  1  0
  1  2  2  0
  2  3  1  0
  3  6  2  0
  6  5  1  0
  5  4  2  0
  4  1  1  0
  9 10  2  0
 10 11  1  0
 11 12  2  0
 13 14  2  0
 14  9  1  0
 12 13  1  0
 13 16  1  0
 16 17  2  0
 17 22  1  0
 22 23  2  0
 23 12  1  0
M  END
$$$$
