No_9640-complexes_sdf/6BKW-FPZ/2024-09-17-14-21-01/
     RDKit          3D

 12 13  0  0  0  0  0  0  0  0999 V2000
   -7.7129    4.2099   27.0854 C   0  0  0  0  0  0  0  0  0  0  0  0
   -8.9133    4.4736   27.0998 C   0  0  0  0  0  0  0  0  0  0  0  0
   -9.4643    5.5426   27.7628 C   0  0  0  0  0  0  0  0  0  0  0  0
   -6.8373    4.9942   27.9785 C   0  0  0  0  0  0  0  0  0  0  0  0
   -7.3932    6.0303   28.6784 C   0  0  0  0  0  0  0  0  0  0  0  0
   -8.7122    6.3429   28.5485 C   0  0  0  0  0  0  0  0  0  0  0  0
   -9.9405    3.7026   26.3064 C   0  0  0  0  0  0  0  0  0  0  0  0
  -10.9371    3.4473   26.2472 C   0  0  0  0  0  0  0  0  0  0  0  0
  -11.7217    2.6792   25.2694 C   0  0  0  0  0  0  0  0  0  0  0  0
  -10.9814    2.2062   24.1949 C   0  0  0  0  0  0  0  0  0  0  0  0
   -9.6443    2.4377   24.0990 C   0  0  0  0  0  0  0  0  0  0  0  0
   -8.9825    3.1695   25.0431 C   0  0  0  0  0  0  0  0  0  0  0  0
  2  7  1  0
  1  2  2  0
  2  3  1  0
  3  6  2  0
  6  5  1  0
  5  4  2  0
  4  1  1  0
  7  8  2  0
  8  9  1  0
  9 10  2  0
 10 11  1  0
 11 12  2  0
 12  7  1  0
M  END
$$$$
