No_988-complexes_sdf/6BKW-FPZ/2024-09-17-14-21-01/
     RDKit          3D

 24 26  0  0  0  0  0  0  0  0999 V2000
   -7.7129    4.2099   27.0854 C   0  0  0  0  0  0  0  0  0  0  0  0
   -8.2112    3.0637   26.9225 C   0  0  2  0  0  0  0  0  0  0  0  0
   -7.0021    4.5281   28.2396 C   0  0  0  0  0  0  0  0  0  0  0  0
   -9.4237    2.7810   26.2714 C   0  0  0  0  0  0  0  0  0  0  0  0
   -9.8781    3.7859   25.4663 C   0  0  2  0  0  0  0  0  0  0  0  0
   -9.3689    5.0975   25.5965 C   0  0  0  0  0  0  0  0  0  0  0  0
   -8.4784    5.3402   26.5448 C   0  0  0  0  0  0  0  0  0  0  0  0
  -10.9798    3.5389   24.5162 C   0  0  0  0  0  0  0  0  0  0  0  0
  -10.8020    3.9004   23.2347 C   0  0  0  0  0  0  0  0  0  0  0  0
  -12.1310    2.9282   24.9142 C   0  0  0  0  0  0  0  0  0  0  0  0
  -11.6246    3.6445   22.1603 C   0  0  0  0  0  0  0  0  0  0  0  0
  -13.0973    2.6529   23.8847 C   0  0  0  0  0  0  0  0  0  0  0  0
  -12.8411    3.0563   22.5708 C   0  0  0  0  0  0  0  0  0  0  0  0
   -7.6007    1.8319   27.6123 C   0  0  0  0  0  0  0  0  0  0  0  0
   -6.8009    0.9690   26.8352 C   0  0  0  0  0  0  0  0  0  0  0  0
   -5.8411    0.3002   27.6131 C   0  0  1  0  0  0  0  0  0  0  0  0
   -6.0530   -0.9299   28.1276 C   0  0  0  0  0  0  0  0  0  0  0  0
   -6.7781   -1.6878   27.9338 C   0  0  0  0  0  0  0  0  0  0  0  0
   -7.0742   -2.9582   28.6497 C   0  0  0  0  0  0  0  0  0  0  0  0
   -6.3262   -3.1502   29.8070 C   0  0  0  0  0  0  0  0  0  0  0  0
   -5.3825   -2.2373   30.2120 C   0  0  0  0  0  0  0  0  0  0  0  0
   -5.1988   -1.0498   29.4974 C   0  0  0  0  0  0  0  0  0  0  0  0
   -4.4781    0.9396   27.6162 C   0  0  0  0  0  0  0  0  0  0  0  0
   -3.8623    1.2632   28.6670 O   0  0  0  0  0  0  0  0  0  0  0  0
  1  2  1  0
  1  3  2  0
  2  4  1  0
  4  5  1  0
  5  6  1  0
  1  7  1  0
  6  7  1  0
  5  8  1  1
  2 14  1  1
 14 15  1  0
 16 15  1  6
 16 17  1  0
 16 23  1  0
 23 24  2  0
 17 18  2  0
 18 19  1  0
 19 20  2  0
 20 21  1  0
 21 22  2  0
 22 17  1  0
  8  9  2  0
  9 11  1  0
 11 13  2  0
 13 12  1  0
 12 10  2  0
 10  8  1  0
M  END
$$$$
