No_9756-complexes_sdf/6BKW-FPZ/2024-09-17-14-21-01/
     RDKit          3D

 39 42  0  0  0  0  0  0  0  0999 V2000
   -7.7129    4.2099   27.0854 C   0  0  0  0  0  0  0  0  0  0  0  0
   -8.9133    4.4736   27.0998 C   0  0  0  0  0  0  0  0  0  0  0  0
   -9.4616    5.6470   27.6290 C   0  0  0  0  0  0  0  0  0  0  0  0
   -7.2326    2.9175   26.7557 C   0  0  0  0  0  0  0  0  0  0  0  0
   -8.1546    1.9086   26.5054 C   0  0  0  0  0  0  0  0  0  0  0  0
   -9.4618    2.2289   26.4212 C   0  0  0  0  0  0  0  0  0  0  0  0
   -9.8481    3.4572   26.7692 C   0  0  0  0  0  0  0  0  0  0  0  0
   -7.6166    0.5674   26.2050 C   0  0  0  0  0  0  0  0  0  0  0  0
   -6.8931   -0.1325   27.2114 C   0  0  0  0  0  0  0  0  0  0  0  0
   -6.3139    0.3335   28.1034 C   0  0  0  0  0  0  0  0  0  0  0  0
   -5.3884   -0.3668   29.0278 C   0  0  0  0  0  0  0  0  0  0  0  0
   -5.4151   -1.7016   28.9178 C   0  0  0  0  0  0  0  0  0  0  0  0
   -6.7642   -1.5579   27.1161 C   0  0  0  0  0  0  0  0  0  0  0  0
   -6.0928   -2.3106   27.9479 C   0  0  0  0  0  0  0  0  0  0  0  0
   -4.6721    0.3465   29.9813 O   0  0  0  0  0  0  0  0  0  0  0  0
   -4.1141   -0.2768   31.0475 C   0  0  0  0  0  0  0  0  0  0  0  0
   -4.8507   -0.5701   32.0722 C   0  0  0  0  0  0  0  0  0  0  0  0
   -4.4034   -1.3075   32.9768 C   0  0  0  0  0  0  0  0  0  0  0  0
   -3.0167   -1.5469   33.2267 C   0  0  0  0  0  0  0  0  0  0  0  0
   -2.2130   -1.1687   32.1389 C   0  0  0  0  0  0  0  0  0  0  0  0
   -2.7191   -0.5448   31.0490 C   0  0  0  0  0  0  0  0  0  0  0  0
   -8.8876    6.8093   26.9645 C   0  0  0  0  0  0  0  0  0  0  0  0
   -8.0472    6.8512   26.0964 C   0  0  0  0  0  0  0  0  0  0  0  0
   -7.4725    8.2230   25.8854 C   0  0  0  0  0  0  0  0  0  0  0  0
   -2.3703   -2.4169   34.7366 Br  0  0  0  0  0  0  0  0  0  0  0  0
   -6.0771   -3.7803   27.8479 C   0  0  0  0  0  0  0  0  0  0  0  0
   -5.5811   -4.4030   28.5392 O   0  0  0  0  0  0  0  0  0  0  0  0
   -6.8019   -4.2643   26.8137 O   0  0  0  0  0  0  0  0  0  0  0  0
  -10.4224    1.1531   26.1261 C   0  0  2  0  0  0  0  0  0  0  0  0
  -11.2540    1.4033   25.1517 C   0  0  0  0  0  0  0  0  0  0  0  0
  -11.8722    2.2159   24.7989 C   0  0  0  0  0  0  0  0  0  0  0  0
  -12.7605    2.3475   23.6107 C   0  0  0  0  0  0  0  0  0  0  0  0
  -12.8338    1.2354   22.8902 C   0  0  0  0  0  0  0  0  0  0  0  0
  -12.1450    0.1068   23.2189 C   0  0  0  0  0  0  0  0  0  0  0  0
  -11.3428    0.0950   24.2890 C   0  0  0  0  0  0  0  0  0  0  0  0
  -10.5673    0.1035   27.0815 C   0  0  0  0  0  0  0  0  0  0  0  0
  -10.6462   -1.0922   26.7830 N   0  0  0  0  0  0  0  0  0  0  0  0
  -11.0929   -2.0729   27.5096 C   0  0  0  0  0  0  0  0  0  0  0  0
  -11.5618   -1.7949   28.7289 C   0  0  0  0  0  0  0  0  0  0  0  0
  2  3  1  0
  5  8  1  0
  8  9  1  0
 11 15  1  0
 15 16  1  0
  3 22  1  0
 22 23  2  3
 23 24  1  0
 19 25  1  0
 14 26  1  0
 26 27  2  0
 26 28  1  0
 29  6  1  1
 29 30  1  0
 29 36  1  0
 36 37  2  3
 37 38  1  0
 38 39  1  0
 30 31  2  0
 31 32  1  0
 32 33  2  0
 33 34  1  0
 34 35  2  0
 35 30  1  0
  1  2  2  0
  2  7  1  0
  7  6  2  0
  6  5  1  0
  5  4  2  0
  4  1  1  0
  9 10  2  0
 10 11  1  0
 11 12  2  0
 12 14  1  0
 14 13  2  0
 13  9  1  0
 16 17  2  0
 17 18  1  0
 18 19  2  0
 19 20  1  0
 20 21  2  0
 21 16  1  0
M  END
$$$$
