No_9778-complexes_sdf/6BKW-FPZ/2024-09-17-14-21-01/
     RDKit          3D

 39 44  0  0  0  0  0  0  0  0999 V2000
   -7.9040    3.9820   27.1177 C   0  0  0  0  0  0  0  0  0  0  0  0
   -8.2057    2.8231   26.8733 C   0  0  0  0  0  0  0  0  0  0  0  0
   -9.2962    2.4021   26.1155 C   0  0  0  0  0  0  0  0  0  0  0  0
   -8.7358    5.0662   26.5917 C   0  0  0  0  0  0  0  0  0  0  0  0
   -9.7618    4.7023   25.7546 C   0  0  0  0  0  0  0  0  0  0  0  0
  -10.0066    3.4105   25.4922 C   0  0  0  0  0  0  0  0  0  0  0  0
   -8.1995    6.4306   26.9121 C   0  0  0  0  0  0  0  0  0  0  0  0
   -8.8403    7.3680   26.4305 F   0  0  0  0  0  0  0  0  0  0  0  0
   -6.8862    6.5675   26.7985 F   0  0  0  0  0  0  0  0  0  0  0  0
   -8.4557    6.5057   28.3579 F   0  0  0  0  0  0  0  0  0  0  0  0
   -7.3591    1.6579   27.4919 C   0  0  0  0  0  0  0  0  0  0  0  0
   -7.7575    0.3252   27.3914 C   0  0  0  0  0  0  0  0  0  0  0  0
   -6.9919   -0.6723   27.9048 C   0  0  0  0  0  0  0  0  0  0  0  0
   -7.4958   -1.9753   28.0432 C   0  0  0  0  0  0  0  0  0  0  0  0
   -8.8163   -2.1716   27.5737 C   0  0  0  0  0  0  0  0  0  0  0  0
   -9.5921   -1.1972   27.0994 C   0  0  0  0  0  0  0  0  0  0  0  0
   -9.0962    0.1032   27.0640 C   0  0  0  0  0  0  0  0  0  0  0  0
   -9.5669    1.0605   25.8383 C   0  0  0  0  0  0  0  0  0  0  0  0
   -5.6213   -0.4072   28.4519 C   0  0  0  0  0  0  0  0  0  0  0  0
   -5.0985   -1.0054   29.5648 C   0  0  0  0  0  0  0  0  0  0  0  0
   -3.7953   -0.5776   30.0223 C   0  0  0  0  0  0  0  0  0  0  0  0
   -3.0923    0.1475   29.4422 C   0  0  0  0  0  0  0  0  0  0  0  0
   -4.7551    0.5541   27.8111 C   0  0  0  0  0  0  0  0  0  0  0  0
   -3.5061    0.8529   28.2547 C   0  0  0  0  0  0  0  0  0  0  0  0
   -3.3216   -1.3269   31.3145 C   0  0  0  0  0  0  0  0  0  0  0  0
   -2.8400   -0.9176   32.1637 C   0  0  0  0  0  0  0  0  0  0  0  0
   -2.4159   -1.3778   33.4204 C   0  0  0  0  0  0  0  0  0  0  0  0
   -2.8038   -2.6628   33.6926 C   0  0  0  0  0  0  0  0  0  0  0  0
   -3.5040   -3.3064   32.6973 C   0  0  0  0  0  0  0  0  0  0  0  0
   -3.8543   -2.6886   31.5145 C   0  0  0  0  0  0  0  0  0  0  0  0
  -11.1158    3.1795   24.5596 C   0  0  0  0  0  0  0  0  0  0  0  0
  -12.3391    3.1012   24.9884 C   0  0  0  0  0  0  0  0  0  0  0  0
  -13.4017    2.8738   24.2131 C   0  0  0  0  0  0  0  0  0  0  0  0
  -10.8121    2.9644   23.2211 C   0  0  0  0  0  0  0  0  0  0  0  0
  -11.7614    2.7570   22.3052 C   0  0  0  0  0  0  0  0  0  0  0  0
  -13.1087    2.7502   22.8011 C   0  0  0  0  0  0  0  0  0  0  0  0
   -1.6118   -0.5933   34.4481 C   0  0  0  0  0  0  0  0  0  0  0  0
   -0.5628   -0.1309   34.1530 O   0  0  0  0  0  0  0  0  0  0  0  0
   -2.2407   -0.3188   35.5585 O   0  0  0  0  0  0  0  0  0  0  0  0
  4  7  1  0
  7  8  1  0
  7  9  1  0
  7 10  1  0
 13 19  1  0
 21 25  1  0
  6 31  1  0
 27 37  1  0
 37 38  1  0
 37 39  2  0
  3 18  1  0
 18 17  2  0
 12 11  2  0
 11  2  1  0
 12 13  1  0
 13 14  2  0
 14 15  1  0
 15 16  2  0
 16 17  1  0
 17 12  1  0
 25 26  2  0
 26 27  1  0
 27 28  2  0
 28 29  1  0
 29 30  2  0
 30 25  1  0
  1  2  2  0
  2  3  1  0
  3  6  2  0
  6  5  1  0
  5  4  2  0
  4  1  1  0
 19 20  2  0
 20 21  1  0
 21 22  2  0
 22 24  1  0
 24 23  2  0
 23 19  1  0
 31 32  2  0
 32 33  1  0
 33 36  2  0
 36 35  1  0
 35 34  2  0
 34 31  1  0
M  END
$$$$
