No_9383-complexes_sdf/6BKW-FPZ/2024-09-17-14-21-01/
     RDKit          3D

 40 45  0  0  0  0  0  0  0  0999 V2000
   -7.2496    3.8871   27.4508 C   0  0  0  0  0  0  0  0  0  0  0  0
   -8.5096    4.0291   27.2770 C   0  0  0  0  0  0  0  0  0  0  0  0
   -9.2669    5.1645   27.5845 C   0  0  0  0  0  0  0  0  0  0  0  0
   -8.4566    6.3212   27.8001 C   0  0  0  0  0  0  0  0  0  0  0  0
   -6.4744    5.0029   27.8552 C   0  0  0  0  0  0  0  0  0  0  0  0
   -7.1338    6.2312   27.9553 C   0  0  0  0  0  0  0  0  0  0  0  0
   -9.3614    2.7712   27.0027 C   0  0  0  0  0  0  0  0  0  0  0  0
  -10.6298    2.7269   27.2023 C   0  0  0  0  0  0  0  0  0  0  0  0
  -11.2653    3.9828   27.6843 C   0  0  0  0  0  0  0  0  0  0  0  0
  -10.6419    5.1344   27.7160 N   0  0  0  0  0  0  0  0  0  0  0  0
  -12.7495    4.0196   27.7936 C   0  0  0  0  0  0  0  0  0  0  0  0
  -13.2821    4.4196   28.5898 C   0  0  0  0  0  0  0  0  0  0  0  0
  -14.7778    4.5509   28.7989 C   0  0  0  0  0  0  0  0  0  0  0  0
  -15.5007    4.0326   27.7710 C   0  0  0  0  0  0  0  0  0  0  0  0
  -13.6575    3.5794   26.7079 C   0  0  0  0  0  0  0  0  0  0  0  0
  -14.9055    3.6321   26.7022 C   0  0  0  0  0  0  0  0  0  0  0  0
   -8.6523    1.5221   26.7733 C   0  0  0  0  0  0  0  0  0  0  0  0
   -7.6579    1.2223   26.7658 N   0  0  0  0  0  0  0  0  0  0  0  0
   -7.1197   -0.0512   26.4570 C   0  0  0  0  0  0  0  0  0  0  0  0
   -9.4814    0.4802   26.1119 C   0  0  0  0  0  0  0  0  0  0  0  0
   -9.0775   -0.6732   25.7810 C   0  0  0  0  0  0  0  0  0  0  0  0
   -7.7855   -0.9778   25.9629 C   0  0  0  0  0  0  0  0  0  0  0  0
   -5.6337   -0.1649   26.6711 N   0  0  0  0  0  0  0  0  0  0  0  0
   -5.1180   -0.6775   27.8171 C   0  0  0  0  0  0  0  0  0  0  0  0
   -4.4211   -0.5021   28.5183 C   0  0  0  0  0  0  0  0  0  0  0  0
   -4.0848   -1.1570   29.8528 C   0  0  0  0  0  0  0  0  0  0  0  0
   -4.8971   -2.2033   30.1509 C   0  0  0  0  0  0  0  0  0  0  0  0
   -6.0539   -1.9019   28.2430 C   0  0  0  0  0  0  0  0  0  0  0  0
   -5.8441   -2.5419   29.3797 C   0  0  0  0  0  0  0  0  0  0  0  0
   -3.3718    0.7560   28.3744 C   0  0  0  0  0  0  0  0  0  0  0  0
   -3.7991    1.7824   28.0669 N   0  0  0  0  0  0  0  0  0  0  0  0
   -2.1363    0.4208   28.2763 O   0  0  0  0  0  0  0  0  0  0  0  0
   -6.7907   -3.6771   29.6755 C   0  0  0  0  0  0  0  0  0  0  0  0
   -7.2354   -3.9226   30.5921 C   0  0  0  0  0  0  0  0  0  0  0  0
   -8.2046   -5.0413   30.9279 C   0  0  0  0  0  0  0  0  0  0  0  0
   -8.5919   -5.7509   29.8153 C   0  0  0  0  0  0  0  0  0  0  0  0
   -8.0966   -5.4365   28.5927 C   0  0  0  0  0  0  0  0  0  0  0  0
   -7.2323   -4.4070   28.4627 C   0  0  0  0  0  0  0  0  0  0  0  0
  -15.7006    3.0573   25.5632 C   0  0  0  0  0  0  0  0  0  0  0  0
  -16.1049    2.0742   25.3782 C   0  0  0  0  0  0  0  0  0  0  0  0
  9 11  1  0
  7 17  1  0
 19 23  1  0
 23 24  1  0
 25 30  1  0
 30 31  1  0
 30 32  2  0
 29 33  1  0
 16 39  1  0
 39 40  2  0
 24 25  2  0
 25 26  1  0
 26 27  2  0
 27 29  1  0
 29 28  2  0
 28 24  1  0
 33 34  2  0
 34 35  1  0
 35 36  2  0
 36 37  1  0
 37 38  2  0
 38 33  1  0
  1  2  2  0
  3  4  2  0
  4  6  1  0
  6  5  2  0
  5  1  1  0
  2  3  1  0
  3 10  1  0
 10  9  2  0
  9  8  1  0
  8  7  2  0
  7  2  1  0
 11 12  2  0
 12 13  1  0
 13 14  2  0
 14 16  1  0
 16 15  2  0
 15 11  1  0
 17 18  2  0
 18 19  1  0
 19 22  2  0
 22 21  1  0
 21 20  2  0
 20 17  1  0
M  END
$$$$
