No_9538-complexes_sdf/6BKW-FPZ/2024-09-17-14-21-01/
     RDKit          3D

 31 34  0  0  0  0  0  0  0  0999 V2000
   -7.9040    3.9820   27.1177 C   0  0  0  0  0  0  0  0  0  0  0  0
   -9.0711    4.3164   27.0630 C   0  0  0  0  0  0  0  0  0  0  0  0
   -9.9692    3.7224   26.1073 C   0  0  0  0  0  0  0  0  0  0  0  0
   -6.9787    4.6761   28.1003 C   0  0  0  0  0  0  0  0  0  0  0  0
   -9.4538    2.6801   25.3673 C   0  0  0  0  0  0  0  0  0  0  0  0
   -8.1927    2.1957   25.6621 C   0  0  0  0  0  0  0  0  0  0  0  0
   -7.4333    2.8255   26.6299 C   0  0  0  0  0  0  0  0  0  0  0  0
  -10.3066    1.9975   24.3777 C   0  0  0  0  0  0  0  0  0  0  0  0
  -11.2414    1.4779   24.5755 C   0  0  0  0  0  0  0  0  0  0  0  0
   -9.4345    1.4012   23.2826 C   0  0  0  0  0  0  0  0  0  0  0  0
   -6.9079    5.6881   28.3632 N   0  0  0  0  0  0  0  0  0  0  0  0
   -5.7029    3.9654   28.2202 N   0  0  0  0  0  0  0  0  0  0  0  0
  -10.0403    1.1035   22.0395 C   0  0  0  0  0  0  0  0  0  0  0  0
  -12.1092    1.0042   23.4070 C   0  0  0  0  0  0  0  0  0  0  0  0
  -11.3801    0.6824   22.2442 C   0  0  0  0  0  0  0  0  0  0  0  0
  -12.0824    0.1629   21.0512 C   0  0  0  0  0  0  0  0  0  0  0  0
  -11.4257   -0.7557   20.3202 C   0  0  0  0  0  0  0  0  0  0  0  0
  -11.8043   -1.0263   19.0217 C   0  0  0  0  0  0  0  0  0  0  0  0
  -13.0189   -0.4768   18.5664 C   0  0  0  0  0  0  0  0  0  0  0  0
  -13.1487    0.8084   20.4414 C   0  0  0  0  0  0  0  0  0  0  0  0
  -13.6189    0.4967   19.2605 C   0  0  0  0  0  0  0  0  0  0  0  0
  -13.4596    0.6878   23.5141 C   0  0  0  0  0  0  0  0  0  0  0  0
  -14.1554    1.7264   23.8455 C   0  0  0  0  0  0  0  0  0  0  0  0
  -13.8494    2.7907   24.4274 C   0  0  0  0  0  0  0  0  0  0  0  0
  -14.7534    3.8776   24.8512 C   0  0  0  0  0  0  0  0  0  0  0  0
  -14.2690    4.9748   25.6688 C   0  0  0  0  0  0  0  0  0  0  0  0
  -12.9504    4.8925   26.1683 C   0  0  0  0  0  0  0  0  0  0  0  0
  -12.1413    3.8450   25.8716 C   0  0  0  0  0  0  0  0  0  0  0  0
  -12.5672    2.8720   25.1242 C   0  0  0  0  0  0  0  0  0  0  0  0
  -12.5176    2.0331   25.8127 F   0  0  0  0  0  0  0  0  0  0  0  0
  -11.2674    0.1964   25.4805 C   0  0  0  0  0  0  0  0  0  0  0  0
  1  4  1  0
  5  8  1  0
  4 11  2  0
  4 12  1  0
 15 16  1  0
 14 22  1  0
 22 23  1  0
 29 30  1  0
  9 31  1  0
 23 24  1  0
  8  9  2  0
  9 14  1  0
 14 15  2  0
 15 13  1  0
 13 10  2  0
 10  8  1  0
 16 17  2  0
 17 18  1  0
 18 19  2  0
 19 21  1  0
 21 20  2  0
 20 16  1  0
 24 25  2  0
 25 26  1  0
 26 27  2  0
 27 28  1  0
 28 29  2  0
 29 24  1  0
  1  2  2  0
  2  3  1  0
  3  5  2  0
  5  6  1  0
  6  7  2  0
  7  1  1  0
M  END
$$$$
