No_9226-complexes_sdf/6BKW-FPZ/2024-09-17-14-21-01/
     RDKit          3D

 31 33  0  0  0  0  0  0  0  0999 V2000
   -7.9040    3.9820   27.1177 C   0  0  0  0  0  0  0  0  0  0  0  0
   -8.2057    2.8231   26.8733 C   0  0  0  0  0  0  0  0  0  0  0  0
   -7.4766    1.7477   27.4593 C   0  0  0  0  0  0  0  0  0  0  0  0
   -8.7468    5.1251   26.6967 C   0  0  0  0  0  0  0  0  0  0  0  0
   -9.7234    4.8589   25.8202 C   0  0  0  0  0  0  0  0  0  0  0  0
   -9.9711    3.5858   25.4266 C   0  0  0  0  0  0  0  0  0  0  0  0
   -9.2266    2.4957   25.9600 C   0  0  0  0  0  0  0  0  0  0  0  0
   -6.6635    0.9000   26.7532 C   0  0  0  0  0  0  0  0  0  0  0  0
   -5.7321    0.1432   27.5393 C   0  0  0  0  0  0  0  0  0  0  0  0
   -4.8376    0.0601   28.0372 C   0  0  0  0  0  0  0  0  0  0  0  0
   -3.7125    0.8692   28.4283 C   0  0  0  0  0  0  0  0  0  0  0  0
   -8.4266    6.5235   27.0844 C   0  0  0  0  0  0  0  0  0  0  0  0
   -8.5917    7.4967   26.4664 O   0  0  0  0  0  0  0  0  0  0  0  0
   -7.4271    6.5437   28.0485 O   0  0  0  0  0  0  0  0  0  0  0  0
   -3.4174    1.8729   27.8881 F   0  0  0  0  0  0  0  0  0  0  0  0
   -3.6291    1.0791   29.7864 F   0  0  0  0  0  0  0  0  0  0  0  0
   -2.5760    0.1043   28.1957 F   0  0  0  0  0  0  0  0  0  0  0  0
  -11.0157    3.3235   24.4249 C   0  0  0  0  0  0  0  0  0  0  0  0
  -12.2979    3.1002   24.7643 C   0  0  0  0  0  0  0  0  0  0  0  0
  -10.6588    3.3301   23.0426 C   0  0  0  0  0  0  0  0  0  0  0  0
  -11.4306    3.2200   21.9884 C   0  0  0  0  0  0  0  0  0  0  0  0
  -13.2611    2.9920   23.6992 C   0  0  0  0  0  0  0  0  0  0  0  0
  -12.8313    3.0663   22.3768 C   0  0  0  0  0  0  0  0  0  0  0  0
   -9.4589    1.2887   25.5685 O   0  0  0  0  0  0  0  0  0  0  0  0
  -10.2656    0.4641   26.1795 C   0  0  0  0  0  0  0  0  0  0  0  0
   -9.8227   -0.7958   26.3577 C   0  0  0  0  0  0  0  0  0  0  0  0
   -9.2089   -1.5128   25.5807 C   0  0  0  0  0  0  0  0  0  0  0  0
   -8.5442   -2.6512   25.9163 C   0  0  0  0  0  0  0  0  0  0  0  0
   -8.7145   -3.1703   27.2204 C   0  0  0  0  0  0  0  0  0  0  0  0
   -9.4355   -2.4511   28.1908 C   0  0  0  0  0  0  0  0  0  0  0  0
   -9.9827   -1.2241   27.8229 C   0  0  0  0  0  0  0  0  0  0  0  0
  2  3  1  0
  3  8  1  0
  8  9  2  3
  9 10  1  0
 10 11  1  0
  4 12  1  0
 12 13  2  0
 12 14  1  0
 11 15  1  0
 11 16  1  0
 11 17  1  0
  6 18  1  0
  7 24  1  0
 24 25  1  0
 25 26  1  0
 26 27  2  0
 27 28  1  0
 28 29  2  0
 29 30  1  0
 30 31  2  0
 31 26  1  0
 18 19  2  0
 19 22  1  0
 22 23  2  0
 23 21  1  0
 21 20  2  0
 20 18  1  0
  1  2  2  0
  2  7  1  0
  7  6  2  0
  6  5  1  0
  5  4  2  0
  4  1  1  0
M  END
$$$$
