No_9028-complexes_sdf/6BKW-FPZ/2024-09-17-14-21-01/
     RDKit          3D

 24 26  0  0  0  0  0  0  0  0999 V2000
   -7.7129    4.2099   27.0854 C   0  0  0  0  0  0  0  0  0  0  0  0
   -8.9133    4.4736   27.0998 C   0  0  0  0  0  0  0  0  0  0  0  0
   -9.7937    3.7368   26.2091 C   0  0  0  0  0  0  0  0  0  0  0  0
   -7.2496    2.8647   26.8496 C   0  0  0  0  0  0  0  0  0  0  0  0
   -8.1891    1.9790   26.3454 C   0  0  0  0  0  0  0  0  0  0  0  0
   -9.4252    2.4603   26.0121 C   0  0  0  0  0  0  0  0  0  0  0  0
   -9.1215    6.0211   27.2510 C   0  0  0  0  0  0  0  0  0  0  0  0
   -8.2443    6.9920   26.8595 C   0  0  0  0  0  0  0  0  0  0  0  0
   -7.7713    0.5763   26.1648 C   0  0  0  0  0  0  0  0  0  0  0  0
   -6.8452   -0.0000   26.9940 C   0  0  0  0  0  0  0  0  0  0  0  0
   -6.4432   -1.3492   26.8434 C   0  0  0  0  0  0  0  0  0  0  0  0
   -7.0991   -2.0615   25.8312 C   0  0  0  0  0  0  0  0  0  0  0  0
   -8.1913   -0.5481   25.3542 C   0  0  2  0  0  0  0  0  0  0  0  0
   -9.4267    6.2592   28.8014 C   0  0  0  0  0  0  0  0  0  0  0  0
   -9.1811   -0.7133   24.1404 Cl  0  0  0  0  0  0  0  0  0  0  0  0
   -5.4648   -2.0193   27.6982 C   0  0  0  0  0  0  0  0  0  0  0  0
   -4.4072   -1.8378   27.9267 C   0  0  0  0  0  0  0  0  0  0  0  0
   -3.4707   -1.6397   28.4940 C   0  0  0  0  0  0  0  0  0  0  0  0
   -3.1953   -1.0671   29.8239 C   0  0  0  0  0  0  0  0  0  0  0  0
   -3.5627    0.2683   30.1050 C   0  0  0  0  0  0  0  0  0  0  0  0
   -3.4860    0.7189   31.4946 C   0  0  0  0  0  0  0  0  0  0  0  0
   -2.6682   -1.7763   30.9453 C   0  0  0  0  0  0  0  0  0  0  0  0
   -2.5514   -1.3782   32.2227 C   0  0  0  0  0  0  0  0  0  0  0  0
   -2.9324   -0.0793   32.5089 C   0  0  0  0  0  0  0  0  0  0  0  0
  2  7  1  0
  7  8  1  0
  5  9  1  0
  9 10  2  0
 10 11  1  0
 11 12  2  0
  9 13  1  0
 12 13  1  0
  7 14  1  0
 13 15  1  6
 11 16  1  0
 16 17  2  3
 17 18  1  0
 18 19  1  0
 19 20  2  0
 20 21  1  0
 21 24  2  0
 24 23  1  0
 23 22  2  0
 22 19  1  0
  1  2  2  0
  2  3  1  0
  3  6  2  0
  6  5  1  0
  5  4  2  0
  4  1  1  0
M  END
$$$$
