No_9157-complexes_sdf/6BKW-FPZ/2024-09-17-14-21-01/
     RDKit          3D

 20 22  0  0  0  0  0  0  0  0999 V2000
   -7.7129    4.2099   27.0854 C   0  0  0  0  0  0  0  0  0  0  0  0
   -7.7814    5.1722   27.8972 C   0  0  0  0  0  0  0  0  0  0  0  0
   -8.8998    3.8713   26.3707 C   0  0  0  0  0  0  0  0  0  0  0  0
   -8.9563    2.6796   25.5490 C   0  0  0  0  0  0  0  0  0  0  0  0
   -8.8131    6.1334   27.9344 C   0  0  0  0  0  0  0  0  0  0  0  0
   -9.9804    5.8121   27.1929 C   0  0  0  0  0  0  0  0  0  0  0  0
   -9.9861    4.6836   26.4532 C   0  0  0  0  0  0  0  0  0  0  0  0
   -9.8430    2.5340   24.5239 C   0  0  0  0  0  0  0  0  0  0  0  0
   -9.8790    1.4070   23.7587 C   0  0  0  0  0  0  0  0  0  0  0  0
   -8.8997    0.3758   23.9918 C   0  0  0  0  0  0  0  0  0  0  0  0
   -8.0272    0.4806   25.0346 C   0  0  0  0  0  0  0  0  0  0  0  0
   -8.0026    1.6160   25.8446 C   0  0  0  0  0  0  0  0  0  0  0  0
   -6.6736    5.5715   28.6288 O   0  0  0  0  0  0  0  0  0  0  0  0
   -6.8301   -0.9007   25.3821 Br  0  0  0  0  0  0  0  0  0  0  0  0
  -10.7844    1.3109   22.6327 C   0  0  0  0  0  0  0  0  0  0  0  0
  -12.0806    1.0344   22.9670 C   0  0  0  0  0  0  0  0  0  0  0  0
  -12.9915    1.0118   22.0895 C   0  0  0  0  0  0  0  0  0  0  0  0
  -12.6691    1.1542   20.6920 C   0  0  0  0  0  0  0  0  0  0  0  0
  -11.3601    1.4182   20.3045 C   0  0  0  0  0  0  0  0  0  0  0  0
  -10.3518    1.5237   21.3020 C   0  0  0  0  0  0  0  0  0  0  0  0
  3  4  1  0
  2 13  1  0
 11 14  1  0
  9 15  1  0
  4  8  2  0
  8  9  1  0
  9 10  2  0
 10 11  1  0
 11 12  2  0
 12  4  1  0
 15 16  2  0
 16 17  1  0
 17 18  2  0
 18 19  1  0
 19 20  2  0
 20 15  1  0
  1  2  2  0
  2  5  1  0
  5  6  2  0
  6  7  1  0
  7  3  2  0
  3  1  1  0
M  END
$$$$
