No_9902-complexes_sdf/6BKW-FPZ/2024-09-17-14-21-01/
     RDKit          3D

 32 37  0  0  0  0  0  0  0  0999 V2000
   -7.9040    3.9820   27.1177 C   0  0  0  0  0  0  0  0  0  0  0  0
   -7.8663    4.8694   27.9238 C   0  0  0  0  0  0  0  0  0  0  0  0
   -9.0491    3.8523   26.2542 C   0  0  0  0  0  0  0  0  0  0  0  0
   -8.7661    5.9491   27.9690 C   0  0  0  0  0  0  0  0  0  0  0  0
   -9.9279    4.8544   26.1938 C   0  0  0  0  0  0  0  0  0  0  0  0
   -9.8044    5.9413   27.0782 C   0  0  0  0  0  0  0  0  0  0  0  0
   -7.0257    2.8867   27.1969 N   0  0  0  0  0  0  0  0  0  0  0  0
   -5.9683    2.9578   27.9777 C   0  0  0  0  0  0  0  0  0  0  0  0
   -7.4258    1.5702   26.7631 C   0  0  0  0  0  0  0  0  0  0  0  0
   -5.0742    1.8707   28.0777 N   0  0  0  0  0  0  0  0  0  0  0  0
   -5.5011    0.6901   27.7688 C   0  0  0  0  0  0  0  0  0  0  0  0
   -6.6680    0.5077   27.1404 C   0  0  0  0  0  0  0  0  0  0  0  0
   -4.7181   -0.3217   28.0667 F   0  0  0  0  0  0  0  0  0  0  0  0
  -10.8654    4.8455   25.2980 F   0  0  0  0  0  0  0  0  0  0  0  0
   -5.4694    4.1144   28.2575 O   0  0  0  0  0  0  0  0  0  0  0  0
   -7.1063   -0.8416   26.7112 C   0  0  0  0  0  0  0  0  0  0  0  0
   -8.3126   -0.9216   26.1484 C   0  0  0  0  0  0  0  0  0  0  0  0
   -9.0905    0.2173   25.8160 C   0  0  0  0  0  0  0  0  0  0  0  0
   -8.6398    1.4660   26.1264 C   0  0  0  0  0  0  0  0  0  0  0  0
   -9.3919    2.6018   25.6823 C   0  0  0  0  0  0  0  0  0  0  0  0
  -10.3407    0.0199   25.0644 C   0  0  0  0  0  0  0  0  0  0  0  0
  -10.3251   -0.7726   24.0685 C   0  0  0  0  0  0  0  0  0  0  0  0
  -11.4502   -0.8708   23.2414 C   0  0  0  0  0  0  0  0  0  0  0  0
  -12.5516   -0.0294   23.4524 C   0  0  0  0  0  0  0  0  0  0  0  0
  -12.5152    0.8717   24.4877 C   0  0  0  0  0  0  0  0  0  0  0  0
  -11.4082    0.9848   25.3206 C   0  0  0  0  0  0  0  0  0  0  0  0
  -13.6789    1.7555   24.7232 C   0  0  0  0  0  0  0  0  0  0  0  0
  -13.7984    2.8175   24.0702 C   0  0  0  0  0  0  0  0  0  0  0  0
  -14.8108    3.7798   24.3531 C   0  0  0  0  0  0  0  0  0  0  0  0
  -15.6609    3.5158   25.4304 C   0  0  0  0  0  0  0  0  0  0  0  0
  -14.4312    1.5179   25.9162 C   0  0  0  0  0  0  0  0  0  0  0  0
  -15.4666    2.4090   26.2206 C   0  0  0  0  0  0  0  0  0  0  0  0
  1  7  1  0
  7  8  1  0
  7  9  1  0
  8 10  1  0
 11 12  1  0
 11 13  1  0
  5 14  1  0
  8 15  2  0
  3 20  1  0
 19 20  1  0
 18 21  1  0
 25 27  1  0
 10 11  1  0
  9 19  2  0
 19 18  1  0
 18 17  2  0
 17 16  1  0
 16 12  2  0
 12  9  1  0
  1  2  2  0
  2  4  1  0
  4  6  2  0
  6  5  1  0
  5  3  2  0
  3  1  1  0
 27 28  2  0
 28 29  1  0
 29 30  2  0
 30 32  1  0
 32 31  2  0
 31 27  1  0
 21 22  2  0
 22 23  1  0
 23 24  2  0
 24 25  1  0
 25 26  2  0
 26 21  1  0
M  END
$$$$
