No_9056-complexes_sdf/6BKW-FPZ/2024-09-17-14-21-01/
     RDKit          3D

 40 44  0  0  0  0  0  0  0  0999 V2000
   -7.7129    4.2099   27.0854 C   0  0  0  0  0  0  0  0  0  0  0  0
   -8.9133    4.4736   27.0998 C   0  0  0  0  0  0  0  0  0  0  0  0
   -9.4643    5.5426   27.7628 C   0  0  0  0  0  0  0  0  0  0  0  0
   -7.2009    2.9448   26.6134 C   0  0  0  0  0  0  0  0  0  0  0  0
   -8.1365    1.9533   26.2981 C   0  0  0  0  0  0  0  0  0  0  0  0
   -9.4514    2.2934   26.2667 C   0  0  0  0  0  0  0  0  0  0  0  0
   -9.8600    3.4834   26.7068 C   0  0  0  0  0  0  0  0  0  0  0  0
   -7.8187    0.5887   25.9422 C   0  0  0  0  0  0  0  0  0  0  0  0
   -8.0578    0.0940   24.9349 O   0  0  0  0  0  0  0  0  0  0  0  0
   -6.9759   -0.0683   26.8421 O   0  0  0  0  0  0  0  0  0  0  0  0
   -8.5299    6.4574   28.1413 N   0  0  0  0  0  0  0  0  0  0  0  0
  -10.6417    5.9571   27.5354 N   0  0  0  0  0  0  0  0  0  0  0  0
   -6.5642   -1.2733   26.8149 C   0  0  1  0  0  0  0  0  0  0  0  0
   -5.4631   -1.4794   26.2315 C   0  0  0  0  0  0  0  0  0  0  0  0
   -4.4764   -0.5798   26.5997 C   0  0  0  0  0  0  0  0  0  0  0  0
   -4.4476    0.4984   26.9420 N   0  0  0  0  0  0  0  0  0  0  0  0
   -3.1227   -1.1119   26.6462 N   0  0  0  0  0  0  0  0  0  0  0  0
   -2.1758   -0.1148   27.0316 C   0  0  0  0  0  0  0  0  0  0  0  0
   -3.6139    1.3751   27.4517 C   0  0  0  0  0  0  0  0  0  0  0  0
   -2.3733    1.0424   27.5224 N   0  0  0  0  0  0  0  0  0  0  0  0
   -6.4374   -1.6768   28.4157 C   0  0  0  0  0  0  0  0  0  0  0  0
   -6.1458   -2.9538   28.7084 C   0  0  0  0  0  0  0  0  0  0  0  0
   -6.4854   -3.8714   28.0598 C   0  0  0  0  0  0  0  0  0  0  0  0
   -6.2122   -5.2755   28.4561 C   0  0  0  0  0  0  0  0  0  0  0  0
   -5.4574   -5.4045   29.6423 C   0  0  0  0  0  0  0  0  0  0  0  0
   -5.4393   -3.2003   30.0141 C   0  0  0  0  0  0  0  0  0  0  0  0
   -5.1033   -4.3613   30.4440 C   0  0  0  0  0  0  0  0  0  0  0  0
   -7.7757   -2.1879   26.3682 C   0  0  1  0  0  0  0  0  0  0  0  0
   -7.3187   -3.7106   26.7164 C   0  0  0  0  0  0  0  0  0  0  0  0
   -8.9951   -1.9959   27.2014 C   0  0  0  0  0  0  0  0  0  0  0  0
  -10.1935   -2.1974   26.4600 C   0  0  0  0  0  0  0  0  0  0  0  0
  -10.1988   -2.6050   25.1863 C   0  0  0  0  0  0  0  0  0  0  0  0
   -9.0492   -3.0476   24.6057 C   0  0  0  0  0  0  0  0  0  0  0  0
   -8.9905   -3.5810   23.2363 C   0  0  0  0  0  0  0  0  0  0  0  0
  -10.1376   -3.4519   22.6785 C   0  0  0  0  0  0  0  0  0  0  0  0
  -11.3284   -2.9533   23.1195 C   0  0  0  0  0  0  0  0  0  0  0  0
  -11.3420   -2.5342   24.4058 C   0  0  0  0  0  0  0  0  0  0  0  0
  -11.4940   -2.0162   27.2028 C   0  0  0  0  0  0  0  0  0  0  0  0
  -11.5687   -1.7549   28.3408 O   0  0  0  0  0  0  0  0  0  0  0  0
  -12.5759   -2.0342   26.4699 N   0  0  0  0  0  0  0  0  0  0  0  0
  5  8  1  0
  8  9  2  0
  8 10  1  0
  3 11  1  0
  3 12  1  0
 10 13  1  0
 13 14  1  6
 14 15  1  0
 13 21  1  0
 21 22  1  0
 13 28  1  0
 23 29  1  0
 28 29  1  1
 28 30  1  0
 30 31  2  3
 31 32  1  0
 31 38  1  0
 38 39  2  0
 38 40  1  0
  3  2  1  0
 32 33  2  0
 33 34  1  0
 34 35  2  0
 35 36  1  0
 36 37  2  0
 37 32  1  0
 15 16  2  0
 16 19  1  0
 19 20  2  0
 20 18  1  0
 18 17  2  0
 17 15  1  0
 22 26  2  0
 26 27  1  0
 27 25  2  0
 25 24  1  0
 24 23  2  0
 23 22  1  0
  1  2  2  0
  2  7  1  0
  7  6  2  0
  6  5  1  0
  5  4  2  0
  4  1  1  0
M  END
$$$$
