No_973-complexes_sdf/6BKW-FPZ/2024-09-17-14-21-01/
     RDKit          3D

 20 21  0  0  0  0  0  0  0  0999 V2000
   -7.9040    3.9820   27.1177 C   0  0  0  0  0  0  0  0  0  0  0  0
   -7.8663    4.8694   27.9238 C   0  0  0  0  0  0  0  0  0  0  0  0
   -7.4547    2.7080   27.4594 C   0  0  0  0  0  0  0  0  0  0  0  0
   -8.7044    6.0412   27.8492 C   0  0  0  0  0  0  0  0  0  0  0  0
   -6.9701    1.8932   27.0570 C   0  0  0  0  0  0  0  0  0  0  0  0
   -6.7873    0.5965   26.7327 C   0  0  0  0  0  0  0  0  0  0  0  0
   -8.8511    4.2288   26.1067 C   0  0  0  0  0  0  0  0  0  0  0  0
   -9.4086    3.1620   25.2515 C   0  0  2  0  0  0  0  0  0  0  0  0
   -9.5094    5.4693   26.0662 C   0  0  0  0  0  0  0  0  0  0  0  0
  -10.1195    5.6006   24.8454 F   0  0  0  0  0  0  0  0  0  0  0  0
   -9.3109    6.4463   26.8653 C   0  0  0  0  0  0  0  0  0  0  0  0
   -5.5537    0.0167   27.1840 C   0  0  0  0  0  0  0  0  0  0  0  0
   -4.5753    0.8308   27.7022 C   0  0  0  0  0  0  0  0  0  0  0  0
   -3.3111    0.2111   28.0460 C   0  0  0  0  0  0  0  0  0  0  0  0
   -3.0233   -1.0513   27.8643 C   0  0  0  0  0  0  0  0  0  0  0  0
   -4.0279   -1.8905   27.3443 C   0  0  0  0  0  0  0  0  0  0  0  0
   -5.2518   -1.3576   26.9992 C   0  0  0  0  0  0  0  0  0  0  0  0
   -9.0593    1.4714   25.4036 Br  0  0  0  0  0  0  0  0  0  0  0  0
  -10.2497    3.5195   24.1240 C   0  0  0  0  0  0  0  0  0  0  0  0
  -10.9464    2.3852   23.1206 Cl  0  0  0  0  0  0  0  0  0  0  0  0
  1  3  1  0
  3  5  3  0
  5  6  1  0
  7  8  1  0
  9 10  1  0
  8 18  1  6
  8 19  1  0
 19 20  1  0
  6 12  1  0
 12 13  2  0
 13 14  1  0
 14 15  2  0
 15 16  1  0
 16 17  2  0
 17 12  1  0
  1  2  2  0
  2  4  1  0
  4 11  2  0
 11  9  1  0
  9  7  2  0
  7  1  1  0
M  END
$$$$
