No_9227-complexes_sdf/6BKW-FPZ/2024-09-17-14-21-01/
     RDKit          3D

 14 16  0  0  0  0  0  0  0  0999 V2000
   -7.9040    3.9820   27.1177 C   0  0  0  0  0  0  0  0  0  0  0  0
   -9.0711    4.3164   27.0630 C   0  0  0  0  0  0  0  0  0  0  0  0
   -9.5294    5.4517   27.7215 C   0  0  0  0  0  0  0  0  0  0  0  0
   -6.9328    4.7309   27.8881 C   0  0  0  0  0  0  0  0  0  0  0  0
   -7.3377    5.8421   28.5537 C   0  0  0  0  0  0  0  0  0  0  0  0
   -8.6868    6.1767   28.0904 C   0  0  0  0  0  0  0  0  0  0  0  0
  -10.0413    3.3989   26.3057 C   0  0  0  0  0  0  0  0  0  0  0  0
   -9.5384    2.5973   25.4081 C   0  0  0  0  0  0  0  0  0  0  0  0
  -10.4094    1.8701   24.6055 C   0  0  0  0  0  0  0  0  0  0  0  0
   -9.9112    0.9833   23.6019 C   0  0  0  0  0  0  0  0  0  0  0  0
   -8.5730    0.5787   23.7383 C   0  0  0  0  0  0  0  0  0  0  0  0
   -7.7603    1.0817   24.7096 C   0  0  0  0  0  0  0  0  0  0  0  0
   -8.1613    2.0689   25.5577 C   0  0  0  0  0  0  0  0  0  0  0  0
   -7.2781    2.7786   26.4122 C   0  0  0  0  0  0  0  0  0  0  0  0
  2  7  1  0
  7  8  2  0
 13 14  2  0
 14  1  1  0
  1  2  1  0
  2  3  2  0
  3  6  1  0
  6  5  2  0
  5  4  1  0
  4  1  2  0
  8  9  1  0
  9 10  2  0
 10 11  1  0
 11 12  2  0
 12 13  1  0
 13  8  1  0
M  END
$$$$
