No_9948-complexes_sdf/6BKW-FPZ/2024-09-17-14-21-01/
     RDKit          3D

 33 36  0  0  0  0  0  0  0  0999 V2000
   -7.2496    3.8871   27.4508 C   0  0  0  0  0  0  0  0  0  0  0  0
   -7.9379    4.9063   27.8518 C   0  0  0  0  0  0  0  0  0  0  0  0
   -9.3460    4.8223   27.8695 C   0  0  0  0  0  0  0  0  0  0  0  0
   -7.8628    2.6163   27.1065 C   0  0  0  0  0  0  0  0  0  0  0  0
   -9.2787    2.5744   27.1970 C   0  0  0  0  0  0  0  0  0  0  0  0
  -10.0108    3.6770   27.6340 C   0  0  0  0  0  0  0  0  0  0  0  0
  -11.4990    3.7612   27.7469 C   0  0  0  0  0  0  0  0  0  0  0  0
  -11.9237    3.1854   28.8964 C   0  0  0  0  0  0  0  0  0  0  0  0
  -13.2901    3.2656   29.3371 C   0  0  0  0  0  0  0  0  0  0  0  0
  -14.1290    4.0042   28.4662 C   0  0  0  0  0  0  0  0  0  0  0  0
  -13.6573    4.5754   27.3111 C   0  0  0  0  0  0  0  0  0  0  0  0
  -12.2716    4.5401   26.9999 C   0  0  0  0  0  0  0  0  0  0  0  0
   -9.9409    1.3006   26.9650 C   0  0  0  0  0  0  0  0  0  0  0  0
   -9.9525    0.8070   25.8701 C   0  0  0  0  0  0  0  0  0  0  0  0
  -10.7078   -0.1438   25.4151 C   0  0  0  0  0  0  0  0  0  0  0  0
  -11.6501   -0.6759   26.3467 C   0  0  0  0  0  0  0  0  0  0  0  0
  -11.7003   -0.1766   27.6779 C   0  0  0  0  0  0  0  0  0  0  0  0
  -10.8079    0.8799   27.9961 C   0  0  0  0  0  0  0  0  0  0  0  0
   -7.3284    6.0500   28.1498 F   0  0  0  0  0  0  0  0  0  0  0  0
  -13.8809    2.6498   30.5326 C   0  0  0  0  0  0  0  0  0  0  0  0
  -13.8558    1.4502   30.6453 O   0  0  0  0  0  0  0  0  0  0  0  0
  -14.2285    3.4408   31.5184 O   0  0  0  0  0  0  0  0  0  0  0  0
  -14.6208    4.3397   31.7902 C   0  0  0  0  0  0  0  0  0  0  0  0
  -14.5102    4.8271   33.1878 C   0  0  0  0  0  0  0  0  0  0  0  0
  -13.2884    4.8180   33.8347 C   0  0  0  0  0  0  0  0  0  0  0  0
  -13.1160    5.2880   35.1576 C   0  0  0  0  0  0  0  0  0  0  0  0
  -11.8717    5.1361   35.8802 C   0  0  0  0  0  0  0  0  0  0  0  0
  -10.8456    4.4459   35.1584 C   0  0  0  0  0  0  0  0  0  0  0  0
  -11.0687    3.9785   33.8864 C   0  0  0  0  0  0  0  0  0  0  0  0
  -12.2485    4.0879   33.3031 C   0  0  0  0  0  0  0  0  0  0  0  0
  -11.6226    5.7619   37.1595 C   0  0  0  0  0  0  0  0  0  0  0  0
  -10.8152    5.2780   37.9622 O   0  0  0  0  0  0  0  0  0  0  0  0
  -12.1530    6.9758   37.4033 O   0  0  0  0  0  0  0  0  0  0  0  0
  6  7  1  0
  5 13  1  0
  2 19  1  0
  9 20  1  0
 20 21  2  0
 20 22  1  0
 22 23  1  0
 23 24  2  3
 24 25  1  0
 27 31  1  0
 31 32  2  0
 31 33  1  0
 13 14  2  0
 14 15  1  0
 15 16  2  0
 16 17  1  0
 17 18  2  0
 18 13  1  0
  1  2  2  0
  2  3  1  0
  3  6  2  0
  6  5  1  0
  5  4  2  0
  4  1  1  0
 25 26  2  0
 26 27  1  0
 27 28  2  0
 28 29  1  0
 29 30  2  0
 30 25  1  0
  7  8  2  0
  8  9  1  0
  9 10  2  0
 10 11  1  0
 11 12  2  0
 12  7  1  0
M  END
$$$$
