No_9928-complexes_sdf/6BKW-FPZ/2024-09-17-14-21-01/
     RDKit          3D

 15 16  0  0  0  0  0  0  0  0999 V2000
   -7.2496    3.8871   27.4508 C   0  0  0  0  0  0  0  0  0  0  0  0
   -8.5096    4.0291   27.2770 C   0  0  0  0  0  0  0  0  0  0  0  0
   -9.3451    2.8786   26.9046 C   0  0  0  0  0  0  0  0  0  0  0  0
   -8.7138    1.7135   26.7541 C   0  0  0  0  0  0  0  0  0  0  0  0
   -6.6024    2.6286   27.4581 C   0  0  0  0  0  0  0  0  0  0  0  0
   -7.3557    1.5598   27.1381 C   0  0  0  0  0  0  0  0  0  0  0  0
   -9.1549    5.3689   27.3374 C   0  0  0  0  0  0  0  0  0  0  0  0
   -8.3270    6.5188   27.1630 C   0  0  0  0  0  0  0  0  0  0  0  0
   -6.5176    0.3216   27.0576 C   0  0  0  0  0  0  0  0  0  0  0  0
   -6.6779   -0.5616   28.0941 C   0  0  0  0  0  0  0  0  0  0  0  0
   -5.6399   -1.3958   28.4488 C   0  0  0  0  0  0  0  0  0  0  0  0
   -4.5121   -1.4274   27.6006 C   0  0  0  0  0  0  0  0  0  0  0  0
   -4.3668   -0.5315   26.5628 C   0  0  0  0  0  0  0  0  0  0  0  0
   -5.3562    0.3682   26.3472 C   0  0  0  0  0  0  0  0  0  0  0  0
   -8.7974    7.7865   26.7073 C   0  0  0  0  0  0  0  0  0  0  0  0
  2  7  1  0
  7  8  1  0
  6  9  1  0
  8 15  2  0
  1  2  2  0
  2  3  1  0
  3  4  2  0
  4  6  1  0
  6  5  2  0
  5  1  1  0
  9 10  2  0
 10 11  1  0
 11 12  2  0
 12 13  1  0
 13 14  2  0
 14  9  1  0
M  END
$$$$
