No_9461-complexes_sdf/6BKW-FPZ/2024-09-17-14-21-01/
     RDKit          3D

 40 43  0  0  0  0  0  0  0  0999 V2000
   -7.9040    3.9820   27.1177 C   0  0  0  0  0  0  0  0  0  0  0  0
   -7.8663    4.8694   27.9238 C   0  0  0  0  0  0  0  0  0  0  0  0
   -9.0501    3.8017   26.2617 C   0  0  0  0  0  0  0  0  0  0  0  0
  -10.0189    4.7608   26.3707 C   0  0  0  0  0  0  0  0  0  0  0  0
   -8.6973    5.9722   27.8968 C   0  0  0  0  0  0  0  0  0  0  0  0
   -9.8216    5.8946   27.1241 C   0  0  0  0  0  0  0  0  0  0  0  0
   -9.1437    2.6293   25.4175 C   0  0  0  0  0  0  0  0  0  0  0  0
   -8.6170    1.4258   25.8177 C   0  0  0  0  0  0  0  0  0  0  0  0
   -8.6844    0.3194   24.9788 C   0  0  0  0  0  0  0  0  0  0  0  0
   -9.3359    0.4939   23.7289 C   0  0  0  0  0  0  0  0  0  0  0  0
   -9.8521    1.7195   23.3158 C   0  0  0  0  0  0  0  0  0  0  0  0
   -9.7240    2.7821   24.1593 C   0  0  0  0  0  0  0  0  0  0  0  0
   -9.4531   -0.9989   22.5479 Br  0  0  0  0  0  0  0  0  0  0  0  0
  -10.4322    1.6222   21.9843 C   0  0  0  0  0  0  0  0  0  0  0  0
  -11.6809    2.1991   21.9132 C   0  0  0  0  0  0  0  0  0  0  0  0
  -12.2873    2.3183   20.5886 C   0  0  0  0  0  0  0  0  0  0  0  0
  -11.5404    1.9548   19.4672 C   0  0  0  0  0  0  0  0  0  0  0  0
  -10.2676    1.4572   19.6649 C   0  0  0  0  0  0  0  0  0  0  0  0
   -9.6625    1.3963   20.8677 C   0  0  0  0  0  0  0  0  0  0  0  0
   -6.3467    5.2230   28.8352 Cl  0  0  0  0  0  0  0  0  0  0  0  0
   -7.9200   -1.2912   25.4900 Br  0  0  0  0  0  0  0  0  0  0  0  0
  -12.0920    2.0450   18.2362 O   0  0  0  0  0  0  0  0  0  0  0  0
  -11.7831    1.2128   17.2422 C   0  0  0  0  0  0  0  0  0  0  0  0
  -11.5102    1.6975   16.0570 C   0  0  0  0  0  0  0  0  0  0  0  0
  -10.9369    0.8712   14.9940 C   0  0  0  0  0  0  0  0  0  0  0  0
  -10.7538   -0.4896   15.3080 C   0  0  0  0  0  0  0  0  0  0  0  0
  -11.0047   -0.9599   16.5627 C   0  0  0  0  0  0  0  0  0  0  0  0
  -11.4378   -0.0766   17.5644 C   0  0  0  0  0  0  0  0  0  0  0  0
  -10.2424   -1.5379   14.0723 Cl  0  0  0  0  0  0  0  0  0  0  0  0
  -10.7064   -2.6297   16.9212 Cl  0  0  0  0  0  0  0  0  0  0  0  0
  -13.6592    2.8414   20.4524 C   0  0  0  0  0  0  0  0  0  0  0  0
  -13.8402    3.9568   20.7845 O   0  0  0  0  0  0  0  0  0  0  0  0
  -14.5762    1.9458   20.3892 O   0  0  0  0  0  0  0  0  0  0  0  0
  -15.7520    2.1944   20.7976 C   0  0  0  0  0  0  0  0  0  0  0  0
  -16.5805    2.7849   19.9331 C   0  0  0  0  0  0  0  0  0  0  0  0
  -16.4065    2.8743   18.8117 O   0  0  0  0  0  0  0  0  0  0  0  0
  -17.9057    3.0919   20.3730 N   0  0  0  0  0  0  0  0  0  0  0  0
  -18.9012    3.6765   19.5142 C   0  0  0  0  0  0  0  0  0  0  0  0
  -19.8553    4.2124   19.9828 C   0  0  0  0  0  0  0  0  0  0  0  0
  -20.5738    5.2195   19.3195 C   0  0  0  0  0  0  0  0  0  0  0  0
  3  7  1  0
 10 13  1  0
 11 14  1  0
  2 20  1  0
  9 21  1  0
 17 22  1  0
 22 23  1  0
 26 29  1  0
 27 30  1  0
 16 31  1  0
 31 32  2  0
 31 33  1  0
 33 34  1  0
 34 35  1  0
 35 36  2  0
 35 37  1  0
 37 38  1  0
 38 39  1  0
 39 40  2  0
 14 15  2  0
 15 16  1  0
 16 17  2  0
 17 18  1  0
 18 19  2  0
 19 14  1  0
 23 24  2  0
 24 25  1  0
 25 26  2  0
 26 27  1  0
 27 28  2  0
 28 23  1  0
  1  2  2  0
  2  5  1  0
  5  6  2  0
  6  4  1  0
  4  3  2  0
  3  1  1  0
  7  8  2  0
  8  9  1  0
  9 10  2  0
 10 11  1  0
 11 12  2  0
 12  7  1  0
M  END
$$$$
