No_9790-complexes_sdf/6BKW-FPZ/2024-09-17-14-21-01/
     RDKit          3D

 15 15  0  0  0  0  0  0  0  0999 V2000
   -7.2496    3.8871   27.4508 C   0  0  0  0  0  0  0  0  0  0  0  0
   -7.6161    2.7143   27.1523 C   0  0  0  0  0  0  0  0  0  0  0  0
   -7.1618    1.8631   27.5232 C   0  0  0  0  0  0  0  0  0  0  0  0
   -8.0036    5.1085   27.2100 C   0  0  2  0  0  0  0  0  0  0  0  0
   -7.6739    6.3858   27.8565 C   0  0  0  0  0  0  0  0  0  0  0  0
   -9.3177    4.9356   26.7048 C   0  0  0  0  0  0  0  0  0  0  0  0
   -9.7218    3.7664   26.1480 C   0  0  1  0  0  0  0  0  0  0  0  0
   -8.9576    2.6364   26.4867 C   0  0  0  0  0  0  0  0  0  0  0  0
   -6.6973    0.7517   27.0332 C   0  0  0  0  0  0  0  0  0  0  0  0
   -5.8035   -0.2021   27.6686 C   0  0  0  0  0  0  0  0  0  0  0  0
   -5.8482   -1.5065   27.5316 C   0  0  0  0  0  0  0  0  0  0  0  0
  -10.9327    3.6776   25.4063 C   0  0  0  0  0  0  0  0  0  0  0  0
  -11.2948    2.6971   24.5928 C   0  0  0  0  0  0  0  0  0  0  0  0
  -11.1520    1.6412   24.7070 C   0  0  0  0  0  0  0  0  0  0  0  0
  -11.5025    0.5332   23.7274 C   0  0  0  0  0  0  0  0  0  0  0  0
  1  2  1  0
  2  3  2  3
  1  4  1  0
  4  5  1  1
  4  6  1  0
  6  7  1  0
  2  8  1  0
  7  8  1  0
  3  9  1  0
  9 10  2  3
 10 11  1  0
  7 12  1  1
 12 13  1  0
 13 14  2  3
 14 15  1  0
M  END
$$$$
