No_9387-complexes_sdf/6BKW-FPZ/2024-09-17-14-21-01/
     RDKit          3D

 36 39  0  0  0  0  0  0  0  0999 V2000
   -7.9040    3.9820   27.1177 C   0  0  0  0  0  0  0  0  0  0  0  0
   -9.0711    4.3164   27.0630 C   0  0  0  0  0  0  0  0  0  0  0  0
   -9.5294    5.4517   27.7215 C   0  0  0  0  0  0  0  0  0  0  0  0
   -6.9328    4.7309   27.8881 C   0  0  0  0  0  0  0  0  0  0  0  0
   -7.3666    5.8455   28.5488 C   0  0  0  0  0  0  0  0  0  0  0  0
   -8.6669    6.2428   28.4199 C   0  0  0  0  0  0  0  0  0  0  0  0
   -9.9775    3.4523   26.2361 C   0  0  1  0  0  0  0  0  0  0  0  0
  -10.7873    2.6225   26.8434 C   0  0  0  0  0  0  0  0  0  0  0  0
  -10.7765    2.4962   28.2797 C   0  0  0  0  0  0  0  0  0  0  0  0
  -11.5868    1.5355   28.9852 C   0  0  0  0  0  0  0  0  0  0  0  0
  -12.3674    0.6596   28.1875 C   0  0  0  0  0  0  0  0  0  0  0  0
  -12.3840    0.7259   26.8147 C   0  0  0  0  0  0  0  0  0  0  0  0
  -11.5641    1.6653   26.1532 C   0  0  0  0  0  0  0  0  0  0  0  0
  -10.0321    3.7212   24.8436 C   0  0  0  0  0  0  0  0  0  0  0  0
  -10.1772    2.8328   23.9128 C   0  0  0  0  0  0  0  0  0  0  0  0
  -10.0171    3.2997   22.5245 C   0  0  0  0  0  0  0  0  0  0  0  0
  -10.4933    4.2839   22.0706 C   0  0  0  0  0  0  0  0  0  0  0  0
  -10.6783    5.4029   23.1296 C   0  0  0  0  0  0  0  0  0  0  0  0
  -10.4168    5.1289   24.4506 C   0  0  0  0  0  0  0  0  0  0  0  0
  -13.2090   -0.3194   28.9065 C   0  0  0  0  0  0  0  0  0  0  0  0
  -13.4130   -1.3168   28.5919 O   0  0  0  0  0  0  0  0  0  0  0  0
  -13.3407   -0.0464   30.2375 O   0  0  0  0  0  0  0  0  0  0  0  0
   -5.6804    4.2587   28.0837 O   0  0  0  0  0  0  0  0  0  0  0  0
   -9.9487    2.1125   21.4982 C   0  0  0  0  0  0  0  0  0  0  0  0
  -10.2011    2.4601   20.3891 F   0  0  0  0  0  0  0  0  0  0  0  0
   -8.6365    1.6936   21.7145 F   0  0  0  0  0  0  0  0  0  0  0  0
  -10.7122    1.0442   21.8267 F   0  0  0  0  0  0  0  0  0  0  0  0
  -14.7012   -0.1467   30.7684 C   0  0  0  0  0  0  0  0  0  0  0  0
  -14.6709    0.0847   32.0557 C   0  0  0  0  0  0  0  0  0  0  0  0
  -15.6922   -0.1386   32.7633 C   0  0  0  0  0  0  0  0  0  0  0  0
  -16.8931   -0.5665   32.1656 C   0  0  0  0  0  0  0  0  0  0  0  0
  -16.8448   -0.8029   30.8174 C   0  0  0  0  0  0  0  0  0  0  0  0
  -15.6785   -0.6173   30.0901 C   0  0  0  0  0  0  0  0  0  0  0  0
  -18.0432   -1.2924   30.1056 C   0  0  0  0  0  0  0  0  0  0  0  0
  -19.2110   -0.9377   30.3917 C   0  0  0  0  0  0  0  0  0  0  0  0
  -20.3466   -1.4965   29.6819 C   0  0  0  0  0  0  0  0  0  0  0  0
  7  2  1  1
  7 14  1  0
 11 20  1  0
 20 21  2  0
 20 22  1  0
  4 23  1  0
 16 24  1  0
 24 25  1  0
 24 26  1  0
 24 27  1  0
 22 28  1  0
 32 34  1  0
 34 35  2  3
 35 36  1  0
  7  8  1  0
 28 29  2  0
 29 30  1  0
 30 31  2  0
 31 32  1  0
 32 33  2  0
 33 28  1  0
 14 15  2  0
 15 16  1  0
 16 17  2  0
 17 18  1  0
 18 19  2  0
 19 14  1  0
  1  2  2  0
  2  3  1  0
  3  6  2  0
  6  5  1  0
  5  4  2  0
  4  1  1  0
  8  9  2  0
  9 10  1  0
 10 11  2  0
 11 12  1  0
 12 13  2  0
 13  8  1  0
M  END
$$$$
