No_97-complexes_sdf/6BKW-FPZ/2024-09-17-14-21-01/
     RDKit          3D

 17 19  0  0  0  0  0  0  0  0999 V2000
   -7.7129    4.2099   27.0854 C   0  0  0  0  0  0  0  0  0  0  0  0
   -7.7814    5.1722   27.8972 C   0  0  0  0  0  0  0  0  0  0  0  0
   -7.3155    2.9699   27.6145 C   0  0  0  0  0  0  0  0  0  0  0  0
   -7.6814    1.8188   26.9581 C   0  0  0  0  0  0  0  0  0  0  0  0
   -8.6377    1.9131   25.9324 C   0  0  0  0  0  0  0  0  0  0  0  0
   -9.1866    3.0673   25.6037 C   0  0  0  0  0  0  0  0  0  0  0  0
   -8.8394    4.1752   26.2513 C   0  0  0  0  0  0  0  0  0  0  0  0
   -8.2782    6.4668   27.5870 N   0  0  0  0  0  0  0  0  0  0  0  0
   -9.2198    6.6506   26.6306 C   0  0  0  0  0  0  0  0  0  0  0  0
   -9.4920    5.4682   25.8965 C   0  0  0  0  0  0  0  0  0  0  0  0
   -7.0178    0.5440   27.2652 C   0  0  0  0  0  0  0  0  0  0  0  0
   -5.7976    0.4798   27.9565 C   0  0  0  0  0  0  0  0  0  0  0  0
   -5.2072   -0.7414   28.2797 C   0  0  0  0  0  0  0  0  0  0  0  0
   -3.9756   -0.7846   29.0183 C   0  0  0  0  0  0  0  0  0  0  0  0
   -3.3293    0.4273   29.2465 C   0  0  0  0  0  0  0  0  0  0  0  0
   -3.9375    1.5930   28.8501 C   0  0  0  0  0  0  0  0  0  0  0  0
   -5.0717    1.6559   28.2359 C   0  0  0  0  0  0  0  0  0  0  0  0
  4 11  1  0
 11 12  1  0
 12 13  2  0
 13 14  1  0
 14 15  2  0
 15 16  1  0
 16 17  2  0
 17 12  1  0
  1  2  2  0
  2  8  1  0
  8  9  2  0
  9 10  1  0
 10  7  2  0
  1  3  1  0
  3  4  2  0
  4  5  1  0
  5  6  2  0
  6  7  1  0
  7  1  1  0
M  END
$$$$
