No_9955-complexes_sdf/6BKW-FPZ/2024-09-17-14-21-01/
     RDKit          3D

 22 24  0  0  0  0  0  0  0  0999 V2000
   -7.7129    4.2099   27.0854 C   0  0  0  0  0  0  0  0  0  0  0  0
   -7.7814    5.1722   27.8972 C   0  0  0  0  0  0  0  0  0  0  0  0
   -7.2983    2.9533   27.5684 C   0  0  0  0  0  0  0  0  0  0  0  0
   -6.9398    2.0472   26.9820 C   0  0  0  0  0  0  0  0  0  0  0  0
   -6.2939    0.9312   27.6216 C   0  0  0  0  0  0  0  0  0  0  0  0
   -5.3556    1.3791   28.4767 C   0  0  0  0  0  0  0  0  0  0  0  0
   -4.6507    0.2178   29.1578 C   0  0  0  0  0  0  0  0  0  0  0  0
   -3.6376    0.5156   30.1348 C   0  0  0  0  0  0  0  0  0  0  0  0
   -5.0513   -1.0451   28.8391 C   0  0  0  0  0  0  0  0  0  0  0  0
   -5.9908   -1.3476   27.9381 C   0  0  0  0  0  0  0  0  0  0  0  0
   -6.6417   -0.3004   27.2920 C   0  0  0  0  0  0  0  0  0  0  0  0
   -8.1289    6.5130   27.3994 C   0  0  0  0  0  0  0  0  0  0  0  0
   -9.0562    6.6850   26.3295 C   0  0  0  0  0  0  0  0  0  0  0  0
   -9.1871    5.4487   25.5679 C   0  0  0  0  0  0  0  0  0  0  0  0
   -8.6640    4.2230   26.0092 C   0  0  0  0  0  0  0  0  0  0  0  0
   -3.6818   -0.1250   31.1499 O   0  0  0  0  0  0  0  0  0  0  0  0
   -7.6942   -0.5746   26.3395 C   0  0  0  0  0  0  0  0  0  0  0  0
   -7.6563   -0.8060   25.1787 C   0  0  0  0  0  0  0  0  0  0  0  0
   -8.6778   -0.9189   24.1939 C   0  0  0  0  0  0  0  0  0  0  0  0
   -9.9653   -0.6903   24.6408 C   0  0  0  0  0  0  0  0  0  0  0  0
  -10.1611   -0.3221   25.9932 C   0  0  0  0  0  0  0  0  0  0  0  0
   -9.0934   -0.2063   26.8900 C   0  0  0  0  0  0  0  0  0  0  0  0
  1  3  1  0
  3  4  1  0
  4  5  1  0
  7  8  1  0
  8 16  2  0
 11 17  1  0
 17 18  2  0
 18 19  1  0
 19 20  2  0
 20 21  1  0
 21 22  2  0
 22 17  1  0
  5  6  2  0
  6  7  1  0
  7  9  2  0
  9 10  1  0
 10 11  2  0
 11  5  1  0
  1  2  2  0
  2 12  1  0
 12 13  2  0
 13 14  1  0
 14 15  2  0
 15  1  1  0
M  END
$$$$
