No_9521-complexes_sdf/6BKW-FPZ/2024-09-17-14-21-01/
     RDKit          3D

  9  9  0  0  0  0  0  0  0  0999 V2000
   -7.7129    4.2099   27.0854 C   0  0  0  0  0  0  0  0  0  0  0  0
   -7.7814    5.1722   27.8972 C   0  0  1  0  0  0  0  0  0  0  0  0
   -7.3155    2.9700   27.6145 C   0  0  0  0  0  0  0  0  0  0  0  0
   -7.1760    1.9119   26.6708 C   0  0  0  0  0  0  0  0  0  0  0  0
   -8.2064    1.7989   25.7513 C   0  0  0  0  0  0  0  0  0  0  0  0
   -9.0507    2.9056   25.4782 C   0  0  0  0  0  0  0  0  0  0  0  0
   -8.8423    4.1351   26.1924 C   0  0  0  0  0  0  0  0  0  0  0  0
   -7.0588    5.3121   28.9749 N   0  0  0  0  0  0  0  0  0  0  0  0
   -8.2114    6.7800   27.2665 Cl  0  0  0  0  0  0  0  0  0  0  0  0
  1  2  1  0
  2  8  1  6
  2  9  1  0
  1  3  2  0
  3  4  1  0
  4  5  2  0
  5  6  1  0
  6  7  2  0
  7  1  1  0
M  END
$$$$
