No_9511-complexes_sdf/6BKW-FPZ/2024-09-17-14-21-01/
     RDKit          3D

 32 35  0  0  0  0  0  0  0  0999 V2000
   -7.2496    3.8871   27.4508 C   0  0  0  0  0  0  0  0  0  0  0  0
   -8.5096    4.0291   27.2770 C   0  0  0  0  0  0  0  0  0  0  0  0
   -9.3451    2.8786   26.9046 C   0  0  0  0  0  0  0  0  0  0  0  0
   -6.6065    2.5680   27.5073 C   0  0  0  0  0  0  0  0  0  0  0  0
   -7.4233    1.4858   27.2402 C   0  0  0  0  0  0  0  0  0  0  0  0
   -8.7362    1.6525   26.9989 C   0  0  0  0  0  0  0  0  0  0  0  0
   -9.1023    5.3710   27.2131 C   0  0  0  0  0  0  0  0  0  0  0  0
   -8.3463    6.4776   26.8511 C   0  0  0  0  0  0  0  0  0  0  0  0
   -8.8131    7.8158   26.9947 C   0  0  0  0  0  0  0  0  0  0  0  0
   -6.7849    0.1750   27.3044 C   0  0  0  0  0  0  0  0  0  0  0  0
   -5.5610    0.0168   27.8390 C   0  0  0  0  0  0  0  0  0  0  0  0
   -4.9544   -1.2520   27.9615 C   0  0  0  0  0  0  0  0  0  0  0  0
   -5.6299   -2.3056   27.3751 C   0  0  0  0  0  0  0  0  0  0  0  0
   -7.2710   -1.0299   26.8714 C   0  0  0  0  0  0  0  0  0  0  0  0
   -6.7826   -2.1897   26.8649 C   0  0  0  0  0  0  0  0  0  0  0  0
   -9.9120    5.6537   28.4665 C   0  0  0  0  0  0  0  0  0  0  0  0
  -10.7358    4.4850   28.7405 C   0  0  0  0  0  0  0  0  0  0  0  0
  -12.0651    4.2171   28.0548 C   0  0  0  0  0  0  0  0  0  0  0  0
  -12.8825    3.2897   28.5260 C   0  0  0  0  0  0  0  0  0  0  0  0
  -12.3194    2.3413   29.5002 C   0  0  0  0  0  0  0  0  0  0  0  0
  -13.1967    1.3075   29.8916 C   0  0  0  0  0  0  0  0  0  0  0  0
  -13.8377    0.8044   29.2508 C   0  0  0  0  0  0  0  0  0  0  0  0
  -14.5163    1.5182   28.1013 C   0  0  0  0  0  0  0  0  0  0  0  0
  -13.9281    2.7426   27.7519 C   0  0  0  0  0  0  0  0  0  0  0  0
  -14.6700   -0.3671   29.5301 O   0  0  0  0  0  0  0  0  0  0  0  0
  -14.1978   -1.5231   29.0222 C   0  0  0  0  0  0  0  0  0  0  0  0
  -13.0532   -1.9390   29.3301 C   0  0  0  0  0  0  0  0  0  0  0  0
  -12.6898   -2.3260   30.4823 C   0  0  0  0  0  0  0  0  0  0  0  0
  -11.3085   -2.7716   30.8511 C   0  0  0  0  0  0  0  0  0  0  0  0
  -10.3481   -2.7674   29.8178 C   0  0  0  0  0  0  0  0  0  0  0  0
  -10.6970   -2.3341   28.5645 C   0  0  0  0  0  0  0  0  0  0  0  0
  -11.9841   -1.8765   28.3163 C   0  0  0  0  0  0  0  0  0  0  0  0
  2  7  1  0
  7  8  2  3
  8  9  1  0
  5 10  1  0
  7 16  1  0
 16 17  1  0
 17 18  1  0
 22 25  1  0
 25 26  1  0
 26 27  1  0
 18 19  1  0
 27 28  2  0
 28 29  1  0
 29 30  2  0
 30 31  1  0
 31 32  2  0
 32 27  1  0
  1  2  2  0
  2  3  1  0
  3  6  2  0
  6  5  1  0
  5  4  2  0
  4  1  1  0
 10 11  2  0
 11 12  1  0
 12 13  2  0
 13 15  1  0
 15 14  2  0
 14 10  1  0
 19 20  2  0
 20 21  1  0
 21 22  2  0
 22 23  1  0
 23 24  2  0
 24 19  1  0
M  END
$$$$
