No_9497-complexes_sdf/6BKW-FPZ/2024-09-17-14-21-01/
     RDKit          3D

  8  7  0  0  0  0  0  0  0  0999 V2000
   -7.9040    3.9820   27.1177 C   0  0  0  0  0  0  0  0  0  0  0  0
   -7.8663    4.8694   27.9238 C   0  0  0  0  0  0  0  0  0  0  0  0
   -9.0806    3.1428   27.1220 C   0  0  0  0  0  0  0  0  0  0  0  0
  -10.1072    3.3606   27.8219 C   0  0  0  0  0  0  0  0  0  0  0  0
   -8.9918    5.4653   28.5483 C   0  0  0  0  0  0  0  0  0  0  0  0
  -11.2976    2.5942   27.8598 C   0  0  0  0  0  0  0  0  0  0  0  0
  -10.1197    4.5911   28.6001 C   0  0  0  0  0  0  0  0  0  0  0  0
  -11.1767    4.8885   29.2593 F   0  0  0  0  0  0  0  0  0  0  0  0
  1  2  1  0
  1  3  1  0
  3  4  2  3
  2  5  1  0
  4  6  1  0
  5  7  2  3
  7  8  1  0
M  END
$$$$
