No_9233-complexes_sdf/6BKW-FPZ/2024-09-17-14-21-01/
     RDKit          3D

 23 26  0  0  0  0  0  0  0  0999 V2000
   -7.9040    3.9820   27.1177 C   0  0  0  0  0  0  0  0  0  0  0  0
   -9.0711    4.3164   27.0630 C   0  0  0  0  0  0  0  0  0  0  0  0
   -9.5294    5.4517   27.7215 C   0  0  0  0  0  0  0  0  0  0  0  0
   -6.9328    4.7309   27.8881 C   0  0  0  0  0  0  0  0  0  0  0  0
   -7.3377    5.8421   28.5537 C   0  0  0  0  0  0  0  0  0  0  0  0
   -8.6411    6.2609   28.3972 C   0  0  0  0  0  0  0  0  0  0  0  0
  -10.1663    3.5968   26.3594 C   0  0  2  0  0  0  0  0  0  0  0  0
  -10.1938    3.8160   24.9809 C   0  0  0  0  0  0  0  0  0  0  0  0
  -10.9341    3.1326   24.0515 C   0  0  0  0  0  0  0  0  0  0  0  0
  -10.8482    3.4588   22.6699 C   0  0  0  0  0  0  0  0  0  0  0  0
  -11.2130    2.5975   21.7270 C   0  0  0  0  0  0  0  0  0  0  0  0
  -11.8276    1.4211   22.0101 C   0  0  0  0  0  0  0  0  0  0  0  0
  -11.9382    1.0920   23.3458 C   0  0  0  0  0  0  0  0  0  0  0  0
  -11.3718    1.8498   24.3411 C   0  0  0  0  0  0  0  0  0  0  0  0
  -11.5397    3.8438   26.9133 C   0  0  0  0  0  0  0  0  0  0  0  0
  -12.3920    4.6171   26.7174 C   0  0  0  0  0  0  0  0  0  0  0  0
  -13.6655    4.7420   27.4523 C   0  0  0  0  0  0  0  0  0  0  0  0
  -13.7981    3.9159   28.5635 C   0  0  0  0  0  0  0  0  0  0  0  0
  -11.7662    2.9576   28.1786 C   0  0  0  0  0  0  0  0  0  0  0  0
  -12.8568    3.0527   28.9382 C   0  0  0  0  0  0  0  0  0  0  0  0
   -9.8420    2.0360   26.6327 C   0  0  0  0  0  0  0  0  0  0  0  0
   -8.4755    1.8474   26.5817 C   0  0  0  0  0  0  0  0  0  0  0  0
   -7.5284    2.6117   26.8437 C   0  0  0  0  0  0  0  0  0  0  0  0
  2  7  1  0
  7  8  1  6
  7 15  1  0
  7 21  1  0
  1 23  1  0
 22 23  1  0
  8  9  1  0
 22 21  1  0
 15 16  2  0
 16 17  1  0
 17 18  2  0
 18 20  1  0
 20 19  2  0
 19 15  1  0
  1  2  1  0
  2  3  2  0
  3  6  1  0
  6  5  2  0
  5  4  1  0
  4  1  2  0
  9 10  2  0
 10 11  1  0
 11 12  2  0
 12 13  1  0
 13 14  2  0
 14  9  1  0
M  END
$$$$
