No_9954-complexes_sdf/6BKW-FPZ/2024-09-17-14-21-01/
     RDKit          3D

 18 20  0  0  0  0  0  0  0  0999 V2000
   -7.9040    3.9820   27.1177 C   0  0  0  0  0  0  0  0  0  0  0  0
   -7.8663    4.8694   27.9238 C   0  0  0  0  0  0  0  0  0  0  0  0
   -9.0501    3.8017   26.2617 C   0  0  0  0  0  0  0  0  0  0  0  0
   -9.1826    2.7026   25.3575 C   0  0  0  0  0  0  0  0  0  0  0  0
   -8.6940    6.0131   27.8614 C   0  0  0  0  0  0  0  0  0  0  0  0
   -9.9755    4.8547   26.2361 C   0  0  0  0  0  0  0  0  0  0  0  0
   -9.7463    5.9398   27.0365 C   0  0  0  0  0  0  0  0  0  0  0  0
   -8.6850    1.4682   25.7485 C   0  0  0  0  0  0  0  0  0  0  0  0
   -8.1537    1.3595   27.0982 C   0  0  0  0  0  0  0  0  0  0  0  0
   -7.4260    2.6368   27.5225 N   0  0  0  0  0  0  0  0  0  0  0  0
   -9.9544    2.8094   24.1716 C   0  0  0  0  0  0  0  0  0  0  0  0
   -9.9002    1.7990   23.2132 C   0  0  0  0  0  0  0  0  0  0  0  0
   -9.2768    0.5402   23.6500 C   0  0  0  0  0  0  0  0  0  0  0  0
   -8.7140    0.3896   24.8938 C   0  0  0  0  0  0  0  0  0  0  0  0
  -10.5550    1.9348   21.9452 C   0  0  0  0  0  0  0  0  0  0  0  0
  -10.5600    0.9939   21.1937 O   0  0  0  0  0  0  0  0  0  0  0  0
  -10.9408    3.1043   21.5256 O   0  0  0  0  0  0  0  0  0  0  0  0
   -7.5885    0.3632   27.5998 O   0  0  0  0  0  0  0  0  0  0  0  0
  3  4  1  0
  8  9  1  0
  1 10  1  0
  9 10  1  0
 12 15  1  0
 15 16  2  0
 15 17  1  0
  9 18  2  0
  4 11  2  0
 11 12  1  0
 12 13  2  0
 13 14  1  0
 14  8  2  0
  8  4  1  0
  1  2  2  0
  2  5  1  0
  5  7  2  0
  7  6  1  0
  6  3  2  0
  3  1  1  0
M  END
$$$$
