No_9495-complexes_sdf/6BKW-FPZ/2024-09-17-14-21-01/
     RDKit          3D

 20 22  0  0  0  0  0  0  0  0999 V2000
   -7.9040    3.9820   27.1177 C   0  0  0  0  0  0  0  0  0  0  0  0
   -9.0711    4.3164   27.0630 C   0  0  0  0  0  0  0  0  0  0  0  0
  -10.0395    3.8218   27.1938 C   0  0  0  0  0  0  0  0  0  0  0  0
   -7.6424    2.5858   27.3610 C   0  0  0  0  0  0  0  0  0  0  0  0
   -8.7741    1.7889   27.4566 C   0  0  0  0  0  0  0  0  0  0  0  0
  -10.0155    2.3581   27.4300 C   0  0  0  0  0  0  0  0  0  0  0  0
  -11.0759    1.3722   27.6942 C   0  0  0  0  0  0  0  0  0  0  0  0
  -12.0497    1.8580   28.5521 C   0  0  0  0  0  0  0  0  0  0  0  0
  -13.0413    0.9712   29.0627 C   0  0  0  0  0  0  0  0  0  0  0  0
  -13.0115   -0.3279   28.5720 C   0  0  0  0  0  0  0  0  0  0  0  0
  -11.0700    0.0703   27.4592 C   0  0  0  0  0  0  0  0  0  0  0  0
  -12.0030   -0.7866   27.8439 C   0  0  0  0  0  0  0  0  0  0  0  0
   -9.1338    5.9772   26.8437 C   0  0  0  0  0  0  0  0  0  0  0  0
   -9.1447    6.3977   25.5797 F   0  0  0  0  0  0  0  0  0  0  0  0
   -7.9606    6.6403   27.3771 F   0  0  0  0  0  0  0  0  0  0  0  0
  -10.1513    6.5178   27.5237 F   0  0  0  0  0  0  0  0  0  0  0  0
   -6.2743    2.0073   27.4060 C   0  0  0  0  0  0  0  0  0  0  0  0
   -6.0423    0.6445   27.3245 C   0  0  0  0  0  0  0  0  0  0  0  0
   -7.0540   -0.2664   27.0949 C   0  0  0  0  0  0  0  0  0  0  0  0
   -8.4889    0.3529   27.3433 C   0  0  0  0  0  0  0  0  0  0  0  0
  6  7  1  0
  2 13  1  0
 13 14  1  0
 13 15  1  0
 13 16  1  0
  5 20  2  0
 20 19  1  0
 19 18  2  0
 18 17  1  0
 17  4  2  0
  7  8  2  0
  8  9  1  0
  9 10  2  0
 10 12  1  0
 12 11  2  0
 11  7  1  0
  1  2  2  0
  2  3  1  0
  3  6  2  0
  6  5  1  0
  5  4  1  0
  4  1  1  0
M  END
$$$$
