No_9162-complexes_sdf/6BKW-FPZ/2024-09-17-14-21-01/
     RDKit          3D

 16 17  0  0  0  0  0  0  0  0999 V2000
   -7.9040    3.9820   27.1177 C   0  0  0  0  0  0  0  0  0  0  0  0
   -7.8663    4.8694   27.9238 C   0  0  0  0  0  0  0  0  0  0  0  0
   -9.0501    3.8017   26.2617 C   0  0  0  0  0  0  0  0  0  0  0  0
  -10.0189    4.7608   26.3707 C   0  0  0  0  0  0  0  0  0  0  0  0
   -8.6973    5.9722   27.8968 C   0  0  0  0  0  0  0  0  0  0  0  0
   -9.8216    5.8946   27.1241 C   0  0  0  0  0  0  0  0  0  0  0  0
   -9.1704    2.4454   25.2686 Cl  0  0  0  0  0  0  0  0  0  0  0  0
   -6.9878    2.9153   27.1222 O   0  0  0  0  0  0  0  0  0  0  0  0
   -6.0987    2.9255   28.0591 C   0  0  0  0  0  0  0  0  0  0  0  0
   -5.3582    1.6048   28.0252 C   0  0  0  0  0  0  0  0  0  0  0  0
   -5.7747    0.5012   27.4242 C   0  0  0  0  0  0  0  0  0  0  0  0
   -5.0657   -0.6783   27.4178 C   0  0  0  0  0  0  0  0  0  0  0  0
   -5.5829   -1.8445   26.8123 C   0  0  0  0  0  0  0  0  0  0  0  0
   -6.8772   -1.7524   26.2104 C   0  0  0  0  0  0  0  0  0  0  0  0
   -7.5903   -0.5925   26.2179 C   0  0  0  0  0  0  0  0  0  0  0  0
   -7.0513    0.5699   26.8450 C   0  0  0  0  0  0  0  0  0  0  0  0
  3  7  1  0
  1  8  1  0
  8  9  1  0
  9 10  2  3
 10 11  1  0
 11 12  2  0
 12 13  1  0
 13 14  2  0
 14 15  1  0
 15 16  2  0
 16 11  1  0
  1  2  2  0
  2  5  1  0
  5  6  2  0
  6  4  1  0
  4  3  2  0
  3  1  1  0
M  END
$$$$
