No_9944-complexes_sdf/6BKW-FPZ/2024-09-17-14-21-01/
     RDKit          3D

 14 16  0  0  0  0  0  0  0  0999 V2000
   -7.7129    4.2099   27.0854 C   0  0  0  0  0  0  0  0  0  0  0  0
   -7.7814    5.1722   27.8972 C   0  0  0  0  0  0  0  0  0  0  0  0
   -8.8998    3.8713   26.3707 C   0  0  0  0  0  0  0  0  0  0  0  0
   -8.9563    2.6796   25.5490 C   0  0  0  0  0  0  0  0  0  0  0  0
   -8.8131    6.1334   27.9344 C   0  0  0  0  0  0  0  0  0  0  0  0
   -9.9804    5.8121   27.1929 C   0  0  0  0  0  0  0  0  0  0  0  0
   -9.9861    4.6836   26.4532 C   0  0  0  0  0  0  0  0  0  0  0  0
   -9.8352    2.5435   24.5126 C   0  0  0  0  0  0  0  0  0  0  0  0
   -9.8680    1.4155   23.7412 C   0  0  0  0  0  0  0  0  0  0  0  0
  -10.6980    1.3159   22.5658 C   0  0  0  0  0  0  0  0  0  0  0  0
  -11.5448    2.4208   22.3234 C   0  0  0  0  0  0  0  0  0  0  0  0
  -11.5307    3.5299   23.0713 C   0  0  0  0  0  0  0  0  0  0  0  0
  -10.6224    3.6490   24.1652 C   0  0  0  0  0  0  0  0  0  0  0  0
  -10.7255    4.8112   25.0929 C   0  0  0  0  0  0  0  0  0  0  0  0
  8  9  2  0
  9 10  1  0
 10 11  2  0
 11 12  1  0
 12 13  2  0
  3  4  2  0
  4  8  1  0
  8 13  1  0
 13 14  1  0
 14  7  2  0
  1  2  2  0
  2  5  1  0
  5  6  2  0
  6  7  1  0
  7  3  1  0
  3  1  1  0
M  END
$$$$
