No_9164-complexes_sdf/6BKW-FPZ/2024-09-17-14-21-01/
     RDKit          3D

 22 24  0  0  0  0  0  0  0  0999 V2000
   -7.9040    3.9820   27.1177 C   0  0  0  0  0  0  0  0  0  0  0  0
   -9.0711    4.3164   27.0630 C   0  0  0  0  0  0  0  0  0  0  0  0
   -9.5182    5.5541   27.5777 C   0  0  0  0  0  0  0  0  0  0  0  0
   -6.9424    4.7983   27.8424 C   0  0  0  0  0  0  0  0  0  0  0  0
   -7.3526    5.9739   28.3909 C   0  0  0  0  0  0  0  0  0  0  0  0
   -8.6479    6.3742   28.2169 C   0  0  0  0  0  0  0  0  0  0  0  0
  -10.0621    3.4422   26.3345 C   0  0  0  0  0  0  0  0  0  0  0  0
   -9.6335    2.6185   25.4370 C   0  0  0  0  0  0  0  0  0  0  0  0
  -10.4644    2.0049   24.4699 C   0  0  0  0  0  0  0  0  0  0  0  0
  -11.8019    2.3414   24.4925 C   0  0  0  0  0  0  0  0  0  0  0  0
  -12.2598    3.2960   25.3832 C   0  0  0  0  0  0  0  0  0  0  0  0
  -11.3961    3.9667   26.2509 C   0  0  0  0  0  0  0  0  0  0  0  0
   -9.9694    0.9645   23.5517 C   0  0  0  0  0  0  0  0  0  0  0  0
  -10.3700   -0.0479   23.5738 C   0  0  0  0  0  0  0  0  0  0  0  0
  -11.0172   -0.6736   24.2452 C   0  0  0  0  0  0  0  0  0  0  0  0
  -11.3224   -1.4632   24.8452 C   0  0  0  0  0  0  0  0  0  0  0  0
  -11.2012   -1.4104   26.2883 C   0  0  0  0  0  0  0  0  0  0  0  0
   -9.9447   -1.3341   26.7707 C   0  0  0  0  0  0  0  0  0  0  0  0
   -9.7477   -1.1247   28.2611 C   0  0  0  0  0  0  0  0  0  0  0  0
  -10.8753   -1.0716   29.0461 C   0  0  0  0  0  0  0  0  0  0  0  0
  -12.1423   -1.1933   27.4305 C   0  0  0  0  0  0  0  0  0  0  0  0
  -12.0354   -1.0749   28.6609 C   0  0  0  0  0  0  0  0  0  0  0  0
  2  7  1  0
  9 13  1  0
 13 14  1  0
 14 15  2  3
 15 16  1  0
 16 17  1  0
 17 18  2  0
 18 19  1  0
 19 20  2  0
 20 22  1  0
 22 21  2  0
 21 17  1  0
  1  2  2  0
  2  3  1  0
  3  6  2  0
  6  5  1  0
  5  4  2  0
  4  1  1  0
  7  8  2  0
  8  9  1  0
  9 10  2  0
 10 11  1  0
 11 12  2  0
 12  7  1  0
M  END
$$$$
