No_9539-complexes_sdf/6BKW-FPZ/2024-09-17-14-21-01/
     RDKit          3D

 17 18  0  0  0  0  0  0  0  0999 V2000
   -7.9040    3.9820   27.1177 C   0  0  0  0  0  0  0  0  0  0  0  0
   -8.2057    2.8231   26.8733 C   0  0  0  0  0  0  0  0  0  0  0  0
   -8.7695    5.0740   26.7916 C   0  0  0  0  0  0  0  0  0  0  0  0
   -8.4337    6.4678   27.0913 C   0  0  0  0  0  0  0  0  0  0  0  0
   -9.3742    2.4311   26.2346 C   0  0  0  0  0  0  0  0  0  0  0  0
  -10.2395    3.4267   25.8887 C   0  0  0  0  0  0  0  0  0  0  0  0
   -9.9567    4.7548   26.1374 C   0  0  0  0  0  0  0  0  0  0  0  0
   -8.7531    7.4243   26.4062 N   0  0  0  0  0  0  0  0  0  0  0  0
   -7.3011    6.5674   27.8493 O   0  0  0  0  0  0  0  0  0  0  0  0
   -7.2635    1.6689   27.2882 C   0  0  0  0  0  0  0  0  0  0  0  0
   -6.0984    1.9805   27.8212 N   0  0  0  0  0  0  0  0  0  0  0  0
   -5.2476    0.9133   28.1711 C   0  0  0  0  0  0  0  0  0  0  0  0
   -3.9489    1.1496   28.7537 C   0  0  0  0  0  0  0  0  0  0  0  0
   -3.2203    0.0982   29.2299 C   0  0  0  0  0  0  0  0  0  0  0  0
   -3.7092   -1.1936   29.1130 C   0  0  0  0  0  0  0  0  0  0  0  0
   -5.5766   -0.4658   28.1882 C   0  0  0  0  0  0  0  0  0  0  0  0
   -4.9373   -1.4223   28.6385 C   0  0  0  0  0  0  0  0  0  0  0  0
  3  4  1  0
  4  8  1  0
  4  9  2  0
  2 10  1  0
 10 11  2  3
 11 12  1  0
 12 13  2  0
 13 14  1  0
 14 15  2  0
 15 17  1  0
 17 16  2  0
 16 12  1  0
  1  2  2  0
  2  5  1  0
  5  6  2  0
  6  7  1  0
  7  3  2  0
  3  1  1  0
M  END
$$$$
