No_9224-complexes_sdf/6BKW-FPZ/2024-09-17-14-21-01/
     RDKit          3D

 30 32  0  0  0  0  0  0  0  0999 V2000
   -7.7129    4.2099   27.0854 C   0  0  0  0  0  0  0  0  0  0  0  0
   -8.9133    4.4736   27.0998 C   0  0  2  0  0  0  0  0  0  0  0  0
   -9.7135    3.9633   26.0300 C   0  0  1  0  0  0  0  0  0  0  0  0
   -6.8420    4.9760   28.0851 C   0  0  0  0  0  0  0  0  0  0  0  0
  -10.9164    3.4776   26.1172 C   0  0  0  0  0  0  0  0  0  0  0  0
  -11.0289    2.6087   26.8959 C   0  0  1  0  0  0  0  0  0  0  0  0
  -11.0524    3.0875   28.3629 C   0  0  0  0  0  0  0  0  0  0  0  0
  -12.4348    1.6857   26.8839 C   0  0  1  0  0  0  0  0  0  0  0  0
  -12.2356    0.4809   26.7414 C   0  0  0  0  0  0  0  0  0  0  0  0
  -11.6928   -0.1312   27.8058 C   0  0  0  0  0  0  0  0  0  0  0  0
  -12.2882   -0.6193   28.8187 C   0  0  0  0  0  0  0  0  0  0  0  0
  -10.2115   -0.4314   27.7242 C   0  0  0  0  0  0  0  0  0  0  0  0
   -9.2826    0.3122   27.0240 C   0  0  0  0  0  0  0  0  0  0  0  0
   -9.7244   -1.5837   28.4877 C   0  0  0  0  0  0  0  0  0  0  0  0
   -7.8758   -0.0313   27.1637 C   0  0  0  0  0  0  0  0  0  0  0  0
   -8.3532   -1.8635   28.5020 C   0  0  0  0  0  0  0  0  0  0  0  0
   -7.4343   -1.0810   27.8406 C   0  0  0  0  0  0  0  0  0  0  0  0
   -7.5736    5.8682   28.8008 N   0  0  0  0  0  0  0  0  0  0  0  0
   -9.2850    5.4261   28.1373 C   0  0  0  0  0  0  0  0  0  0  0  0
  -13.4510    0.0506   29.2413 C   0  0  0  0  0  0  0  0  0  0  0  0
  -13.9688    0.9331   28.8187 C   0  0  0  0  0  0  0  0  0  0  0  0
  -15.2362    1.5050   29.3473 C   0  0  0  0  0  0  0  0  0  0  0  0
  -13.4850    1.8335   27.6483 C   0  0  0  0  0  0  0  0  0  0  0  0
  -15.8273    2.3717   29.0413 O   0  0  0  0  0  0  0  0  0  0  0  0
  -15.5198    0.9493   30.6262 N   0  0  0  0  0  0  0  0  0  0  0  0
   -9.2714    4.4310   24.8473 F   0  0  0  0  0  0  0  0  0  0  0  0
   -5.9934   -1.3670   27.9561 C   0  0  0  0  0  0  0  0  0  0  0  0
   -5.0950   -0.8258   28.1417 C   0  0  0  0  0  0  0  0  0  0  0  0
   -3.8935   -0.6841   28.3071 C   0  0  0  0  0  0  0  0  0  0  0  0
   -2.9821    0.4755   28.5825 C   0  0  0  0  0  0  0  0  0  0  0  0
  2  1  1  6
  2  3  1  0
  1  4  1  0
  3  5  1  0
  5  6  1  0
  6  7  1  1
  6  8  1  0
  8  9  1  1
  9 10  1  0
 10 11  2  0
 10 12  1  0
  4 18  2  0
  2 19  1  0
 18 19  1  0
 11 20  1  0
 20 21  2  0
 21 22  1  0
  8 23  1  0
 21 23  1  0
 22 24  2  0
 22 25  1  0
  3 26  1  6
 17 27  1  0
 27 28  2  3
 28 29  1  0
 29 30  2  0
 12 13  2  0
 13 15  1  0
 15 17  2  0
 17 16  1  0
 16 14  2  0
 14 12  1  0
M  END
$$$$
