No_9-complexes_sdf/6BKW-FPZ/2024-09-17-14-21-01/
     RDKit          3D

 16 18  0  0  0  0  0  0  0  0999 V2000
   -7.9040    3.9820   27.1177 C   0  0  0  0  0  0  0  0  0  0  0  0
   -7.8663    4.8694   27.9238 C   0  0  0  0  0  0  0  0  0  0  0  0
   -9.0491    3.8523   26.2542 C   0  0  0  0  0  0  0  0  0  0  0  0
   -8.7661    5.9491   27.9690 C   0  0  0  0  0  0  0  0  0  0  0  0
   -9.9295    4.8502   26.2323 C   0  0  0  0  0  0  0  0  0  0  0  0
   -9.8077    5.9288   27.0933 C   0  0  0  0  0  0  0  0  0  0  0  0
   -9.0726    2.7074   25.3087 C   0  0  0  0  0  0  0  0  0  0  0  0
   -8.6026    1.4628   25.7488 C   0  0  0  0  0  0  0  0  0  0  0  0
   -9.8167    2.8097   24.1154 C   0  0  0  0  0  0  0  0  0  0  0  0
   -9.2378    0.5827   25.9253 C   0  0  0  0  0  0  0  0  0  0  0  0
  -10.2827    1.5321   23.6772 C   0  0  0  0  0  0  0  0  0  0  0  0
  -10.0075    0.3698   24.5183 C   0  0  0  0  0  0  0  0  0  0  0  0
  -10.5584   -0.9398   24.1096 C   0  0  0  0  0  0  0  0  0  0  0  0
  -10.9195   -1.1806   23.0768 C   0  0  0  0  0  0  0  0  0  0  0  0
  -11.1078   -0.0248   22.0779 C   0  0  0  0  0  0  0  0  0  0  0  0
  -10.8317    1.2957   22.4367 C   0  0  0  0  0  0  0  0  0  0  0  0
  3  7  1  0
 12 13  1  0
 13 14  2  0
 14 15  1  0
 15 16  2  0
 16 11  1  0
  1  2  2  0
  2  4  1  0
  4  6  2  0
  6  5  1  0
  5  3  2  0
  3  1  1  0
  7  8  2  0
  8 10  1  0
 10 12  2  0
 12 11  1  0
 11  9  2  0
  9  7  1  0
M  END
$$$$
