No_9436-complexes_sdf/6BKW-FPZ/2024-09-17-14-21-01/
     RDKit          3D

 13 14  0  0  0  0  0  0  0  0999 V2000
   -7.9040    3.9820   27.1177 C   0  0  0  0  0  0  0  0  0  0  0  0
   -7.8663    4.8694   27.9238 C   0  0  0  0  0  0  0  0  0  0  0  0
   -9.0501    3.8017   26.2617 C   0  0  0  0  0  0  0  0  0  0  0  0
   -9.1826    2.7026   25.3575 C   0  0  0  0  0  0  0  0  0  0  0  0
   -8.6940    6.0131   27.8614 C   0  0  0  0  0  0  0  0  0  0  0  0
  -10.1138    4.6733   26.4644 C   0  0  0  0  0  0  0  0  0  0  0  0
   -9.8579    5.8496   27.1764 C   0  0  0  0  0  0  0  0  0  0  0  0
   -8.6931    1.4583   25.7173 C   0  0  0  0  0  0  0  0  0  0  0  0
   -8.7863    0.3952   24.8282 C   0  0  0  0  0  0  0  0  0  0  0  0
   -9.3852    0.6378   23.5698 C   0  0  0  0  0  0  0  0  0  0  0  0
   -9.7849    2.7950   24.0795 C   0  0  0  0  0  0  0  0  0  0  0  0
   -9.8338    1.8416   23.2297 C   0  0  0  0  0  0  0  0  0  0  0  0
   -9.4612   -0.4183   22.6782 F   0  0  0  0  0  0  0  0  0  0  0  0
  3  4  1  0
 10 13  1  0
  4  8  2  0
  8  9  1  0
  9 10  2  0
 10 12  1  0
 12 11  2  0
 11  4  1  0
  1  2  2  0
  2  5  1  0
  5  7  2  0
  7  6  1  0
  6  3  2  0
  3  1  1  0
M  END
$$$$
