No_9534-complexes_sdf/6BKW-FPZ/2024-09-17-14-21-01/
     RDKit          3D

 21 23  0  0  0  0  0  0  0  0999 V2000
   -7.9040    3.9820   27.1177 C   0  0  0  0  0  0  0  0  0  0  0  0
   -7.8663    4.8694   27.9238 C   0  0  0  0  0  0  0  0  0  0  0  0
   -9.0491    3.8523   26.2542 C   0  0  0  0  0  0  0  0  0  0  0  0
   -8.7661    5.9491   27.9690 C   0  0  0  0  0  0  0  0  0  0  0  0
   -9.9295    4.8502   26.2323 C   0  0  0  0  0  0  0  0  0  0  0  0
   -9.8077    5.9288   27.0933 C   0  0  0  0  0  0  0  0  0  0  0  0
   -9.0841    2.5340   25.1382 Cl  0  0  0  0  0  0  0  0  0  0  0  0
   -6.9937    2.9274   27.1430 O   0  0  0  0  0  0  0  0  0  0  0  0
   -6.1779    2.8279   28.1681 C   0  0  0  0  0  0  0  0  0  0  0  0
   -5.4677    1.5051   28.0542 C   0  0  0  0  0  0  0  0  0  0  0  0
   -5.8868    0.4243   27.4215 C   0  0  0  0  0  0  0  0  0  0  0  0
   -5.1957   -0.7526   27.3657 C   0  0  0  0  0  0  0  0  0  0  0  0
   -3.9089   -0.7774   27.9696 C   0  0  0  0  0  0  0  0  0  0  0  0
   -3.3498    0.3195   28.5877 C   0  0  0  0  0  0  0  0  0  0  0  0
   -4.0946    1.4657   28.6677 C   0  0  0  0  0  0  0  0  0  0  0  0
   -3.1142   -2.0626   27.8331 C   0  0  0  0  0  0  0  0  0  0  0  0
   -2.7876   -2.7556   28.6458 N   0  0  0  0  0  0  0  0  0  0  0  0
   -2.0073   -3.7997   28.5337 C   0  0  0  0  0  0  0  0  0  0  0  0
   -1.6204   -4.1147   27.2213 C   0  0  0  0  0  0  0  0  0  0  0  0
   -2.6069   -2.3049   26.4744 C   0  0  0  0  0  0  0  0  0  0  0  0
   -1.8778   -3.3435   26.1855 C   0  0  0  0  0  0  0  0  0  0  0  0
  3  7  1  0
  1  8  1  0
  8  9  1  0
 13 16  1  0
  9 10  1  0
  1  2  2  0
  2  4  1  0
  4  6  2  0
  6  5  1  0
  5  3  2  0
  3  1  1  0
 10 11  2  0
 11 12  1  0
 12 13  2  0
 13 14  1  0
 14 15  2  0
 15 10  1  0
 16 17  2  0
 17 18  1  0
 18 19  2  0
 19 21  1  0
 21 20  2  0
 20 16  1  0
M  END
$$$$
