No_9216-complexes_sdf/6BKW-FPZ/2024-09-17-14-21-01/
     RDKit          3D

 20 22  0  0  0  0  0  0  0  0999 V2000
   -7.9040    3.9820   27.1177 C   0  0  0  0  0  0  0  0  0  0  0  0
   -8.2057    2.8231   26.8733 C   0  0  0  0  0  0  0  0  0  0  0  0
   -9.2962    2.4021   26.1155 C   0  0  0  0  0  0  0  0  0  0  0  0
   -8.7358    5.0662   26.5917 C   0  0  0  0  0  0  0  0  0  0  0  0
   -9.7618    4.7023   25.7546 C   0  0  0  0  0  0  0  0  0  0  0  0
  -10.0066    3.4105   25.4922 C   0  0  0  0  0  0  0  0  0  0  0  0
   -8.2002    6.4309   26.9312 C   0  0  0  0  0  0  0  0  0  0  0  0
   -8.9545    7.5352   26.6197 N   0  0  0  0  0  0  0  0  0  0  0  0
   -7.4694    6.4875   28.0405 O   0  0  0  0  0  0  0  0  0  0  0  0
   -7.3639    1.6421   27.4520 C   0  0  0  0  0  0  0  0  0  0  0  0
   -7.7604    0.3866   27.3888 N   0  0  0  0  0  0  0  0  0  0  0  0
   -8.9003   -0.0227   27.3723 C   0  0  0  0  0  0  0  0  0  0  0  0
   -9.9705    0.7518   26.7460 C   0  0  0  0  0  0  0  0  0  0  0  0
   -5.6827    2.0534   27.7897 S   0  0  0  0  0  0  0  0  0  0  0  0
   -5.2029    0.5272   28.4595 C   0  0  1  0  0  0  0  0  0  0  0  0
   -3.9128    0.4781   29.0871 C   0  0  0  0  0  0  0  0  0  0  0  0
   -3.5184   -0.6682   29.7570 C   0  0  0  0  0  0  0  0  0  0  0  0
   -4.3438   -1.7383   29.7435 C   0  0  0  0  0  0  0  0  0  0  0  0
   -5.9858   -0.6433   28.4906 C   0  0  0  0  0  0  0  0  0  0  0  0
   -5.4907   -1.7090   29.1639 C   0  0  0  0  0  0  0  0  0  0  0  0
  1  2  2  0
  2  3  1  0
  1  4  1  0
  4  5  2  0
  3  6  2  0
  5  6  1  0
  4  7  1  0
  7  8  1  0
  7  9  2  0
  2 10  1  0
 10 11  1  0
 11 12  2  0
  3 13  1  0
 12 13  1  0
 10 14  2  3
 14 15  1  0
 15 16  1  1
 16 17  1  0
 17 18  2  0
 15 19  1  0
 18 20  1  0
 19 20  2  0
M  END
$$$$
