No_9295-complexes_sdf/6BKW-FPZ/2024-09-17-14-21-01/
     RDKit          3D

 22 23  0  0  0  0  0  0  0  0999 V2000
   -7.9040    3.9820   27.1177 C   0  0  0  0  0  0  0  0  0  0  0  0
   -8.2057    2.8231   26.8733 C   0  0  0  0  0  0  0  0  0  0  0  0
   -9.2962    2.4021   26.1155 C   0  0  0  0  0  0  0  0  0  0  0  0
   -8.7358    5.0662   26.5917 C   0  0  0  0  0  0  0  0  0  0  0  0
   -9.7618    4.7023   25.7546 C   0  0  0  0  0  0  0  0  0  0  0  0
  -10.0066    3.4105   25.4922 C   0  0  0  0  0  0  0  0  0  0  0  0
   -8.6255    6.4891   26.8817 C   0  0  0  0  0  0  0  0  0  0  0  0
   -8.0520    7.5057   27.0558 N   0  0  0  0  0  0  0  0  0  0  0  0
   -7.3236    1.6904   27.4844 C   0  0  0  0  0  0  0  0  0  0  0  0
   -6.5133    0.9643   26.7279 C   0  0  0  0  0  0  0  0  0  0  0  0
   -5.5381    0.2084   27.4985 C   0  0  0  0  0  0  0  0  0  0  0  0
   -4.3330    0.3273   27.1574 C   0  0  0  0  0  0  0  0  0  0  0  0
   -3.2618   -0.0635   27.5285 C   0  0  0  0  0  0  0  0  0  0  0  0
   -3.2563   -0.9304   28.7537 C   0  0  0  0  0  0  0  0  0  0  0  0
   -4.5681   -1.1395   29.2665 C   0  0  0  0  0  0  0  0  0  0  0  0
   -5.6649   -0.5521   28.6811 C   0  0  0  0  0  0  0  0  0  0  0  0
   -4.7289   -1.8632   30.3669 F   0  0  0  0  0  0  0  0  0  0  0  0
  -11.0995    3.0875   24.5503 C   0  0  0  0  0  0  0  0  0  0  0  0
  -10.9098    2.0497   23.6638 C   0  0  0  0  0  0  0  0  0  0  0  0
  -10.3356    2.1997   22.7025 C   0  0  0  0  0  0  0  0  0  0  0  0
   -9.8561    1.0738   21.7995 C   0  0  0  0  0  0  0  0  0  0  0  0
   -9.2221    1.1774   20.7355 C   0  0  0  0  0  0  0  0  0  0  0  0
  4  7  1  0
  7  8  3  0
  2  9  1  0
  9 10  1  0
 10 11  1  0
 15 17  1  0
  6 18  1  0
 18 19  1  0
 19 20  1  0
 20 21  2  3
 21 22  1  0
 11 12  2  0
 12 13  1  0
 13 14  2  0
 14 15  1  0
 15 16  2  0
 16 11  1  0
  1  2  2  0
  2  3  1  0
  3  6  2  0
  6  5  1  0
  5  4  2  0
  4  1  1  0
M  END
$$$$
