No_9210-complexes_sdf/6BKW-FPZ/2024-09-17-14-21-01/
     RDKit          3D

 13 13  0  0  0  0  0  0  0  0999 V2000
   -7.9040    3.9820   27.1177 C   0  0  0  0  0  0  0  0  0  0  0  0
   -9.0711    4.3164   27.0630 C   0  0  1  0  0  0  0  0  0  0  0  0
   -9.5294    5.4517   27.7215 C   0  0  0  0  0  0  0  0  0  0  0  0
   -9.5325    4.2881   25.5671 C   0  0  0  0  0  0  0  0  0  0  0  0
   -7.0762    4.6127   28.1298 C   0  0  0  0  0  0  0  0  0  0  0  0
  -10.4658    3.3047   25.1499 C   0  0  2  0  0  0  0  0  0  0  0  0
  -10.6748    2.2817   25.7057 C   0  0  0  0  0  0  0  0  0  0  0  0
  -10.1839    2.1094   27.0723 C   0  0  0  0  0  0  0  0  0  0  0  0
   -9.4784    3.1242   27.7668 C   0  0  0  0  0  0  0  0  0  0  0  0
  -10.8782    3.5447   23.6954 C   0  0  0  0  0  0  0  0  0  0  0  0
  -10.7832    2.7077   22.7014 C   0  0  0  0  0  0  0  0  0  0  0  0
  -10.1235    1.4462   22.9933 C   0  0  0  0  0  0  0  0  0  0  0  0
  -10.3290    0.4840   22.0404 C   0  0  0  0  0  0  0  0  0  0  0  0
  1  2  1  0
  2  3  1  1
  2  4  1  0
  1  5  1  0
  6  4  1  6
  7  8  1  0
  2  9  1  0
  6 10  1  0
 10 11  2  3
 11 12  1  0
 12 13  3  0
  6  7  1  0
  8  9  1  0
M  END
$$$$
