No_9174-complexes_sdf/6BKW-FPZ/2024-09-17-14-21-01/
     RDKit          3D

 32 36  0  0  0  0  0  0  0  0999 V2000
   -7.7129    4.2099   27.0854 C   0  0  0  0  0  0  0  0  0  0  0  0
   -8.2112    3.0637   26.9225 C   0  0  0  0  0  0  0  0  0  0  0  0
   -8.5108    5.3904   26.9436 C   0  0  0  0  0  0  0  0  0  0  0  0
   -7.9752    6.6981   27.2112 C   0  0  0  0  0  0  0  0  0  0  0  0
   -9.5213    2.8208   26.4688 C   0  0  0  0  0  0  0  0  0  0  0  0
  -10.2979    3.9327   26.2378 C   0  0  0  0  0  0  0  0  0  0  0  0
   -9.7894    5.2123   26.4395 C   0  0  0  0  0  0  0  0  0  0  0  0
   -7.3451    1.8185   27.1796 C   0  0  0  0  0  0  0  0  0  0  0  0
   -6.0720    1.9951   27.7873 C   0  0  0  0  0  0  0  0  0  0  0  0
   -5.2638    0.8363   28.0519 C   0  0  0  0  0  0  0  0  0  0  0  0
   -5.7441   -0.4172   27.8376 C   0  0  0  0  0  0  0  0  0  0  0  0
   -7.5970    0.4521   27.0711 C   0  0  0  0  0  0  0  0  0  0  0  0
   -6.9717   -0.5607   27.3754 C   0  0  0  0  0  0  0  0  0  0  0  0
   -8.6370    7.7983   26.8176 N   0  0  0  0  0  0  0  0  0  0  0  0
   -6.7774    6.8270   27.8025 N   0  0  0  0  0  0  0  0  0  0  0  0
   -4.0283    1.1240   28.5676 F   0  0  0  0  0  0  0  0  0  0  0  0
  -11.5480    3.9476   25.5741 C   0  0  0  0  0  0  0  0  0  0  0  0
  -12.6239    3.8941   26.3029 C   0  0  0  0  0  0  0  0  0  0  0  0
  -13.9727    3.8467   25.7217 C   0  0  0  0  0  0  0  0  0  0  0  0
  -14.0056    3.7507   24.3351 C   0  0  0  0  0  0  0  0  0  0  0  0
  -11.6322    3.8633   24.1928 C   0  0  0  0  0  0  0  0  0  0  0  0
  -10.3929    3.8556   23.3821 C   0  0  0  0  0  0  0  0  0  0  0  0
  -12.8882    3.8090   23.5467 C   0  0  0  0  0  0  0  0  0  0  0  0
  -10.5352    4.0780   22.0153 C   0  0  0  0  0  0  0  0  0  0  0  0
  -11.7546    4.0338   21.4017 C   0  0  0  0  0  0  0  0  0  0  0  0
  -12.9748    3.9705   22.1310 C   0  0  0  0  0  0  0  0  0  0  0  0
  -12.5815    3.9611   27.6389 F   0  0  0  0  0  0  0  0  0  0  0  0
  -15.3781    3.8050   23.7506 C   0  0  0  0  0  0  0  0  0  0  0  0
  -16.4350    3.3951   24.5788 C   0  0  0  0  0  0  0  0  0  0  0  0
  -16.3334    3.5641   25.8933 C   0  0  0  0  0  0  0  0  0  0  0  0
  -15.0992    3.7106   26.5793 C   0  0  0  0  0  0  0  0  0  0  0  0
  -18.0914    3.2876   23.7174 Br  0  0  0  0  0  0  0  0  0  0  0  0
  3  4  1  0
  2  8  1  0
  4 14  2  0
  4 15  1  0
 10 16  1  0
  6 17  1  0
 18 27  1  0
 29 32  1  0
  1  2  2  0
  2  5  1  0
  5  6  2  0
  6  7  1  0
  7  3  2  0
  3  1  1  0
  8  9  2  0
  9 10  1  0
 10 11  2  0
 11 13  1  0
 13 12  2  0
 12  8  1  0
 17 18  2  0
 18 19  1  0
 20 23  1  0
 21 17  1  0
 19 20  2  0
 20 28  1  0
 28 29  2  0
 29 30  1  0
 30 31  2  0
 31 19  1  0
 21 22  2  0
 22 24  1  0
 24 25  2  0
 25 26  1  0
 26 23  2  0
 23 21  1  0
M  END
$$$$
