No_901-complexes_sdf/6BKW-FPZ/2024-09-17-14-21-01/
     RDKit          3D

 10 10  0  0  0  0  0  0  0  0999 V2000
   -7.7129    4.2099   27.0854 C   0  0  0  0  0  0  0  0  0  0  0  0
   -7.7814    5.1722   27.8972 C   0  0  0  0  0  0  0  0  0  0  0  0
   -7.2983    2.9533   27.5684 C   0  0  0  0  0  0  0  0  0  0  0  0
   -7.6908    1.8111   26.9553 C   0  0  0  0  0  0  0  0  0  0  0  0
   -7.2237    0.5782   27.3450 C   0  0  0  0  0  0  0  0  0  0  0  0
   -7.9192   -0.5866   27.0520 C   0  0  0  0  0  0  0  0  0  0  0  0
   -9.0536   -0.4309   26.2277 C   0  0  0  0  0  0  0  0  0  0  0  0
   -9.4570    0.7633   25.7177 C   0  0  0  0  0  0  0  0  0  0  0  0
   -8.7851    1.9293   26.1732 C   0  0  0  0  0  0  0  0  0  0  0  0
   -8.5053    6.3783   27.5452 C   0  0  0  0  0  0  0  0  0  0  0  0
  1  2  2  3
  1  3  1  0
  3  4  1  0
  2 10  1  0
  4  5  2  0
  5  6  1  0
  6  7  2  0
  7  8  1  0
  8  9  2  0
  9  4  1  0
M  END
$$$$
