No_9832-complexes_sdf/6BKW-FPZ/2024-09-17-14-21-01/
     RDKit          3D

 36 39  0  0  0  0  0  0  0  0999 V2000
   -7.7129    4.2099   27.0854 C   0  0  0  0  0  0  0  0  0  0  0  0
   -8.2112    3.0637   26.9225 C   0  0  0  0  0  0  0  0  0  0  0  0
   -8.5108    5.3904   26.9436 C   0  0  0  0  0  0  0  0  0  0  0  0
   -9.7256    5.1955   26.3518 C   0  0  0  0  0  0  0  0  0  0  0  0
   -9.4995    2.8258   26.4878 C   0  0  0  0  0  0  0  0  0  0  0  0
  -10.2542    3.9691   26.2055 C   0  0  0  0  0  0  0  0  0  0  0  0
   -7.9135    6.7086   27.1885 C   0  0  0  0  0  0  0  0  0  0  0  0
   -7.3624    1.8198   27.2561 C   0  0  0  0  0  0  0  0  0  0  0  0
   -7.8317    0.5143   27.1524 C   0  0  0  0  0  0  0  0  0  0  0  0
   -9.2021    0.4083   26.9697 C   0  0  0  0  0  0  0  0  0  0  0  0
   -9.9961    1.4711   26.5218 C   0  0  0  0  0  0  0  0  0  0  0  0
   -8.5852    7.8150   26.8108 N   0  0  0  0  0  0  0  0  0  0  0  0
   -7.0627    6.8630   28.2177 N   0  0  0  0  0  0  0  0  0  0  0  0
   -6.9067   -0.7539   27.7188 Cl  0  0  0  0  0  0  0  0  0  0  0  0
   -6.0765    2.0818   27.6517 O   0  0  0  0  0  0  0  0  0  0  0  0
  -11.2877    1.2718   26.2280 O   0  0  0  0  0  0  0  0  0  0  0  0
  -12.1444    1.1227   27.1139 C   0  0  0  0  0  0  0  0  0  0  0  0
  -13.2721    0.7610   26.8628 C   0  0  0  0  0  0  0  0  0  0  0  0
  -11.8696    1.3067   28.5997 C   0  0  0  0  0  0  0  0  0  0  0  0
  -12.8322    1.2378   29.5564 C   0  0  0  0  0  0  0  0  0  0  0  0
  -14.3758    0.6091   27.8544 C   0  0  0  0  0  0  0  0  0  0  0  0
  -14.0901    0.8997   29.2082 C   0  0  0  0  0  0  0  0  0  0  0  0
  -15.1642    0.7759   30.2440 C   0  0  0  0  0  0  0  0  0  0  0  0
  -15.0993    1.5911   31.3276 C   0  0  0  0  0  0  0  0  0  0  0  0
  -14.7537    2.7308   31.2263 C   0  0  0  0  0  0  0  0  0  0  0  0
  -15.2317    3.7733   30.6218 C   0  0  0  0  0  0  0  0  0  0  0  0
  -14.6634    5.1019   30.5324 C   0  0  0  0  0  0  0  0  0  0  0  0
  -13.4562    3.2497   31.9962 C   0  0  0  0  0  0  0  0  0  0  0  0
  -13.4855    3.6451   33.3309 C   0  0  0  0  0  0  0  0  0  0  0  0
  -14.3148    4.0927   33.8735 C   0  0  0  0  0  0  0  0  0  0  0  0
  -14.2316    4.4889   35.3259 C   0  0  0  0  0  0  0  0  0  0  0  0
  -15.1329    5.2055   36.0445 C   0  0  0  0  0  0  0  0  0  0  0  0
  -12.2282    3.4443   34.0883 C   0  0  0  0  0  0  0  0  0  0  0  0
  -12.9364    4.2163   35.9934 C   0  0  0  0  0  0  0  0  0  0  0  0
  -11.9547    3.6682   35.3144 C   0  0  0  0  0  0  0  0  0  0  0  0
  -15.3192    6.1076   29.7303 C   0  0  0  0  0  0  0  0  0  0  0  0
  3  7  1  0
  7 12  1  0
  7 13  2  0
  9 14  1  0
  8 15  1  0
 11 16  1  0
 16 17  1  0
 22 23  1  0
 23 24  1  0
 24 25  1  0
 25 26  2  3
 26 27  1  0
 25 28  1  0
 28 29  1  0
 27 36  2  0
 32 31  1  0
  5 11  1  0
 11 10  2  0
 10  9  1  0
  9  8  2  0
  8  2  1  0
 29 30  2  0
 30 31  1  0
 31 34  2  0
 34 35  1  0
 35 33  2  0
 33 29  1  0
 17 18  2  0
 18 21  1  0
 21 22  2  0
 22 20  1  0
 20 19  2  0
 19 17  1  0
  1  2  2  0
  2  5  1  0
  5  6  2  0
  6  4  1  0
  4  3  2  0
  3  1  1  0
M  END
$$$$
