No_9816-complexes_sdf/6BKW-FPZ/2024-09-17-14-21-01/
     RDKit          3D

 26 28  0  0  0  0  0  0  0  0999 V2000
   -7.2496    3.8871   27.4508 C   0  0  0  0  0  0  0  0  0  0  0  0
   -8.5096    4.0291   27.2770 C   0  0  0  0  0  0  0  0  0  0  0  0
   -9.3502    2.8685   26.8763 C   0  0  0  0  0  0  0  0  0  0  0  0
   -6.6288    2.5513   27.4938 C   0  0  0  0  0  0  0  0  0  0  0  0
   -7.4365    1.4714   27.2032 C   0  0  0  0  0  0  0  0  0  0  0  0
   -8.7772    1.6579   26.9338 C   0  0  0  0  0  0  0  0  0  0  0  0
   -9.1119    5.3743   27.2229 C   0  0  0  0  0  0  0  0  0  0  0  0
   -8.3754    6.4338   27.0554 N   0  0  0  0  0  0  0  0  0  0  0  0
  -10.3613    5.4994   27.1165 O   0  0  0  0  0  0  0  0  0  0  0  0
   -7.0369    6.5183   27.0827 C   0  0  0  0  0  0  0  0  0  0  0  0
   -6.8250    0.1570   27.2165 C   0  0  0  0  0  0  0  0  0  0  0  0
   -5.5893   -0.0539   27.7911 C   0  0  0  0  0  0  0  0  0  0  0  0
   -4.9606   -1.3312   27.8079 C   0  0  0  0  0  0  0  0  0  0  0  0
   -5.6207   -2.3179   27.0942 C   0  0  0  0  0  0  0  0  0  0  0  0
   -7.2917   -0.9668   26.6312 C   0  0  0  0  0  0  0  0  0  0  0  0
   -6.7782   -2.1502   26.5523 C   0  0  0  0  0  0  0  0  0  0  0  0
   -6.7104    7.8627   26.9241 F   0  0  0  0  0  0  0  0  0  0  0  0
   -3.6391   -1.4598   28.5028 C   0  0  0  0  0  0  0  0  0  0  0  0
   -3.6902   -1.6787   29.8526 C   0  0  0  0  0  0  0  0  0  0  0  0
   -2.4408   -1.3716   27.7987 C   0  0  0  0  0  0  0  0  0  0  0  0
   -2.6733   -2.1414   30.5141 C   0  0  0  0  0  0  0  0  0  0  0  0
   -1.2485   -1.7476   28.4713 C   0  0  0  0  0  0  0  0  0  0  0  0
   -1.3163   -2.0628   29.8752 C   0  0  0  0  0  0  0  0  0  0  0  0
   -7.4639   -3.2491   25.9140 C   0  0  0  0  0  0  0  0  0  0  0  0
   -8.3196   -3.1558   25.1644 O   0  0  0  0  0  0  0  0  0  0  0  0
   -7.2269   -4.4643   26.3850 O   0  0  0  0  0  0  0  0  0  0  0  0
  2  7  1  0
  7  8  1  0
  7  9  2  0
  8 10  1  0
  5 11  1  0
 10 17  1  0
 13 18  1  0
 16 24  1  0
 24 25  2  0
 24 26  1  0
  1  2  2  0
  2  3  1  0
  3  6  2  0
  6  5  1  0
  5  4  2  0
  4  1  1  0
 18 19  2  0
 19 21  1  0
 21 23  2  0
 23 22  1  0
 22 20  2  0
 20 18  1  0
 11 12  2  0
 12 13  1  0
 13 14  2  0
 14 16  1  0
 16 15  2  0
 15 11  1  0
M  END
$$$$
