No_989-complexes_sdf/6BKW-FPZ/2024-09-17-14-21-01/
     RDKit          3D

 15 16  0  0  0  0  0  0  0  0999 V2000
   -7.2496    3.8871   27.4508 C   0  0  0  0  0  0  0  0  0  0  0  0
   -7.9379    4.9063   27.8518 C   0  0  0  0  0  0  0  0  0  0  0  0
   -9.3460    4.8223   27.8695 C   0  0  0  0  0  0  0  0  0  0  0  0
   -7.8628    2.6163   27.1065 C   0  0  0  0  0  0  0  0  0  0  0  0
   -9.2787    2.5744   27.1970 C   0  0  0  0  0  0  0  0  0  0  0  0
  -10.0108    3.6770   27.6340 C   0  0  0  0  0  0  0  0  0  0  0  0
  -11.4990    3.7612   27.7469 C   0  0  0  0  0  0  0  0  0  0  0  0
  -11.9237    3.1854   28.8964 C   0  0  0  0  0  0  0  0  0  0  0  0
  -13.2901    3.2656   29.3371 C   0  0  0  0  0  0  0  0  0  0  0  0
  -14.1290    4.0042   28.4662 C   0  0  0  0  0  0  0  0  0  0  0  0
  -13.6573    4.5754   27.3111 C   0  0  0  0  0  0  0  0  0  0  0  0
  -12.2716    4.5401   26.9999 C   0  0  0  0  0  0  0  0  0  0  0  0
   -9.9409    1.3006   26.9650 C   0  0  0  0  0  0  0  0  0  0  0  0
  -10.8511    0.9939   26.4976 C   0  0  0  0  0  0  0  0  0  0  0  0
  -11.4191   -0.3433   26.4065 C   0  0  0  0  0  0  0  0  0  0  0  0
  6  7  1  0
  5 13  1  0
 13 14  2  3
 14 15  1  0
  1  2  2  0
  2  3  1  0
  3  6  2  0
  6  5  1  0
  5  4  2  0
  4  1  1  0
  7  8  2  0
  8  9  1  0
  9 10  2  0
 10 11  1  0
 11 12  2  0
 12  7  1  0
M  END
$$$$
