No_9309-complexes_sdf/6BKW-FPZ/2024-09-17-14-21-01/
     RDKit          3D

 33 35  0  0  0  0  0  0  0  0999 V2000
   -7.7129    4.2099   27.0854 C   0  0  0  0  0  0  0  0  0  0  0  0
   -7.7814    5.1722   27.8972 C   0  0  0  0  0  0  0  0  0  0  0  0
   -8.8776    3.8408   26.3416 C   0  0  0  0  0  0  0  0  0  0  0  0
   -9.9844    4.6492   26.4743 C   0  0  0  0  0  0  0  0  0  0  0  0
   -8.8033    6.1375   27.8728 C   0  0  0  0  0  0  0  0  0  0  0  0
   -9.9554    5.8280   27.1737 C   0  0  0  0  0  0  0  0  0  0  0  0
   -8.8752    2.6155   25.5663 C   0  0  0  0  0  0  0  0  0  0  0  0
   -8.2802    1.4553   26.1648 C   0  0  0  0  0  0  0  0  0  0  0  0
   -8.9464    0.5115   26.4779 C   0  0  0  0  0  0  0  0  0  0  0  0
   -9.1087   -0.3980   25.9246 C   0  0  0  0  0  0  0  0  0  0  0  0
   -8.5835   -0.4205   24.5973 C   0  0  0  0  0  0  0  0  0  0  0  0
   -7.4473   -0.4204   24.6684 F   0  0  0  0  0  0  0  0  0  0  0  0
   -9.0779    0.5227   23.7751 F   0  0  0  0  0  0  0  0  0  0  0  0
   -8.7798   -1.6990   23.9250 F   0  0  0  0  0  0  0  0  0  0  0  0
  -11.3392    4.3369   25.5095 Cl  0  0  0  0  0  0  0  0  0  0  0  0
   -6.6606    5.6075   28.6215 O   0  0  0  0  0  0  0  0  0  0  0  0
   -9.3998    0.5723   28.0277 C   0  0  0  0  0  0  0  0  0  0  0  0
  -10.8976    0.6736   28.1682 C   0  0  0  0  0  0  0  0  0  0  0  0
  -11.7395   -0.0268   28.4790 C   0  0  0  0  0  0  0  0  0  0  0  0
  -13.1150    0.3480   28.6600 C   0  0  0  0  0  0  0  0  0  0  0  0
  -13.4497    1.6961   28.4365 C   0  0  0  0  0  0  0  0  0  0  0  0
  -12.4725    2.5886   28.0905 C   0  0  0  0  0  0  0  0  0  0  0  0
  -11.1506    2.2267   28.0226 C   0  0  0  0  0  0  0  0  0  0  0  0
  -11.5061   -1.3666   28.7404 O   0  0  0  0  0  0  0  0  0  0  0  0
  -11.8172   -2.2560   27.9340 C   0  0  0  0  0  0  0  0  0  0  0  0
  -12.1874   -3.4834   28.5428 C   0  0  0  0  0  0  0  0  0  0  0  0
  -11.8560   -3.8629   29.6495 C   0  0  0  0  0  0  0  0  0  0  0  0
  -10.8173   -3.7077   30.1602 C   0  0  0  0  0  0  0  0  0  0  0  0
  -10.1575   -3.7960   31.0257 C   0  0  0  0  0  0  0  0  0  0  0  0
   -9.0105   -3.4530   31.5370 C   0  0  0  0  0  0  0  0  0  0  0  0
   -8.1179   -2.7254   30.6413 C   0  0  0  0  0  0  0  0  0  0  0  0
   -8.6683   -2.4734   29.3769 C   0  0  0  0  0  0  0  0  0  0  0  0
   -9.8856   -2.8498   29.1541 C   0  0  0  0  0  0  0  0  0  0  0  0
  3  7  1  0
  7  8  1  0
  8  9  1  0
  9 10  2  3
 10 11  1  0
 11 12  1  0
 11 13  1  0
 11 14  1  0
  4 15  1  0
  2 16  1  0
  9 17  1  0
 17 18  1  0
 19 24  1  0
 24 25  1  0
 25 26  1  0
 26 27  1  0
 27 28  1  0
 18 19  1  0
 19 20  2  0
 20 21  1  0
 21 22  2  0
 22 23  1  0
 23 18  2  0
 28 29  2  0
 29 30  1  0
 30 31  2  0
 31 32  1  0
 32 33  2  0
 33 28  1  0
  1  2  2  0
  2  5  1  0
  5  6  2  0
  6  4  1  0
  4  3  2  0
  3  1  1  0
M  END
$$$$
