No_9005-complexes_sdf/6BKW-FPZ/2024-09-17-14-21-01/
     RDKit          3D

 18 19  0  0  0  0  0  0  0  0999 V2000
   -7.9040    3.9820   27.1177 C   0  0  0  0  0  0  0  0  0  0  0  0
   -8.2057    2.8231   26.8733 C   0  0  0  0  0  0  0  0  0  0  0  0
   -7.0130    4.3706   28.1140 C   0  0  0  0  0  0  0  0  0  0  0  0
   -7.4093    1.7370   27.3857 C   0  0  0  0  0  0  0  0  0  0  0  0
   -6.1712    2.1248   28.0064 C   0  0  0  0  0  0  0  0  0  0  0  0
   -5.9514    3.4407   28.3034 C   0  0  0  0  0  0  0  0  0  0  0  0
   -8.9085    5.0926   26.7182 C   0  0  0  0  0  0  0  0  0  0  0  0
   -9.0255    6.2793   27.4470 C   0  0  0  0  0  0  0  0  0  0  0  0
   -9.5559    4.9205   25.4763 C   0  0  0  0  0  0  0  0  0  0  0  0
   -5.3365    0.9469   28.2508 C   0  0  0  0  0  0  0  0  0  0  0  0
   -4.0101    1.1952   28.7378 C   0  0  0  0  0  0  0  0  0  0  0  0
   -3.2208    0.1103   29.1228 C   0  0  0  0  0  0  0  0  0  0  0  0
   -3.7453   -1.1618   29.0839 C   0  0  0  0  0  0  0  0  0  0  0  0
   -5.7551   -0.3484   28.2576 C   0  0  0  0  0  0  0  0  0  0  0  0
   -5.0093   -1.3871   28.6461 C   0  0  0  0  0  0  0  0  0  0  0  0
   -9.0331    4.0714   24.8390 F   0  0  0  0  0  0  0  0  0  0  0  0
   -9.5829    6.1225   24.8178 F   0  0  0  0  0  0  0  0  0  0  0  0
  -10.8759    4.7145   25.8250 F   0  0  0  0  0  0  0  0  0  0  0  0
  1  7  1  0
  7  8  2  0
  7  9  1  0
  5 10  1  0
  9 16  1  0
  9 17  1  0
  9 18  1  0
  1  2  2  0
  2  4  1  0
  4  5  2  0
  5  6  1  0
  6  3  2  0
  3  1  1  0
 10 11  2  0
 11 12  1  0
 12 13  2  0
 13 15  1  0
 15 14  2  0
 14 10  1  0
M  END
$$$$
