No_9223-complexes_sdf/6BKW-FPZ/2024-09-17-14-21-01/
     RDKit          3D

 40 43  0  0  0  0  0  0  0  0999 V2000
   -7.7129    4.2099   27.0854 C   0  0  0  0  0  0  0  0  0  0  0  0
   -8.2112    3.0637   26.9225 C   0  0  0  0  0  0  0  0  0  0  0  0
   -9.4446    2.8304   26.1868 C   0  0  0  0  0  0  0  0  0  0  0  0
   -8.4697    5.3956   26.7238 C   0  0  0  0  0  0  0  0  0  0  0  0
   -9.6172    5.2111   25.9513 C   0  0  0  0  0  0  0  0  0  0  0  0
  -10.0424    3.9782   25.6873 C   0  0  0  0  0  0  0  0  0  0  0  0
   -7.9172    6.7181   27.0124 C   0  0  0  0  0  0  0  0  0  0  0  0
   -7.2016    6.7379   28.0490 F   0  0  0  0  0  0  0  0  0  0  0  0
   -9.0277    7.5536   27.3596 F   0  0  0  0  0  0  0  0  0  0  0  0
   -7.5007    1.8114   27.4117 C   0  0  0  0  0  0  0  0  0  0  0  0
   -8.0637    0.5314   27.3085 C   0  0  0  0  0  0  0  0  0  0  0  0
   -7.3188   -0.5373   27.6568 C   0  0  0  0  0  0  0  0  0  0  0  0
   -6.0295   -0.3876   28.1714 C   0  0  0  0  0  0  0  0  0  0  0  0
   -5.4234    0.8892   28.1798 C   0  0  0  0  0  0  0  0  0  0  0  0
   -6.1037    1.9468   27.7809 C   0  0  0  0  0  0  0  0  0  0  0  0
   -3.7747    1.2315   28.6399 Cl  0  0  0  0  0  0  0  0  0  0  0  0
   -7.3019    7.2917   26.0496 F   0  0  0  0  0  0  0  0  0  0  0  0
  -11.2564    3.8784   24.8603 C   0  0  0  0  0  0  0  0  0  0  0  0
  -12.5217    3.6668   25.3875 C   0  0  0  0  0  0  0  0  0  0  0  0
  -12.6688    3.6015   26.8490 C   0  0  0  0  0  0  0  0  0  0  0  0
  -11.6273    3.6038   27.6769 C   0  0  0  0  0  0  0  0  0  0  0  0
  -12.0334    3.5421   29.1550 C   0  0  0  0  0  0  0  0  0  0  0  0
  -13.2971    3.4173   29.6096 C   0  0  0  0  0  0  0  0  0  0  0  0
  -14.3102    3.5028   28.6682 C   0  0  0  0  0  0  0  0  0  0  0  0
  -14.0357    3.6103   27.3554 C   0  0  0  0  0  0  0  0  0  0  0  0
  -11.0680    4.0526   23.4425 C   0  0  0  0  0  0  0  0  0  0  0  0
  -10.0314    4.0851   22.7788 C   0  0  0  0  0  0  0  0  0  0  0  0
   -9.9049    4.1888   21.3549 C   0  0  0  0  0  0  0  0  0  0  0  0
  -11.1425    4.2777   20.6242 C   0  0  0  0  0  0  0  0  0  0  0  0
  -12.2800    4.2849   22.6286 C   0  0  0  0  0  0  0  0  0  0  0  0
  -12.3004    4.3630   21.3131 C   0  0  0  0  0  0  0  0  0  0  0  0
  -13.5428    3.3454   31.0755 C   0  0  0  0  0  0  0  0  0  0  0  0
  -13.3911    2.1762   31.5302 F   0  0  0  0  0  0  0  0  0  0  0  0
  -14.8138    3.8492   31.3883 F   0  0  0  0  0  0  0  0  0  0  0  0
  -12.7016    4.1352   31.8262 F   0  0  0  0  0  0  0  0  0  0  0  0
   -7.9057   -1.8528   27.7339 C   0  0  0  0  0  0  0  0  0  0  0  0
   -8.1194   -2.5240   26.7165 C   0  0  0  0  0  0  0  0  0  0  0  0
   -8.7672   -3.8241   26.7111 C   0  0  0  0  0  0  0  0  0  0  0  0
   -9.1137   -4.3342   27.9439 C   0  0  0  0  0  0  0  0  0  0  0  0
   -8.9139   -3.6088   29.1045 C   0  0  0  0  0  0  0  0  0  0  0  0
  4  7  1  0
  7  8  1  0
  7  9  1  0
  2 10  1  0
 14 16  1  0
  7 17  1  0
  6 18  1  0
 18 19  2  3
 19 20  1  0
 18 26  1  0
 23 32  1  0
 32 33  1  0
 32 34  1  0
 32 35  1  0
 12 36  1  0
 36 37  2  3
 37 38  1  0
 38 39  2  3
 39 40  1  0
 26 27  2  0
 27 28  1  0
 28 29  2  0
 29 31  1  0
 31 30  2  0
 30 26  1  0
  1  2  2  0
  2  3  1  0
  3  6  2  0
  6  5  1  0
  5  4  2  0
  4  1  1  0
 10 11  2  0
 11 12  1  0
 12 13  2  0
 13 14  1  0
 14 15  2  0
 15 10  1  0
 20 21  2  0
 21 22  1  0
 22 23  2  0
 23 24  1  0
 24 25  2  0
 25 20  1  0
M  END
$$$$
