No_9250-complexes_sdf/6BKW-FPZ/2024-09-17-14-21-01/
     RDKit          3D

 12 12  0  0  0  0  0  0  0  0999 V2000
   -7.9040    3.9820   27.1177 C   0  0  0  0  0  0  0  0  0  0  0  0
   -9.0711    4.3164   27.0630 C   0  0  0  0  0  0  0  0  0  0  0  0
   -9.5294    5.4517   27.7215 C   0  0  0  0  0  0  0  0  0  0  0  0
   -6.9328    4.7309   27.8881 C   0  0  0  0  0  0  0  0  0  0  0  0
   -7.3666    5.8455   28.5488 C   0  0  0  0  0  0  0  0  0  0  0  0
   -8.6669    6.2428   28.4199 C   0  0  0  0  0  0  0  0  0  0  0  0
   -9.9775    3.4523   26.2361 C   0  0  0  0  0  0  0  0  0  0  0  0
  -10.4565    3.9065   25.1434 C   0  0  0  0  0  0  0  0  0  0  0  0
  -11.1854    3.2161   24.1617 C   0  0  0  0  0  0  0  0  0  0  0  0
  -11.6032    3.8381   22.9464 C   0  0  0  0  0  0  0  0  0  0  0  0
  -12.3491    3.1593   22.0430 C   0  0  0  0  0  0  0  0  0  0  0  0
  -12.6318    1.8375   22.2399 C   0  0  0  0  0  0  0  0  0  0  0  0
  2  7  1  0
  7  8  1  0
  8  9  2  3
  9 10  1  0
 10 11  2  3
 11 12  1  0
  1  2  2  0
  2  3  1  0
  3  6  2  0
  6  5  1  0
  5  4  2  0
  4  1  1  0
M  END
$$$$
