No_9139-complexes_sdf/6BKW-FPZ/2024-09-17-14-21-01/
     RDKit          3D

 16 18  0  0  0  0  0  0  0  0999 V2000
   -7.9040    3.9820   27.1177 C   0  0  0  0  0  0  0  0  0  0  0  0
   -7.8663    4.8694   27.9238 C   0  0  0  0  0  0  0  0  0  0  0  0
   -7.4547    2.7080   27.4594 C   0  0  0  0  0  0  0  0  0  0  0  0
   -7.9337    1.5946   26.8372 C   0  0  0  0  0  0  0  0  0  0  0  0
   -8.9032    1.7881   25.8510 C   0  0  0  0  0  0  0  0  0  0  0  0
   -9.3787    2.9871   25.5530 C   0  0  0  0  0  0  0  0  0  0  0  0
   -8.9781    4.0300   26.2200 C   0  0  0  0  0  0  0  0  0  0  0  0
   -8.2454    6.2265   27.6332 N   0  0  0  0  0  0  0  0  0  0  0  0
   -9.1863    6.5523   26.7292 C   0  0  0  0  0  0  0  0  0  0  0  0
   -9.5464    5.3954   25.9189 C   0  0  0  0  0  0  0  0  0  0  0  0
   -7.3252    0.2709   27.1267 C   0  0  0  0  0  0  0  0  0  0  0  0
   -6.0491    0.1506   27.6477 C   0  0  0  0  0  0  0  0  0  0  0  0
   -5.5282   -1.0410   28.0836 C   0  0  0  0  0  0  0  0  0  0  0  0
   -6.3677   -2.1384   27.9687 C   0  0  0  0  0  0  0  0  0  0  0  0
   -8.0000   -0.9529   27.1867 C   0  0  0  0  0  0  0  0  0  0  0  0
   -7.5904   -2.0856   27.5775 C   0  0  0  0  0  0  0  0  0  0  0  0
  4 11  1  0
  1  2  2  0
  2  8  1  0
  8  9  2  0
  9 10  1  0
 10  7  2  0
 11 12  2  0
 12 13  1  0
 13 14  2  0
 14 16  1  0
 16 15  2  0
 15 11  1  0
  1  3  1  0
  3  4  2  0
  4  5  1  0
  5  6  2  0
  6  7  1  0
  7  1  1  0
M  END
$$$$
