No_9807-complexes_sdf/6BKW-FPZ/2024-09-17-14-21-01/
     RDKit          3D

 23 26  0  0  0  0  0  0  0  0999 V2000
   -7.2496    3.8871   27.4508 C   0  0  0  0  0  0  0  0  0  0  0  0
   -7.6161    2.7143   27.1523 C   0  0  0  0  0  0  0  0  0  0  0  0
   -8.8827    2.2318   27.1220 C   0  0  0  0  0  0  0  0  0  0  0  0
   -8.2837    4.9116   27.6108 C   0  0  0  0  0  0  0  0  0  0  0  0
   -9.6088    4.5175   27.5560 C   0  0  0  0  0  0  0  0  0  0  0  0
   -9.9243    3.2149   27.3938 C   0  0  0  0  0  0  0  0  0  0  0  0
   -7.8032    6.5156   27.9289 Cl  0  0  0  0  0  0  0  0  0  0  0  0
   -9.2755    0.8484   26.9384 C   0  0  0  0  0  0  0  0  0  0  0  0
   -8.6049   -0.0380   27.0646 N   0  0  0  0  0  0  0  0  0  0  0  0
   -8.9826   -1.3588   27.0573 C   0  0  0  0  0  0  0  0  0  0  0  0
  -10.6210    0.5857   26.5025 C   0  0  0  0  0  0  0  0  0  0  0  0
  -11.0995   -0.6647   26.4809 C   0  0  0  0  0  0  0  0  0  0  0  0
  -10.2234   -1.6786   26.7521 C   0  0  0  0  0  0  0  0  0  0  0  0
  -10.6617   -3.0887   26.6539 C   0  0  0  0  0  0  0  0  0  0  0  0
   -9.9519   -4.0112   27.1753 C   0  0  0  0  0  0  0  0  0  0  0  0
   -8.5640   -3.6949   27.5530 C   0  0  0  0  0  0  0  0  0  0  0  0
   -8.0536   -2.4284   27.5279 C   0  0  0  0  0  0  0  0  0  0  0  0
   -6.7111   -2.0738   28.0095 C   0  0  0  0  0  0  0  0  0  0  0  0
   -5.8402   -2.2260   27.4088 C   0  0  0  0  0  0  0  0  0  0  0  0
   -4.4611   -1.8155   27.8382 C   0  0  0  0  0  0  0  0  0  0  0  0
   -4.3105   -1.1175   29.0207 C   0  0  0  0  0  0  0  0  0  0  0  0
   -5.4766   -0.8810   29.8208 C   0  0  0  0  0  0  0  0  0  0  0  0
   -6.7016   -1.3247   29.3191 C   0  0  0  0  0  0  0  0  0  0  0  0
  4  7  1  0
  3  8  1  0
 17 18  1  0
 18 19  2  0
 19 20  1  0
 20 21  2  0
 21 22  1  0
 22 23  2  0
 23 18  1  0
  8  9  2  0
  9 10  1  0
 13 12  1  0
 12 11  2  0
 11  8  1  0
  1  2  2  0
  2  3  1  0
  3  6  2  0
  6  5  1  0
  5  4  2  0
  4  1  1  0
 10 13  2  0
 13 14  1  0
 14 15  2  0
 15 16  1  0
 16 17  2  0
 17 10  1  0
M  END
$$$$
