No_9238-complexes_sdf/6BKW-FPZ/2024-09-17-14-21-01/
     RDKit          3D

 13 14  0  0  0  0  0  0  0  0999 V2000
   -7.9040    3.9820   27.1177 C   0  0  0  0  0  0  0  0  0  0  0  0
   -7.8663    4.8694   27.9238 C   0  0  0  0  0  0  0  0  0  0  0  0
   -7.4547    2.7080   27.4594 C   0  0  0  0  0  0  0  0  0  0  0  0
   -8.7044    6.0412   27.8492 C   0  0  0  0  0  0  0  0  0  0  0  0
   -7.9501    1.5743   26.8848 C   0  0  0  0  0  0  0  0  0  0  0  0
   -7.5234    0.2893   27.2407 C   0  0  0  0  0  0  0  0  0  0  0  0
   -8.2877   -0.8185   26.8676 C   0  0  0  0  0  0  0  0  0  0  0  0
   -9.3105   -0.6197   25.9373 C   0  0  0  0  0  0  0  0  0  0  0  0
   -9.0680    1.4876   25.9442 C   0  0  0  0  0  0  0  0  0  0  0  0
   -9.6775    0.5322   25.5488 C   0  0  0  0  0  0  0  0  0  0  0  0
   -8.7709    4.1857   26.0002 C   0  0  0  0  0  0  0  0  0  0  0  0
   -9.4086    5.3653   26.0422 C   0  0  0  0  0  0  0  0  0  0  0  0
   -9.3095    6.4014   26.7421 C   0  0  0  0  0  0  0  0  0  0  0  0
  1  3  1  0
  3  5  1  0
  5  6  2  0
  6  7  1  0
  7  8  2  0
  8 10  1  0
 10  9  2  0
  9  5  1  0
  1  2  2  0
  2  4  1  0
  4 13  2  0
 13 12  1  0
 12 11  2  0
 11  1  1  0
M  END
$$$$
