No_9032-complexes_sdf/6BKW-FPZ/2024-09-17-14-21-01/
     RDKit          3D

 40 44  0  0  0  0  0  0  0  0999 V2000
   -7.2496    3.8871   27.4508 C   0  0  0  0  0  0  0  0  0  0  0  0
   -8.5096    4.0291   27.2770 C   0  0  0  0  0  0  0  0  0  0  0  0
   -9.3451    2.8786   26.9046 C   0  0  0  0  0  0  0  0  0  0  0  0
   -8.7138    1.7135   26.7541 C   0  0  0  0  0  0  0  0  0  0  0  0
   -6.6024    2.6286   27.4581 C   0  0  0  0  0  0  0  0  0  0  0  0
   -7.3557    1.5598   27.1381 C   0  0  0  0  0  0  0  0  0  0  0  0
   -8.9681    5.4724   27.3490 C   0  0  0  0  0  0  0  0  0  0  0  0
  -10.2921    5.8403   27.0921 C   0  0  0  0  0  0  0  0  0  0  0  0
   -7.9776    6.5258   27.0521 C   0  0  0  0  0  0  0  0  0  0  0  0
   -8.3611    7.8764   26.9441 C   0  0  0  0  0  0  0  0  0  0  0  0
  -11.2893    4.8383   27.3670 C   0  0  0  0  0  0  0  0  0  0  0  0
  -11.6741    3.9179   27.6374 C   0  0  0  0  0  0  0  0  0  0  0  0
  -12.8470    3.3489   27.9523 C   0  0  0  0  0  0  0  0  0  0  0  0
  -13.1360    2.0113   28.3326 C   0  0  0  0  0  0  0  0  0  0  0  0
  -11.9443    1.1951   28.2411 C   0  0  0  0  0  0  0  0  0  0  0  0
  -10.7034    1.6579   28.0494 C   0  0  0  0  0  0  0  0  0  0  0  0
  -10.7443    2.9739   27.0873 C   0  0  0  0  0  0  0  0  0  0  0  0
   -6.6638    0.2367   26.9783 C   0  0  0  0  0  0  0  0  0  0  0  0
   -6.5736   -0.3276   26.0035 O   0  0  0  0  0  0  0  0  0  0  0  0
   -6.1901   -0.2530   28.1443 O   0  0  0  0  0  0  0  0  0  0  0  0
   -5.0881   -1.0504   28.1803 C   0  0  1  0  0  0  0  0  0  0  0  0
   -5.1575   -2.1963   28.4949 C   0  0  0  0  0  0  0  0  0  0  0  0
   -6.1561   -2.6294   29.2680 C   0  0  1  0  0  0  0  0  0  0  0  0
   -6.3031   -2.0554   30.4763 C   0  0  0  0  0  0  0  0  0  0  0  0
   -5.2565   -1.2955   31.0590 C   0  0  0  0  0  0  0  0  0  0  0  0
   -4.1239   -0.5110   27.1975 C   0  0  0  0  0  0  0  0  0  0  0  0
   -5.3271   -0.7321   32.4008 C   0  0  0  0  0  0  0  0  0  0  0  0
   -6.4581   -1.1355   33.1816 C   0  0  0  0  0  0  0  0  0  0  0  0
   -7.4192   -1.9775   32.6436 C   0  0  0  0  0  0  0  0  0  0  0  0
   -7.3542   -2.4422   31.4003 C   0  0  0  0  0  0  0  0  0  0  0  0
   -2.7549   -0.1835   27.8153 C   0  0  0  0  0  0  0  0  0  0  0  0
   -1.8858   -1.0730   27.6451 C   0  0  0  0  0  0  0  0  0  0  0  0
   -1.4683   -1.3353   26.4652 C   0  0  0  0  0  0  0  0  0  0  0  0
   -1.8480   -2.5877   25.9304 C   0  0  0  0  0  0  0  0  0  0  0  0
   -3.0353   -2.7287   25.6369 N   0  0  0  0  0  0  0  0  0  0  0  0
   -3.6317   -3.7965   24.9426 C   0  0  0  0  0  0  0  0  0  0  0  0
   -2.9480   -4.8277   24.8284 C   0  0  0  0  0  0  0  0  0  0  0  0
   -1.4902   -4.7080   24.8868 C   0  0  0  0  0  0  0  0  0  0  0  0
   -0.9411   -3.5726   25.4603 C   0  0  0  0  0  0  0  0  0  0  0  0
   -7.1063   -3.5674   28.8094 C   0  0  0  0  0  0  0  0  0  0  0  0
  2  7  1  0
  7  8  2  0
  7  9  1  0
  9 10  2  0
  8 11  1  0
  3 17  1  0
  6 18  1  0
 18 19  2  0
 18 20  1  0
 20 21  1  0
 21 22  1  6
 22 23  1  0
 21 26  1  0
 26 31  1  0
 31 32  1  0
 32 33  1  0
 33 34  1  0
 23 40  1  6
 23 24  1  0
 11 12  1  0
 12 13  2  0
 13 14  1  0
 14 15  2  0
 15 16  1  0
 16 17  2  0
 17 12  1  0
  1  2  2  0
  2  3  1  0
  3  4  2  0
  4  6  1  0
  6  5  2  0
  5  1  1  0
 24 25  2  0
 25 27  1  0
 27 28  2  0
 28 29  1  0
 29 30  2  0
 30 24  1  0
 34 35  2  0
 35 36  1  0
 36 37  2  0
 37 38  1  0
 38 39  2  0
 39 34  1  0
M  END
$$$$
