No_9522-complexes_sdf/6BKW-FPZ/2024-09-17-14-21-01/
     RDKit          3D

 13 14  0  0  0  0  0  0  0  0999 V2000
   -7.2496    3.8871   27.4508 C   0  0  0  0  0  0  0  0  0  0  0  0
   -7.9379    4.9063   27.8518 C   0  0  0  0  0  0  0  0  0  0  0  0
   -8.9501    5.3664   27.1340 C   0  0  0  0  0  0  0  0  0  0  0  0
   -7.8297    2.9727   26.4637 C   0  0  0  0  0  0  0  0  0  0  0  0
   -9.6373    4.6098   26.1956 C   0  0  0  0  0  0  0  0  0  0  0  0
   -9.0235    3.4546   25.8531 C   0  0  0  0  0  0  0  0  0  0  0  0
   -9.6280    2.5544   24.8729 C   0  0  0  0  0  0  0  0  0  0  0  0
  -10.3598    3.1203   23.8536 C   0  0  0  0  0  0  0  0  0  0  0  0
  -10.7212    2.3716   22.7118 C   0  0  0  0  0  0  0  0  0  0  0  0
  -10.2453    1.0068   22.6415 C   0  0  0  0  0  0  0  0  0  0  0  0
   -9.1337    1.2584   24.5862 C   0  0  0  0  0  0  0  0  0  0  0  0
   -9.4258    0.5348   23.5889 C   0  0  0  0  0  0  0  0  0  0  0  0
   -6.1378    3.3648   28.0652 O   0  0  0  0  0  0  0  0  0  0  0  0
  6  7  1  0
  1 13  1  0
  7  8  2  0
  8  9  1  0
  9 10  2  0
 10 12  1  0
 12 11  2  0
 11  7  1  0
  1  2  2  0
  2  3  1  0
  3  5  2  0
  5  6  1  0
  6  4  2  0
  4  1  1  0
M  END
$$$$
