No_9593-complexes_sdf/6BKW-FPZ/2024-09-17-14-21-01/
     RDKit          3D

 33 36  0  0  0  0  0  0  0  0999 V2000
   -7.7129    4.2099   27.0854 C   0  0  0  0  0  0  0  0  0  0  0  0
   -7.7814    5.1722   27.8972 C   0  0  0  0  0  0  0  0  0  0  0  0
   -8.8776    3.8408   26.3416 C   0  0  0  0  0  0  0  0  0  0  0  0
   -9.9844    4.6492   26.4743 C   0  0  0  0  0  0  0  0  0  0  0  0
   -8.8493    6.0565   27.7013 C   0  0  0  0  0  0  0  0  0  0  0  0
   -9.9475    5.8126   27.0669 C   0  0  0  0  0  0  0  0  0  0  0  0
   -8.8743    2.5645   25.6056 C   0  0  0  0  0  0  0  0  0  0  0  0
   -9.7051    1.6304   26.0901 C   0  0  2  0  0  0  0  0  0  0  0  0
   -9.4082    0.3908   25.8157 C   0  0  0  0  0  0  0  0  0  0  0  0
   -8.4604    0.0150   25.1744 C   0  0  0  0  0  0  0  0  0  0  0  0
   -7.9102   -1.2311   25.2292 C   0  0  0  0  0  0  0  0  0  0  0  0
   -8.6197   -2.2493   25.7802 C   0  0  0  0  0  0  0  0  0  0  0  0
  -10.0270   -0.7377   26.6218 C   0  0  0  0  0  0  0  0  0  0  0  0
   -9.6686   -2.0009   26.5809 C   0  0  0  0  0  0  0  0  0  0  0  0
  -11.2105    1.8964   25.6106 C   0  0  0  0  0  0  0  0  0  0  0  0
  -12.1507    2.1112   26.5313 C   0  0  0  0  0  0  0  0  0  0  0  0
  -13.4513    2.3337   26.0986 C   0  0  0  0  0  0  0  0  0  0  0  0
  -13.7079    2.4587   24.7442 C   0  0  0  0  0  0  0  0  0  0  0  0
  -11.6491    2.0728   24.3570 C   0  0  0  0  0  0  0  0  0  0  0  0
  -12.7711    2.2714   23.8983 C   0  0  0  0  0  0  0  0  0  0  0  0
  -11.9115    2.0708   28.0498 C   0  0  2  0  0  0  0  0  0  0  0  0
  -12.7822    1.5063   28.8647 C   0  0  1  0  0  0  0  0  0  0  0  0
  -10.7459    2.7226   28.5997 C   0  0  0  0  0  0  0  0  0  0  0  0
   -7.9753   -3.8836   25.7598 Cl  0  0  0  0  0  0  0  0  0  0  0  0
  -13.7061    2.3797   29.7425 C   0  0  0  0  0  0  0  0  0  0  0  0
  -13.4252    3.7234   29.7839 C   0  0  0  0  0  0  0  0  0  0  0  0
  -14.2130    4.5923   30.6118 C   0  0  0  0  0  0  0  0  0  0  0  0
  -15.1463    3.9653   31.4860 C   0  0  0  0  0  0  0  0  0  0  0  0
  -15.3620    2.6121   31.4525 C   0  0  0  0  0  0  0  0  0  0  0  0
  -14.6192    1.8402   30.6111 C   0  0  0  0  0  0  0  0  0  0  0  0
  -12.9937    0.1422   28.9206 C   0  0  0  0  0  0  0  0  0  0  0  0
  -12.5574   -0.8427   29.7141 C   0  0  0  0  0  0  0  0  0  0  0  0
  -12.5998   -2.1132   29.7628 C   0  0  0  0  0  0  0  0  0  0  0  0
  3  7  1  0
  8  7  1  6
  8  9  1  0
  8 15  1  0
 16 21  1  0
 21 22  1  0
 21 23  1  1
 12 24  1  0
 22 31  1  0
 31 32  2  3
 32 33  1  0
 22 25  1  6
 15 16  1  0
 16 17  2  0
 17 18  1  0
 18 20  2  0
 20 19  1  0
 19 15  2  0
 25 26  2  0
 26 27  1  0
 27 28  2  0
 28 29  1  0
 29 30  2  0
 30 25  1  0
  1  2  2  0
  2  5  1  0
  5  6  2  0
  6  4  1  0
  4  3  2  0
  3  1  1  0
  9 10  2  0
 10 11  1  0
 11 12  2  0
 12 14  1  0
 14 13  2  0
 13  9  1  0
M  END
$$$$
