No_9898-complexes_sdf/6BKW-FPZ/2024-09-17-14-21-01/
     RDKit          3D

 13 14  0  0  0  0  0  0  0  0999 V2000
   -7.2496    3.8871   27.4508 C   0  0  0  0  0  0  0  0  0  0  0  0
   -7.6161    2.7143   27.1523 C   0  0  0  0  0  0  0  0  0  0  0  0
   -8.8302    2.4659   26.5056 C   0  0  0  0  0  0  0  0  0  0  0  0
   -8.1584    5.0090   27.3234 C   0  0  0  0  0  0  0  0  0  0  0  0
   -9.3788    4.7965   26.7695 C   0  0  0  0  0  0  0  0  0  0  0  0
   -9.7028    3.5649   26.3276 C   0  0  0  0  0  0  0  0  0  0  0  0
   -6.7182    1.5519   27.3631 C   0  0  0  0  0  0  0  0  0  0  0  0
   -5.4694    1.7365   28.0694 C   0  0  0  0  0  0  0  0  0  0  0  0
   -4.6099    0.6493   28.2636 C   0  0  0  0  0  0  0  0  0  0  0  0
   -3.4090    0.7843   28.9266 C   0  0  0  0  0  0  0  0  0  0  0  0
   -5.1032   -0.6468   28.0961 C   0  0  0  0  0  0  0  0  0  0  0  0
   -6.3851   -0.8519   27.4828 C   0  0  0  0  0  0  0  0  0  0  0  0
   -7.1883    0.2648   27.1701 C   0  0  0  0  0  0  0  0  0  0  0  0
  2  7  1  0
  9 10  1  0
  7  8  2  0
  8  9  1  0
  9 11  2  0
 11 12  1  0
 12 13  2  0
 13  7  1  0
  1  2  2  0
  2  3  1  0
  3  6  2  0
  6  5  1  0
  5  4  2  0
  4  1  1  0
M  END
$$$$
