No_9432-complexes_sdf/6BKW-FPZ/2024-09-17-14-21-01/
     RDKit          3D

 32 34  0  0  0  0  0  0  0  0999 V2000
   -7.7129    4.2099   27.0854 C   0  0  0  0  0  0  0  0  0  0  0  0
   -8.9133    4.4736   27.0998 C   0  0  0  0  0  0  0  0  0  0  0  0
   -9.7937    3.7367   26.2091 C   0  0  0  0  0  0  0  0  0  0  0  0
   -7.2496    2.8647   26.8496 C   0  0  0  0  0  0  0  0  0  0  0  0
   -8.1891    1.9790   26.3454 C   0  0  0  0  0  0  0  0  0  0  0  0
   -9.4252    2.4603   26.0121 C   0  0  0  0  0  0  0  0  0  0  0  0
   -9.0876    5.9265   27.2659 N   0  0  0  0  0  0  0  0  0  0  0  0
   -8.1744    6.8646   27.2600 C   0  0  0  0  0  0  0  0  0  0  0  0
   -8.6754    8.2419   27.2133 C   0  0  0  0  0  0  0  0  0  0  0  0
   -7.7919    0.5697   26.1520 C   0  0  0  0  0  0  0  0  0  0  0  0
   -8.3920   -0.1558   26.6843 O   0  0  0  0  0  0  0  0  0  0  0  0
   -6.7577    0.2814   25.4856 O   0  0  0  0  0  0  0  0  0  0  0  0
   -6.9790    6.6469   27.4130 O   0  0  0  0  0  0  0  0  0  0  0  0
  -11.0922    4.2510   25.8443 C   0  0  0  0  0  0  0  0  0  0  0  0
  -11.4624    4.1896   24.5658 C   0  0  0  0  0  0  0  0  0  0  0  0
  -12.7813    4.0216   24.1054 C   0  0  0  0  0  0  0  0  0  0  0  0
  -13.7309    4.3093   24.9914 C   0  0  0  0  0  0  0  0  0  0  0  0
  -13.4007    4.4708   26.4187 C   0  0  0  0  0  0  0  0  0  0  0  0
  -12.1360    4.3333   26.8430 C   0  0  0  0  0  0  0  0  0  0  0  0
  -14.5708    4.7339   27.3614 C   0  0  0  0  0  0  0  0  0  0  0  0
  -14.3088    4.8237   28.5498 O   0  0  0  0  0  0  0  0  0  0  0  0
  -15.7540    4.7095   26.8861 O   0  0  0  0  0  0  0  0  0  0  0  0
  -10.1668    3.8589   23.3687 Cl  0  0  0  0  0  0  0  0  0  0  0  0
  -15.2201    5.2268   29.5385 C   0  0  2  0  0  0  0  0  0  0  0  0
  -15.7257    4.2469   30.2790 C   0  0  0  0  0  0  0  0  0  0  0  0
  -16.5050    4.5453   31.2228 C   0  0  0  0  0  0  0  0  0  0  0  0
  -17.0046    3.5808   32.2330 C   0  0  0  0  0  0  0  0  0  0  0  0
  -16.5437    2.2602   32.0477 C   0  0  0  0  0  0  0  0  0  0  0  0
  -15.6676    1.9341   31.0413 C   0  0  0  0  0  0  0  0  0  0  0  0
  -15.1705    2.9166   30.2305 C   0  0  0  0  0  0  0  0  0  0  0  0
  -15.5634    6.6119   29.5004 C   0  0  0  0  0  0  0  0  0  0  0  0
  -16.3336    7.1858   30.3044 O   0  0  0  0  0  0  0  0  0  0  0  0
  2  7  1  0
  7  8  1  0
  8  9  1  0
  5 10  1  0
 10 11  2  0
 10 12  1  0
  8 13  2  0
  3 14  1  0
 18 20  1  0
 20 21  1  0
 20 22  2  0
 15 23  1  0
 24 21  1  6
 24 25  1  0
 24 31  1  0
 31 32  2  0
 14 15  2  0
 15 16  1  0
 16 17  2  0
 17 18  1  0
 18 19  2  0
 19 14  1  0
 25 26  2  0
 26 27  1  0
 27 28  2  0
 28 29  1  0
 29 30  2  0
 30 25  1  0
  1  2  2  0
  2  3  1  0
  3  6  2  0
  6  5  1  0
  5  4  2  0
  4  1  1  0
M  END
$$$$
