No_9566-complexes_sdf/6BKW-FPZ/2024-09-17-14-21-01/
     RDKit          3D

 24 27  0  0  0  0  0  0  0  0999 V2000
   -7.9040    3.9820   27.1177 C   0  0  0  0  0  0  0  0  0  0  0  0
   -9.0711    4.3164   27.0630 C   0  0  0  0  0  0  0  0  0  0  0  0
   -9.9692    3.7224   26.1073 C   0  0  0  0  0  0  0  0  0  0  0  0
   -6.9787    4.6761   28.1003 C   0  0  0  0  0  0  0  0  0  0  0  0
  -11.1978    4.2793   25.7845 C   0  0  0  0  0  0  0  0  0  0  0  0
  -11.9722    3.7671   24.7671 C   0  0  0  0  0  0  0  0  0  0  0  0
  -11.4321    2.7931   23.9433 C   0  0  0  0  0  0  0  0  0  0  0  0
  -10.2070    2.2970   24.1835 C   0  0  0  0  0  0  0  0  0  0  0  0
   -9.3944    2.8078   25.1975 C   0  0  0  0  0  0  0  0  0  0  0  0
   -7.5140    5.6743   28.8888 C   0  0  0  0  0  0  0  0  0  0  0  0
   -9.4880    5.3919   27.8970 C   0  0  0  0  0  0  0  0  0  0  0  0
   -8.7303    6.0841   28.7261 C   0  0  0  0  0  0  0  0  0  0  0  0
  -12.2417    2.2051   22.8408 C   0  0  0  0  0  0  0  0  0  0  0  0
  -11.7145    1.7063   21.9061 C   0  0  0  0  0  0  0  0  0  0  0  0
  -10.2727    1.1484   22.0296 C   0  0  0  0  0  0  0  0  0  0  0  0
   -9.5278    1.4708   23.1613 C   0  0  0  0  0  0  0  0  0  0  0  0
  -12.3654    1.0908   20.6855 C   0  0  0  0  0  0  0  0  0  0  0  0
  -13.2920    0.1294   20.9939 C   0  0  0  0  0  0  0  0  0  0  0  0
  -13.9964   -0.3859   20.0350 C   0  0  0  0  0  0  0  0  0  0  0  0
  -13.7878    0.0079   18.6529 C   0  0  0  0  0  0  0  0  0  0  0  0
  -12.8088    0.9403   18.3641 C   0  0  0  0  0  0  0  0  0  0  0  0
  -12.0179    1.5374   19.3934 C   0  0  0  0  0  0  0  0  0  0  0  0
  -13.3028    4.3129   24.5835 C   0  0  0  0  0  0  0  0  0  0  0  0
  -14.1725    4.3236   25.6824 C   0  0  0  0  0  0  0  0  0  0  0  0
  2  3  1  0
 14 17  1  0
  6 23  1  0
 23 24  3  0
 17 18  2  0
 18 19  1  0
 19 20  2  0
 20 21  1  0
 21 22  2  0
 22 17  1  0
  3  5  2  0
  5  6  1  0
  6  7  2  0
  8  9  2  0
  9  3  1  0
  7  8  1  0
  8 16  1  0
 16 15  2  0
 15 14  1  0
 14 13  2  0
 13  7  1  0
  1  2  2  0
  2 11  1  0
 11 12  2  0
 12 10  1  0
 10  4  2  0
  4  1  1  0
M  END
$$$$
