No_9020-complexes_sdf/6BKW-FPZ/2024-09-17-14-21-01/
     RDKit          3D

 19 21  0  0  0  0  0  0  0  0999 V2000
   -7.9040    3.9820   27.1177 C   0  0  0  0  0  0  0  0  0  0  0  0
   -7.8663    4.8694   27.9238 C   0  0  0  0  0  0  0  0  0  0  0  0
   -9.0806    3.1428   27.1220 C   0  0  0  0  0  0  0  0  0  0  0  0
  -10.1072    3.3606   27.8219 C   0  0  0  0  0  0  0  0  0  0  0  0
   -8.9918    5.4653   28.5483 C   0  0  0  0  0  0  0  0  0  0  0  0
  -10.1493    4.6383   28.6025 C   0  0  0  0  0  0  0  0  0  0  0  0
   -8.9761    1.8223   26.3519 C   0  0  0  0  0  0  0  0  0  0  0  0
   -9.4812    1.9055   25.0562 C   0  0  0  0  0  0  0  0  0  0  0  0
   -9.3970    0.8033   24.1857 C   0  0  0  0  0  0  0  0  0  0  0  0
   -7.6142    1.1884   26.3434 C   0  0  0  0  0  0  0  0  0  0  0  0
   -7.7567   -0.0494   26.2643 C   0  0  0  0  0  0  0  0  0  0  0  0
   -7.9271   -0.8710   25.0559 C   0  0  0  0  0  0  0  0  0  0  0  0
   -8.7048   -0.0971   24.1947 C   0  0  0  0  0  0  0  0  0  0  0  0
  -11.3249    2.5809   27.8494 C   0  0  0  0  0  0  0  0  0  0  0  0
  -12.4697    2.9385   27.1866 C   0  0  0  0  0  0  0  0  0  0  0  0
  -13.4644    2.2096   26.8355 C   0  0  0  0  0  0  0  0  0  0  0  0
  -11.3403    1.3228   28.4717 C   0  0  0  0  0  0  0  0  0  0  0  0
  -12.4367    0.4605   28.3224 C   0  0  0  0  0  0  0  0  0  0  0  0
  -13.5186    0.9263   27.5192 C   0  0  0  0  0  0  0  0  0  0  0  0
  3  7  1  0
  7  8  2  0
  8  9  1  0
  7 10  1  0
 10 11  2  0
 11 12  1  0
  9 13  2  0
 12 13  2  0
  4 14  1  0
  1  2  2  0
  2  5  1  0
  5  6  2  0
  6  4  1  0
  4  3  2  0
  3  1  1  0
 14 15  2  0
 15 16  1  0
 16 19  2  0
 19 18  1  0
 18 17  2  0
 17 14  1  0
M  END
$$$$
