No_9396-complexes_sdf/6BKW-FPZ/2024-09-17-14-21-01/
     RDKit          3D

 17 17  0  0  0  0  0  0  0  0999 V2000
   -7.2496    3.8871   27.4508 C   0  0  0  0  0  0  0  0  0  0  0  0
   -8.5096    4.0291   27.2770 C   0  0  0  0  0  0  0  0  0  0  0  0
   -9.3451    2.8786   26.9046 C   0  0  0  0  0  0  0  0  0  0  0  0
   -6.6065    2.5680   27.5073 C   0  0  0  0  0  0  0  0  0  0  0  0
   -7.3970    1.4834   27.2271 C   0  0  0  0  0  0  0  0  0  0  0  0
   -8.7029    1.6398   26.9934 C   0  0  0  0  0  0  0  0  0  0  0  0
   -9.1085    5.3654   27.2135 C   0  0  0  0  0  0  0  0  0  0  0  0
   -8.3130    6.4941   26.9862 C   0  0  0  0  0  0  0  0  0  0  0  0
   -8.8196    7.8197   27.0372 C   0  0  0  0  0  0  0  0  0  0  0  0
   -6.7534    0.1869   27.2929 C   0  0  0  0  0  0  0  0  0  0  0  0
   -7.2342   -0.7985   27.2985 O   0  0  0  0  0  0  0  0  0  0  0  0
   -5.3929    0.2774   27.0446 O   0  0  0  0  0  0  0  0  0  0  0  0
   -4.5245   -0.6039   27.7946 C   0  0  0  0  0  0  0  0  0  0  0  0
   -4.3824   -0.2373   29.0305 C   0  0  0  0  0  0  0  0  0  0  0  0
   -3.8928   -0.7828   29.9389 O   0  0  0  0  0  0  0  0  0  0  0  0
   -4.6406    1.1451   29.4080 O   0  0  0  0  0  0  0  0  0  0  0  0
   -9.9438    5.6330   28.4490 C   0  0  0  0  0  0  0  0  0  0  0  0
  2  7  1  0
  7  8  2  3
  8  9  1  0
  5 10  1  0
 10 11  2  0
 10 12  1  0
 12 13  1  0
 13 14  1  0
 14 15  2  0
 14 16  1  0
  7 17  1  0
  1  2  2  0
  2  3  1  0
  3  6  2  0
  6  5  1  0
  5  4  2  0
  4  1  1  0
M  END
$$$$
