No_918-complexes_sdf/6BKW-FPZ/2024-09-17-14-21-01/
     RDKit          3D

 22 26  0  0  0  0  0  0  0  0999 V2000
   -7.9040    3.9820   27.1177 C   0  0  0  0  0  0  0  0  0  0  0  0
   -8.2057    2.8231   26.8733 C   0  0  0  0  0  0  0  0  0  0  0  0
   -9.2962    2.4021   26.1155 C   0  0  0  0  0  0  0  0  0  0  0  0
   -6.8682    4.5169   28.0704 C   0  0  0  0  0  0  0  0  0  0  0  0
  -10.0578    3.3688   25.5520 C   0  0  0  0  0  0  0  0  0  0  0  0
   -9.6997    4.7480   25.6981 C   0  0  0  0  0  0  0  0  0  0  0  0
   -8.6783    5.1111   26.5262 C   0  0  0  0  0  0  0  0  0  0  0  0
   -8.2068    6.2892   26.9851 N   0  0  0  0  0  0  0  0  0  0  0  0
   -7.2083    5.9517   27.9224 N   0  0  0  0  0  0  0  0  0  0  0  0
   -8.6096    7.5821   26.7916 C   0  0  0  0  0  0  0  0  0  0  0  0
   -7.3637    1.6392   27.4952 C   0  0  0  0  0  0  0  0  0  0  0  0
   -7.7712    0.3785   27.3411 N   0  0  0  0  0  0  0  0  0  0  0  0
   -6.9669   -0.6383   27.6747 C   0  0  0  0  0  0  0  0  0  0  0  0
   -7.5752   -1.7931   28.0337 C   0  0  0  0  0  0  0  0  0  0  0  0
   -8.9844   -1.8301   27.8943 C   0  0  0  0  0  0  0  0  0  0  0  0
   -9.6542   -3.0029   28.2604 C   0  0  0  0  0  0  0  0  0  0  0  0
  -11.0816   -2.9544   28.1603 C   0  0  0  0  0  0  0  0  0  0  0  0
  -11.7265   -1.7552   27.7560 C   0  0  0  0  0  0  0  0  0  0  0  0
  -11.0333   -0.6414   27.4658 C   0  0  0  0  0  0  0  0  0  0  0  0
   -9.6102   -0.6531   27.6322 C   0  0  0  0  0  0  0  0  0  0  0  0
   -8.9802    0.4597   27.3040 N   0  0  0  0  0  0  0  0  0  0  0  0
   -9.8161    1.1126   26.7835 C   0  0  0  0  0  0  0  0  0  0  0  0
  1  4  1  0
  7  8  1  0
  4  9  2  0
  8  9  1  0
  8 10  1  0
  2 11  1  0
 11 12  1  0
 12 13  1  0
 14 15  1  0
 12 21  1  0
 20 21  1  0
  3 22  1  0
 21 22  1  0
 13 14  1  0
 15 16  2  0
 16 17  1  0
 17 18  2  0
 18 19  1  0
 19 20  2  0
 20 15  1  0
  1  2  2  0
  2  3  1  0
  3  5  2  0
  5  6  1  0
  6  7  2  0
  7  1  1  0
M  END
$$$$
