No_9326-complexes_sdf/6BKW-FPZ/2024-09-17-14-21-01/
     RDKit          3D

 29 31  0  0  0  0  0  0  0  0999 V2000
   -7.7129    4.2099   27.0854 C   0  0  0  0  0  0  0  0  0  0  0  0
   -8.9133    4.4736   27.0998 C   0  0  0  0  0  0  0  0  0  0  0  0
   -9.4616    5.6470   27.6290 C   0  0  0  0  0  0  0  0  0  0  0  0
   -7.2326    2.9175   26.7557 C   0  0  0  0  0  0  0  0  0  0  0  0
   -8.1546    1.9086   26.5054 C   0  0  0  0  0  0  0  0  0  0  0  0
   -7.6739    0.6359   26.2014 C   0  0  0  0  0  0  0  0  0  0  0  0
   -9.4930    2.2687   26.4745 C   0  0  0  0  0  0  0  0  0  0  0  0
   -9.8736    3.4966   26.8152 C   0  0  0  0  0  0  0  0  0  0  0  0
   -7.6388    0.1857   25.0915 O   0  0  0  0  0  0  0  0  0  0  0  0
   -7.2124   -0.2022   27.2743 N   0  0  0  0  0  0  0  0  0  0  0  0
   -6.7056   -1.5352   27.1031 C   0  0  0  0  0  0  0  0  0  0  0  0
   -5.7034   -1.7467   27.5009 C   0  0  0  0  0  0  0  0  0  0  0  0
   -4.9482   -2.7847   27.4781 C   0  0  0  0  0  0  0  0  0  0  0  0
   -3.6161   -2.9785   28.0476 C   0  0  0  0  0  0  0  0  0  0  0  0
   -2.9884   -1.9294   28.7169 C   0  0  0  0  0  0  0  0  0  0  0  0
   -3.7501   -0.7038   28.8443 C   0  0  0  0  0  0  0  0  0  0  0  0
   -4.9861   -0.6196   28.2761 C   0  0  0  0  0  0  0  0  0  0  0  0
   -7.5568   -2.2567   26.5704 O   0  0  0  0  0  0  0  0  0  0  0  0
   -9.2303    6.8390   27.2073 N   0  0  0  0  0  0  0  0  0  0  0  0
   -7.8955    7.0583   26.8442 C   0  0  0  0  0  0  0  0  0  0  0  0
   -7.6235    8.4384   26.6080 N   0  0  0  0  0  0  0  0  0  0  0  0
   -3.0684    0.6313   29.7392 Cl  0  0  0  0  0  0  0  0  0  0  0  0
  -10.4481    5.5059   28.4555 O   0  0  0  0  0  0  0  0  0  0  0  0
  -10.3827    1.2556   26.1888 N   0  0  0  0  0  0  0  0  0  0  0  0
  -11.6469    1.2755   26.6077 C   0  0  0  0  0  0  0  0  0  0  0  0
  -12.4202    0.0844   26.4477 C   0  0  0  0  0  0  0  0  0  0  0  0
  -11.8196   -0.9458   25.9821 C   0  0  0  0  0  0  0  0  0  0  0  0
  -10.4881   -0.9824   25.5108 C   0  0  0  0  0  0  0  0  0  0  0  0
   -9.7567    0.2076   25.6966 C   0  0  0  0  0  0  0  0  0  0  0  0
  2  3  1  0
  5  6  1  0
  6  9  2  0
  6 10  1  0
 10 11  1  0
 11 12  1  0
 11 18  2  0
  3 19  1  0
 19 20  2  3
 20 21  1  0
 16 22  1  0
  3 23  2  0
  7 24  1  0
 24 25  1  0
 26 27  1  0
 24 29  1  0
 28 29  1  0
 25 26  1  0
 27 28  1  0
 12 13  2  0
 13 14  1  0
 14 15  2  0
 15 16  1  0
 16 17  2  0
 17 12  1  0
  1  2  2  0
  2  8  1  0
  8  7  2  0
  7  5  1  0
  5  4  2  0
  4  1  1  0
M  END
$$$$
