No_9978-complexes_sdf/6BKW-FPZ/2024-09-17-14-21-01/
     RDKit          3D

 15 16  0  0  0  0  0  0  0  0999 V2000
   -7.7129    4.2099   27.0854 C   0  0  0  0  0  0  0  0  0  0  0  0
   -7.7814    5.1722   27.8972 C   0  0  0  0  0  0  0  0  0  0  0  0
   -8.8998    3.8713   26.3707 C   0  0  0  0  0  0  0  0  0  0  0  0
   -9.9938    4.6774   26.5446 C   0  0  0  0  0  0  0  0  0  0  0  0
   -8.7789    6.1536   27.9256 C   0  0  0  0  0  0  0  0  0  0  0  0
   -9.9428    5.8398   27.2296 C   0  0  0  0  0  0  0  0  0  0  0  0
   -9.1381    2.6848   25.5884 C   0  0  0  0  0  0  0  0  0  0  0  0
   -8.5151    1.5028   25.9613 C   0  0  0  0  0  0  0  0  0  0  0  0
   -8.5279    0.3968   25.1578 C   0  0  0  0  0  0  0  0  0  0  0  0
   -9.2031    0.5170   23.9355 C   0  0  0  0  0  0  0  0  0  0  0  0
   -9.6918    2.7207   24.3376 C   0  0  0  0  0  0  0  0  0  0  0  0
   -9.7483    1.7070   23.5359 C   0  0  0  0  0  0  0  0  0  0  0  0
  -10.4072    1.7770   22.2011 C   0  0  0  0  0  0  0  0  0  0  0  0
  -10.4798    3.0101   21.6713 C   0  0  0  0  0  0  0  0  0  0  0  0
  -11.1044    3.2027   20.4357 C   0  0  0  0  0  0  0  0  0  0  0  0
  3  7  1  0
 12 13  1  0
 13 14  2  3
 14 15  1  0
  7  8  2  0
  8  9  1  0
  9 10  2  0
 10 12  1  0
 12 11  2  0
 11  7  1  0
  1  2  2  0
  2  5  1  0
  5  6  2  0
  6  4  1  0
  4  3  2  0
  3  1  1  0
M  END
$$$$
