No_9571-complexes_sdf/6BKW-FPZ/2024-09-17-14-21-01/
     RDKit          3D

 29 32  0  0  0  0  0  0  0  0999 V2000
   -7.2496    3.8871   27.4508 C   0  0  0  0  0  0  0  0  0  0  0  0
   -7.9379    4.9063   27.8518 C   0  0  0  0  0  0  0  0  0  0  0  0
   -9.3460    4.8223   27.8695 C   0  0  0  0  0  0  0  0  0  0  0  0
   -7.8628    2.6163   27.1065 C   0  0  0  0  0  0  0  0  0  0  0  0
   -9.2787    2.5744   27.1970 C   0  0  0  0  0  0  0  0  0  0  0  0
  -10.0108    3.6770   27.6340 C   0  0  0  0  0  0  0  0  0  0  0  0
  -11.4834    3.5674   27.7432 C   0  0  0  0  0  0  0  0  0  0  0  0
  -11.9395    2.6434   28.4995 C   0  0  0  0  0  0  0  0  0  0  0  0
  -13.1403    2.3726   28.8001 C   0  0  0  0  0  0  0  0  0  0  0  0
  -14.1290    3.3156   28.3158 C   0  0  0  0  0  0  0  0  0  0  0  0
  -13.6947    4.3761   27.5319 C   0  0  0  0  0  0  0  0  0  0  0  0
  -12.3347    4.6055   27.2920 C   0  0  0  0  0  0  0  0  0  0  0  0
   -7.1204    1.4661   26.7677 C   0  0  0  0  0  0  0  0  0  0  0  0
   -5.9000    1.5040   27.0963 F   0  0  0  0  0  0  0  0  0  0  0  0
   -7.7006    0.3870   27.5196 F   0  0  0  0  0  0  0  0  0  0  0  0
   -7.3517    1.0763   25.5262 F   0  0  0  0  0  0  0  0  0  0  0  0
   -7.2527    6.1978   28.1633 C   0  0  0  0  0  0  0  0  0  0  0  0
  -15.6115    3.1181   28.5530 C   0  0  0  0  0  0  0  0  0  0  0  0
  -16.3093    2.5920   27.8360 C   0  0  0  0  0  0  0  0  0  0  0  0
  -17.7517    2.4216   28.1237 C   0  0  0  0  0  0  0  0  0  0  0  0
  -18.2306    2.9276   29.3395 C   0  0  0  0  0  0  0  0  0  0  0  0
  -17.3812    3.5418   30.1980 C   0  0  0  0  0  0  0  0  0  0  0  0
  -15.9833    3.7273   29.9069 C   0  0  0  0  0  0  0  0  0  0  0  0
  -18.6225    1.7460   27.2015 C   0  0  0  0  0  0  0  0  0  0  0  0
  -18.4543    1.2687   26.2788 N   0  0  0  0  0  0  0  0  0  0  0  0
  -19.9281    1.6166   27.7058 N   0  0  0  0  0  0  0  0  0  0  0  0
  -19.3623    0.6271   25.4987 C   0  0  0  0  0  0  0  0  0  0  0  0
  -20.8900    1.0608   27.0826 C   0  0  0  0  0  0  0  0  0  0  0  0
  -20.6364    0.5036   25.8994 C   0  0  0  0  0  0  0  0  0  0  0  0
  6  7  1  0
  4 13  1  0
 13 14  1  0
 13 15  1  0
 13 16  1  0
  2 17  1  0
 10 18  1  0
 20 24  1  0
 18 19  2  0
 19 20  1  0
 20 21  2  0
 21 22  1  0
 22 23  2  0
 23 18  1  0
  1  2  2  0
  2  3  1  0
  3  6  2  0
  6  5  1  0
  5  4  2  0
  4  1  1  0
  7  8  2  0
  8  9  1  0
  9 10  2  0
 10 11  1  0
 11 12  2  0
 12  7  1  0
 24 25  2  0
 25 27  1  0
 27 29  2  0
 29 28  1  0
 28 26  2  0
 26 24  1  0
M  END
$$$$
