No_9003-complexes_sdf/6BKW-FPZ/2024-09-17-14-21-01/
     RDKit          3D

 29 33  0  0  0  0  0  0  0  0999 V2000
   -7.7129    4.2099   27.0854 C   0  0  0  0  0  0  0  0  0  0  0  0
   -8.9133    4.4736   27.0998 C   0  0  0  0  0  0  0  0  0  0  0  0
   -9.4643    5.5426   27.7628 C   0  0  0  0  0  0  0  0  0  0  0  0
   -6.8373    4.9942   27.9785 C   0  0  0  0  0  0  0  0  0  0  0  0
   -7.3717    6.0428   28.6744 C   0  0  0  0  0  0  0  0  0  0  0  0
   -8.6869    6.3937   28.5345 C   0  0  0  0  0  0  0  0  0  0  0  0
   -9.6413    3.5082   26.1378 C   0  0  0  0  0  0  0  0  0  0  0  0
   -9.5445    2.2570   26.1793 C   0  0  0  0  0  0  0  0  0  0  0  0
  -10.1107    1.3992   25.1942 C   0  0  0  0  0  0  0  0  0  0  0  0
  -10.8610    1.9950   24.1798 C   0  0  0  0  0  0  0  0  0  0  0  0
  -10.9981    3.3951   24.1417 C   0  0  0  0  0  0  0  0  0  0  0  0
  -10.3904    4.2219   25.0976 C   0  0  0  0  0  0  0  0  0  0  0  0
  -11.8286    4.0301   23.0808 C   0  0  1  0  0  0  0  0  0  0  0  0
  -12.5279    4.9763   23.1982 C   0  0  0  0  0  0  0  0  0  0  0  0
  -11.1186    3.9699   21.7620 C   0  0  0  0  0  0  0  0  0  0  0  0
   -9.8690    4.3419   21.5669 C   0  0  0  0  0  0  0  0  0  0  0  0
  -11.8107    3.0996   20.8074 C   0  0  0  0  0  0  0  0  0  0  0  0
   -9.2956    4.1910   20.2673 C   0  0  0  0  0  0  0  0  0  0  0  0
  -11.2719    2.8827   19.5443 C   0  0  0  0  0  0  0  0  0  0  0  0
   -9.9688    3.4476   19.2847 C   0  0  0  0  0  0  0  0  0  0  0  0
   -9.9104   -0.0356   25.2126 C   0  0  0  0  0  0  0  0  0  0  0  0
  -10.5584   -0.7586   26.0980 C   0  0  0  0  0  0  0  0  0  0  0  0
  -11.3398   -0.1735   27.0755 C   0  0  0  0  0  0  0  0  0  0  0  0
  -11.4070    1.0720   27.3181 C   0  0  0  0  0  0  0  0  0  0  0  0
  -10.1413    1.7905   27.5129 C   0  0  0  0  0  0  0  0  0  0  0  0
  -12.0255   -1.2130   28.0290 C   0  0  0  0  0  0  0  0  0  0  0  0
  -11.6671   -2.2491   28.1485 C   0  0  0  0  0  0  0  0  0  0  0  0
  -10.8107   -2.9075   27.1298 C   0  0  0  0  0  0  0  0  0  0  0  0
  -10.3052   -2.1854   26.1296 C   0  0  0  0  0  0  0  0  0  0  0  0
  2  7  1  0
 11 13  1  0
 13 14  1  1
 13 15  1  0
  9 21  1  0
 23 24  1  0
  8 25  1  0
 24 25  1  0
 21 22  1  0
 22 23  2  0
 23 26  1  0
 26 27  2  0
 27 28  1  0
 28 29  2  0
 29 22  1  0
  1  2  2  0
  2  3  1  0
  3  6  2  0
  6  5  1  0
  5  4  2  0
  4  1  1  0
 15 16  2  0
 16 18  1  0
 18 20  2  0
 20 19  1  0
 19 17  2  0
 17 15  1  0
  7  8  2  0
  8  9  1  0
  9 10  2  0
 10 11  1  0
 11 12  2  0
 12  7  1  0
M  END
$$$$
