No_9073-complexes_sdf/6BKW-FPZ/2024-09-17-14-21-01/
     RDKit          3D

 14 14  0  0  0  0  0  0  0  0999 V2000
   -7.7129    4.2099   27.0854 C   0  0  1  0  0  0  0  0  0  0  0  0
   -7.7814    5.1722   27.8972 C   0  0  0  0  0  0  0  0  0  0  0  0
   -7.3155    2.9699   27.6145 C   0  0  0  0  0  0  0  0  0  0  0  0
   -7.1760    1.9119   26.6708 C   0  0  0  0  0  0  0  0  0  0  0  0
   -8.1836    1.0062   26.8584 C   0  0  0  0  0  0  0  0  0  0  0  0
   -9.3175    1.2841   27.0470 C   0  0  0  0  0  0  0  0  0  0  0  0
  -10.4117    0.2283   27.2624 C   0  0  0  0  0  0  0  0  0  0  0  0
  -11.7368    0.6220   27.5589 C   0  0  0  0  0  0  0  0  0  0  0  0
  -12.0019    2.0209   27.6943 C   0  0  0  0  0  0  0  0  0  0  0  0
  -11.0575    2.9779   27.6167 C   0  0  0  0  0  0  0  0  0  0  0  0
   -9.7118    2.6189   27.4032 C   0  0  0  0  0  0  0  0  0  0  0  0
   -8.4371    6.4001   27.5396 C   0  0  0  0  0  0  0  0  0  0  0  0
   -8.9655    6.5334   26.2102 C   0  0  0  0  0  0  0  0  0  0  0  0
   -8.4856    4.4310   26.0844 F   0  0  0  0  0  0  0  0  0  0  0  0
  1  2  1  0
  1  3  1  0
  3  4  1  0
  4  5  1  0
  2 12  2  3
 12 13  1  0
  1 14  1  1
  5  6  1  0
  6  7  2  0
  7  8  1  0
  8  9  2  0
  9 10  1  0
 10 11  2  0
 11  6  1  0
M  END
$$$$
