No_9163-complexes_sdf/6BKW-FPZ/2024-09-17-14-21-01/
     RDKit          3D

 30 33  0  0  0  0  0  0  0  0999 V2000
   -7.2496    3.8871   27.4508 C   0  0  0  0  0  0  0  0  0  0  0  0
   -7.6161    2.7143   27.1523 C   0  0  0  0  0  0  0  0  0  0  0  0
   -7.1618    1.8631   27.5232 C   0  0  0  0  0  0  0  0  0  0  0  0
   -8.0384    5.0866   27.3232 C   0  0  0  0  0  0  0  0  0  0  0  0
   -9.1223    5.1097   26.4856 C   0  0  0  0  0  0  0  0  0  0  0  0
   -8.8783    2.5973   26.4116 C   0  0  0  0  0  0  0  0  0  0  0  0
   -9.5900    3.8077   26.0949 C   0  0  0  0  0  0  0  0  0  0  0  0
   -5.7254    1.8589   28.0548 C   0  0  0  0  0  0  0  0  0  0  0  0
   -5.0684    0.5697   28.3784 C   0  0  0  0  0  0  0  0  0  0  0  0
   -5.7338   -0.5803   28.2794 C   0  0  0  0  0  0  0  0  0  0  0  0
   -7.3984    0.3717   27.5011 C   0  0  0  0  0  0  0  0  0  0  0  0
   -5.0026   -1.7527   28.7399 C   0  0  0  0  0  0  0  0  0  0  0  0
   -6.8721   -0.6819   27.8598 C   0  0  0  0  0  0  0  0  0  0  0  0
   -7.4973    6.4332   27.7940 C   0  0  0  0  0  0  0  0  0  0  0  0
   -3.7637   -1.6673   29.3216 C   0  0  0  0  0  0  0  0  0  0  0  0
   -3.0290   -2.2785   29.9125 C   0  0  0  0  0  0  0  0  0  0  0  0
   -3.5245   -3.5790   30.3480 C   0  0  0  0  0  0  0  0  0  0  0  0
   -4.7732   -3.8939   29.8395 C   0  0  0  0  0  0  0  0  0  0  0  0
   -5.5763   -2.9547   29.2057 C   0  0  0  0  0  0  0  0  0  0  0  0
  -10.7880    3.7150   25.2297 C   0  0  1  0  0  0  0  0  0  0  0  0
  -10.6677    3.4295   23.9371 C   0  0  0  0  0  0  0  0  0  0  0  0
  -10.1894    2.6779   23.3227 C   0  0  0  0  0  0  0  0  0  0  0  0
  -10.1261    2.4265   21.8750 C   0  0  0  0  0  0  0  0  0  0  0  0
  -10.6535    3.4752   21.0942 C   0  0  0  0  0  0  0  0  0  0  0  0
  -11.1811    4.5576   21.7159 C   0  0  0  0  0  0  0  0  0  0  0  0
  -11.2150    4.6785   23.1273 C   0  0  0  0  0  0  0  0  0  0  0  0
  -12.0446    3.6016   25.9065 C   0  0  0  0  0  0  0  0  0  0  0  0
  -12.1113    3.7842   27.2070 C   0  0  0  0  0  0  0  0  0  0  0  0
  -13.4000    3.9160   27.9172 C   0  0  0  0  0  0  0  0  0  0  0  0
  -14.5295    3.8582   27.1103 C   0  0  0  0  0  0  0  0  0  0  0  0
  2  3  1  0
 10 12  1  0
  4 14  1  0
  7 20  1  0
 20 21  1  0
 20 27  1  1
 27 28  1  0
 28 29  2  3
 29 30  1  0
 21 22  2  0
 22 23  1  0
 23 24  2  0
 24 25  1  0
 25 26  2  0
 26 21  1  0
 12 15  2  0
 15 16  1  0
 16 17  2  0
 17 18  1  0
 18 19  2  0
 19 12  1  0
  1  2  2  0
  2  6  1  0
  6  7  2  0
  7  5  1  0
  5  4  2  0
  4  1  1  0
  3  8  2  0
  8  9  1  0
  9 10  2  0
 10 13  1  0
 13 11  2  0
 11  3  1  0
M  END
$$$$
