No_9330-complexes_sdf/6BKW-FPZ/2024-09-17-14-21-01/
     RDKit          3D

 20 22  0  0  0  0  0  0  0  0999 V2000
   -7.9040    3.9820   27.1177 C   0  0  0  0  0  0  0  0  0  0  0  0
   -9.0711    4.3164   27.0630 C   0  0  0  0  0  0  0  0  0  0  0  0
   -9.5294    5.4517   27.7215 C   0  0  0  0  0  0  0  0  0  0  0  0
   -6.9328    4.7309   27.8881 C   0  0  0  0  0  0  0  0  0  0  0  0
   -7.3666    5.8455   28.5488 C   0  0  0  0  0  0  0  0  0  0  0  0
   -8.6669    6.2428   28.4199 C   0  0  0  0  0  0  0  0  0  0  0  0
  -10.0479    3.5083   26.2510 C   0  0  0  0  0  0  0  0  0  0  0  0
   -9.7487    3.3855   24.9113 C   0  0  0  0  0  0  0  0  0  0  0  0
  -10.5142    2.6814   23.9902 C   0  0  0  0  0  0  0  0  0  0  0  0
  -11.6898    2.1313   24.4168 C   0  0  0  0  0  0  0  0  0  0  0  0
  -11.2728    3.0384   26.4045 C   0  0  0  0  0  0  0  0  0  0  0  0
  -12.0774    2.3339   25.6869 C   0  0  0  0  0  0  0  0  0  0  0  0
   -9.9203    2.5242   22.3664 Cl  0  0  0  0  0  0  0  0  0  0  0  0
  -11.7651    3.2463   27.9744 C   0  0  0  0  0  0  0  0  0  0  0  0
  -12.9216    3.1821   28.4505 C   0  0  0  0  0  0  0  0  0  0  0  0
  -13.2180    3.2434   29.8229 C   0  0  0  0  0  0  0  0  0  0  0  0
  -14.5114    3.3007   30.2721 C   0  0  0  0  0  0  0  0  0  0  0  0
  -15.5469    3.2661   29.3523 C   0  0  0  0  0  0  0  0  0  0  0  0
  -15.3138    3.1500   28.0487 C   0  0  0  0  0  0  0  0  0  0  0  0
  -14.0854    3.1955   27.5754 C   0  0  0  0  0  0  0  0  0  0  0  0
  2  7  1  0
  9 13  1  0
 11 14  1  0
 14 15  1  0
  7  8  2  0
  8  9  1  0
  9 10  2  0
 10 12  1  0
 12 11  2  0
 11  7  1  0
  1  2  2  0
  2  3  1  0
  3  6  2  0
  6  5  1  0
  5  4  2  0
  4  1  1  0
 15 16  2  0
 16 17  1  0
 17 18  2  0
 18 19  1  0
 19 20  2  0
 20 15  1  0
M  END
$$$$
