No_9474-complexes_sdf/6BKW-FPZ/2024-09-17-14-21-01/
     RDKit          3D

 17 18  0  0  0  0  0  0  0  0999 V2000
   -7.7129    4.2099   27.0854 C   0  0  0  0  0  0  0  0  0  0  0  0
   -8.2112    3.0637   26.9225 C   0  0  0  0  0  0  0  0  0  0  0  0
   -7.5138    1.9223   27.4249 C   0  0  0  0  0  0  0  0  0  0  0  0
   -8.5309    5.4147   26.8151 C   0  0  0  0  0  0  0  0  0  0  0  0
   -9.6817    5.2393   26.1100 C   0  0  0  0  0  0  0  0  0  0  0  0
  -10.1032    3.9957   25.8534 C   0  0  0  0  0  0  0  0  0  0  0  0
   -9.4034    2.8430   26.2573 C   0  0  0  0  0  0  0  0  0  0  0  0
   -6.1481    1.9922   27.8210 C   0  0  0  0  0  0  0  0  0  0  0  0
   -5.4897    0.8126   28.2236 C   0  0  0  0  0  0  0  0  0  0  0  0
   -6.0879   -0.4018   28.1493 C   0  0  0  0  0  0  0  0  0  0  0  0
   -7.9650    0.5820   27.3461 C   0  0  0  0  0  0  0  0  0  0  0  0
   -7.3675   -0.4821   27.7671 C   0  0  0  0  0  0  0  0  0  0  0  0
   -8.0159    6.6121   27.0542 F   0  0  0  0  0  0  0  0  0  0  0  0
   -4.0295    0.9947   28.6970 C   0  0  0  0  0  0  0  0  0  0  0  0
   -3.3390    0.1642   28.5206 O   0  0  0  0  0  0  0  0  0  0  0  0
   -3.8676    2.0743   29.4754 O   0  0  0  0  0  0  0  0  0  0  0  0
  -11.5633    3.8108   24.9454 Cl  0  0  0  0  0  0  0  0  0  0  0  0
  2  3  1  0
  4 13  1  0
  9 14  1  0
 14 15  2  0
 14 16  1  0
  6 17  1  0
  3  8  2  0
  8  9  1  0
  9 10  2  0
 10 12  1  0
 12 11  2  0
 11  3  1  0
  1  2  2  0
  2  7  1  0
  7  6  2  0
  6  5  1  0
  5  4  2  0
  4  1  1  0
M  END
$$$$
