No_9496-complexes_sdf/6BKW-FPZ/2024-09-17-14-21-01/
     RDKit          3D

 40 46  0  0  0  0  0  0  0  0999 V2000
   -7.2496    3.8871   27.4508 C   0  0  0  0  0  0  0  0  0  0  0  0
   -7.6161    2.7143   27.1523 C   0  0  0  0  0  0  0  0  0  0  0  0
   -8.6212    2.2239   26.4073 C   0  0  0  0  0  0  0  0  0  0  0  0
   -8.2540    4.9237   27.1711 C   0  0  0  0  0  0  0  0  0  0  0  0
   -9.3729    4.5806   26.4432 C   0  0  0  0  0  0  0  0  0  0  0  0
   -8.9159    0.9340   26.0822 C   0  0  1  0  0  0  0  0  0  0  0  0
   -9.6005    3.2665   26.0851 C   0  0  0  0  0  0  0  0  0  0  0  0
   -7.9339    6.1855   27.4960 F   0  0  0  0  0  0  0  0  0  0  0  0
   -9.2353    0.0461   26.8767 N   0  0  0  0  0  0  0  0  0  0  0  0
   -9.3409   -1.2498   26.8280 C   0  0  0  0  0  0  0  0  0  0  0  0
   -9.7379    0.6798   24.8426 C   0  0  0  0  0  0  0  0  0  0  0  0
   -9.1716   -0.3754   24.1763 C   0  0  0  0  0  0  0  0  0  0  0  0
   -9.5391   -1.7348   24.5780 C   0  0  1  0  0  0  0  0  0  0  0  0
   -9.3011   -2.1220   25.8330 C   0  0  0  0  0  0  0  0  0  0  0  0
   -6.6332    1.6750   27.5397 N   0  0  0  0  0  0  0  0  0  0  0  0
   -5.3361    1.4213   27.3519 C   0  0  0  0  0  0  0  0  0  0  0  0
   -4.7738    0.3023   28.1212 C   0  0  0  0  0  0  0  0  0  0  0  0
   -4.4634   -0.8283   27.3126 C   0  0  0  0  0  0  0  0  0  0  0  0
   -4.5091   -0.7163   26.0786 C   0  0  0  0  0  0  0  0  0  0  0  0
   -4.0131   -2.0399   27.9722 C   0  0  0  0  0  0  0  0  0  0  0  0
   -4.5095   -1.9190   25.1950 C   0  0  0  0  0  0  0  0  0  0  0  0
   -3.9208   -3.1779   27.1723 C   0  0  0  0  0  0  0  0  0  0  0  0
   -4.1219   -3.0885   25.7769 C   0  0  0  0  0  0  0  0  0  0  0  0
  -10.8226   -2.0376   24.1012 C   0  0  0  0  0  0  0  0  0  0  0  0
  -10.8722   -3.2823   23.4230 C   0  0  0  0  0  0  0  0  0  0  0  0
   -9.8474   -4.0593   23.3683 C   0  0  0  0  0  0  0  0  0  0  0  0
   -9.9863   -5.3495   22.8440 C   0  0  0  0  0  0  0  0  0  0  0  0
  -12.0381   -3.6898   22.7361 C   0  0  0  0  0  0  0  0  0  0  0  0
  -12.1792   -4.8964   22.1495 C   0  0  0  0  0  0  0  0  0  0  0  0
  -11.0658   -5.7370   22.1860 C   0  0  0  0  0  0  0  0  0  0  0  0
   -8.2164   -0.1757   23.0625 C   0  0  0  0  0  0  0  0  0  0  0  0
   -7.6116   -1.1342   22.3626 C   0  0  0  0  0  0  0  0  0  0  0  0
  -11.1909   -7.0553   21.5394 C   0  0  0  0  0  0  0  0  0  0  0  0
  -11.7698   -7.4970   20.7818 O   0  0  0  0  0  0  0  0  0  0  0  0
   -9.9374   -7.8091   21.8981 N   0  0  0  0  0  0  0  0  0  0  0  0
   -9.7892   -9.1097   21.3719 C   0  0  0  0  0  0  0  0  0  0  0  0
   -8.4842   -2.3534   23.4960 C   0  0  2  0  0  0  0  0  0  0  0  0
   -8.9857   -3.4517   22.6686 C   0  0  0  0  0  0  0  0  0  0  0  0
   -7.2142   -2.8882   24.4132 C   0  0  0  0  0  0  0  0  0  0  0  0
   -7.8519   -2.8676   26.0030 C   0  0  0  0  0  0  0  0  0  0  0  0
  6  3  1  1
  4  8  1  0
  6  9  1  0
  9 10  1  0
  6 11  1  0
 11 12  1  0
 12 13  1  0
 10 14  2  0
 13 14  1  0
  2 15  1  0
 15 16  1  0
 16 17  1  0
 17 18  1  0
 13 24  1  6
 24 25  1  0
 12 31  1  0
 31 32  2  0
 30 33  1  0
 33 34  2  0
 33 35  1  0
 35 36  1  0
 13 37  1  0
 32 37  1  0
 26 38  1  0
 37 38  1  6
 37 39  1  0
 14 40  1  0
 39 40  1  0
 25 26  2  0
 26 27  1  0
 27 30  2  0
 30 29  1  0
 29 28  2  0
 28 25  1  0
 18 19  2  0
 19 21  1  0
 21 23  2  0
 23 22  1  0
 22 20  2  0
 20 18  1  0
  1  2  2  0
  2  3  1  0
  3  7  2  0
  7  5  1  0
  5  4  2  0
  4  1  1  0
M  END
$$$$
