No_9537-complexes_sdf/6BKW-FPZ/2024-09-17-14-21-01/
     RDKit          3D

 21 22  0  0  0  0  0  0  0  0999 V2000
   -7.2496    3.8871   27.4508 C   0  0  0  0  0  0  0  0  0  0  0  0
   -7.9379    4.9063   27.8518 C   0  0  0  0  0  0  0  0  0  0  0  0
   -9.3376    4.8647   27.7795 C   0  0  0  0  0  0  0  0  0  0  0  0
   -7.8544    2.6294   27.0414 C   0  0  0  0  0  0  0  0  0  0  0  0
   -9.2852    2.6570   27.0666 C   0  0  0  0  0  0  0  0  0  0  0  0
  -10.0126    3.7528   27.4890 C   0  0  0  0  0  0  0  0  0  0  0  0
   -9.7790    1.2782   26.6853 C   0  0  0  0  0  0  0  0  0  0  0  0
  -10.9192    0.9052   26.7250 C   0  0  0  0  0  0  0  0  0  0  0  0
  -11.3426   -0.4315   26.4051 C   0  0  0  0  0  0  0  0  0  0  0  0
   -8.9360    0.5882   25.7292 C   0  0  0  0  0  0  0  0  0  0  0  0
   -9.3084   -0.6627   25.2737 C   0  0  0  0  0  0  0  0  0  0  0  0
  -10.5403   -1.1203   25.5924 C   0  0  0  0  0  0  0  0  0  0  0  0
   -7.3554    6.0627   28.1688 F   0  0  0  0  0  0  0  0  0  0  0  0
  -11.4979    3.6650   27.5126 C   0  0  0  0  0  0  0  0  0  0  0  0
  -12.4471    4.0043   27.8359 C   0  0  0  0  0  0  0  0  0  0  0  0
  -13.7591    3.9148   27.4107 C   0  0  0  0  0  0  0  0  0  0  0  0
  -14.8861    4.5008   28.0085 C   0  0  0  0  0  0  0  0  0  0  0  0
  -14.6828    5.1419   29.2388 C   0  0  0  0  0  0  0  0  0  0  0  0
  -13.4770    5.1184   29.8689 C   0  0  0  0  0  0  0  0  0  0  0  0
  -12.3560    4.5553   29.2377 C   0  0  0  0  0  0  0  0  0  0  0  0
  -11.2158    4.4890   29.8203 O   0  0  0  0  0  0  0  0  0  0  0  0
  5  7  1  0
  2 13  1  0
  6 14  1  0
 14 15  3  0
 15 16  1  0
 16 17  1  0
 17 18  2  3
 18 19  1  0
 19 20  2  3
 20 21  1  0
  1  2  2  0
  2  3  1  0
  3  6  2  0
  6  5  1  0
  5  4  2  0
  4  1  1  0
  7  8  2  0
  8  9  1  0
  9 12  2  0
 12 11  1  0
 11 10  2  0
 10  7  1  0
M  END
$$$$
