No_9949-complexes_sdf/6BKW-FPZ/2024-09-17-14-21-01/
     RDKit          3D

 18 20  0  0  0  0  0  0  0  0999 V2000
   -7.7129    4.2099   27.0854 C   0  0  0  0  0  0  0  0  0  0  0  0
   -8.9133    4.4736   27.0998 C   0  0  0  0  0  0  0  0  0  0  0  0
   -9.7937    3.7367   26.2091 C   0  0  0  0  0  0  0  0  0  0  0  0
   -6.8266    5.0441   28.0594 C   0  0  0  0  0  0  0  0  0  0  0  0
   -9.2322    2.6276   25.6126 C   0  0  0  0  0  0  0  0  0  0  0  0
   -7.9794    2.1924   25.9863 C   0  0  0  0  0  0  0  0  0  0  0  0
   -7.2411    2.9387   26.9009 C   0  0  0  0  0  0  0  0  0  0  0  0
  -10.0894    1.7793   24.7540 C   0  0  0  0  0  0  0  0  0  0  0  0
  -11.1704    2.2047   24.4166 N   0  0  0  0  0  0  0  0  0  0  0  0
  -11.8567    2.9276   24.6633 C   0  0  0  0  0  0  0  0  0  0  0  0
  -13.1811    3.1158   23.8758 C   0  0  0  0  0  0  0  0  0  0  0  0
  -11.7775    1.6412   23.0961 C   0  0  0  0  0  0  0  0  0  0  0  0
  -12.9591    2.1742   22.8811 C   0  0  0  0  0  0  0  0  0  0  0  0
   -9.3193    0.9484   24.0965 O   0  0  0  0  0  0  0  0  0  0  0  0
   -9.4680    5.8351   27.5325 C   0  0  0  0  0  0  0  0  0  0  0  0
   -8.6070    6.9604   27.1997 C   0  0  0  0  0  0  0  0  0  0  0  0
   -8.7964    8.0220   26.7903 C   0  0  0  0  0  0  0  0  0  0  0  0
   -7.0667    6.5226   27.6111 C   0  0  0  0  0  0  0  0  0  0  0  0
  5  8  1  0
  8  9  1  0
  9 10  1  0
 10 11  2  0
  9 12  1  0
 11 13  1  0
 12 13  2  0
  8 14  2  0
 16 17  1  0
  2 15  1  0
 15 16  2  0
 16 18  1  0
 18  4  2  0
  4  1  1  0
  1  2  1  0
  2  3  2  0
  3  5  1  0
  5  6  2  0
  6  7  1  0
  7  1  2  0
M  END
$$$$
