No_9894-complexes_sdf/6BKW-FPZ/2024-09-17-14-21-01/
     RDKit          3D

 16 18  0  0  0  0  0  0  0  0999 V2000
   -7.7129    4.2099   27.0854 C   0  0  0  0  0  0  0  0  0  0  0  0
   -8.9133    4.4736   27.0998 C   0  0  0  0  0  0  0  0  0  0  0  0
   -9.7135    3.9633   26.0300 C   0  0  0  0  0  0  0  0  0  0  0  0
   -6.8420    4.9760   28.0851 C   0  0  0  0  0  0  0  0  0  0  0  0
   -9.6552    4.2399   24.9004 C   0  0  0  0  0  0  0  0  0  0  0  0
  -10.4285    3.7872   23.7716 C   0  0  0  0  0  0  0  0  0  0  0  0
  -11.2878    2.7733   24.0202 C   0  0  0  0  0  0  0  0  0  0  0  0
  -10.6770    2.9126   26.2852 C   0  0  0  0  0  0  0  0  0  0  0  0
  -11.4583    2.3723   25.3212 C   0  0  0  0  0  0  0  0  0  0  0  0
   -9.1554    5.8349   27.5746 C   0  0  0  0  0  0  0  0  0  0  0  0
   -7.7577    6.1224   28.4877 C   0  0  0  0  0  0  0  0  0  0  0  0
  -12.1489    2.2943   22.9209 C   0  0  0  0  0  0  0  0  0  0  0  0
  -11.8618    1.4885   22.3101 C   0  0  0  0  0  0  0  0  0  0  0  0
  -11.1183    0.5171   22.5266 C   0  0  0  0  0  0  0  0  0  0  0  0
  -10.6529    0.2527   23.8109 C   0  0  0  0  0  0  0  0  0  0  0  0
  -11.1032    0.8795   24.8656 C   0  0  0  0  0  0  0  0  0  0  0  0
  1  2  1  0
  2  3  1  0
  1  4  1  0
  2 10  1  0
  4 11  1  0
 10 11  1  0
  7 12  1  0
 12 13  1  0
 13 14  2  0
 14 15  1  0
  9 16  1  0
 15 16  2  0
  3  5  2  0
  5  6  1  0
  6  7  2  0
  7  9  1  0
  9  8  2  0
  8  3  1  0
M  END
$$$$
