No_9268-complexes_sdf/6BKW-FPZ/2024-09-17-14-21-01/
     RDKit          3D

 20 23  0  0  0  0  0  0  0  0999 V2000
   -7.7129    4.2099   27.0854 C   0  0  0  0  0  0  0  0  0  0  0  0
   -8.2112    3.0637   26.9225 C   0  0  0  0  0  0  0  0  0  0  0  0
   -8.4224    5.2106   27.8516 C   0  0  0  0  0  0  0  0  0  0  0  0
   -9.5628    2.7160   27.4089 C   0  0  0  0  0  0  0  0  0  0  0  0
  -10.2428    3.7496   28.1155 C   0  0  0  0  0  0  0  0  0  0  0  0
   -9.6677    4.9738   28.3232 C   0  0  0  0  0  0  0  0  0  0  0  0
   -7.8012    6.3714   28.0255 F   0  0  0  0  0  0  0  0  0  0  0  0
  -10.1131    1.3955   27.2092 C   0  0  0  0  0  0  0  0  0  0  0  0
   -9.2990    0.3686   27.1333 C   0  0  2  0  0  0  0  0  0  0  0  0
   -9.0454   -0.6766   27.0788 C   0  0  0  0  0  0  0  0  0  0  0  0
   -8.2883   -1.7801   27.1043 C   0  0  0  0  0  0  0  0  0  0  0  0
   -7.2180   -2.2119   27.2444 C   0  0  0  0  0  0  0  0  0  0  0  0
   -6.1709   -1.3156   27.6935 C   0  0  0  0  0  0  0  0  0  0  0  0
   -4.8510   -1.6715   28.0727 C   0  0  0  0  0  0  0  0  0  0  0  0
   -4.0609   -0.6333   28.6026 C   0  0  0  0  0  0  0  0  0  0  0  0
   -4.4493    0.7309   28.5819 C   0  0  0  0  0  0  0  0  0  0  0  0
   -5.6930    1.0416   28.1130 C   0  0  0  0  0  0  0  0  0  0  0  0
   -6.5063    0.0994   27.7181 C   0  0  0  0  0  0  0  0  0  0  0  0
   -7.8746    1.0814   27.5799 N   0  0  0  0  0  0  0  0  0  0  0  0
   -7.5099    2.2793   27.3764 C   0  0  0  0  0  0  0  0  0  0  0  0
  3  7  1  0
  4  8  1  0
  9 10  1  0
 10 11  2  0
 11 12  1  0
  9 19  1  0
 18 19  1  0
  2 20  1  0
 19 20  1  0
 12 13  1  0
  9  8  1  1
  1  2  2  0
  2  4  1  0
  4  5  2  0
  5  6  1  0
  6  3  2  0
  3  1  1  0
 13 14  2  0
 14 15  1  0
 15 16  2  0
 16 17  1  0
 17 18  2  0
 18 13  1  0
M  END
$$$$
