No_9520-complexes_sdf/6BKW-FPZ/2024-09-17-14-21-01/
     RDKit          3D

 30 33  0  0  0  0  0  0  0  0999 V2000
   -7.9040    3.9820   27.1177 C   0  0  0  0  0  0  0  0  0  0  0  0
   -7.8663    4.8694   27.9238 C   0  0  0  0  0  0  0  0  0  0  0  0
   -9.0501    3.8017   26.2617 C   0  0  0  0  0  0  0  0  0  0  0  0
  -10.0189    4.7608   26.3707 C   0  0  0  0  0  0  0  0  0  0  0  0
   -8.6770    5.9780   27.9222 C   0  0  0  0  0  0  0  0  0  0  0  0
   -9.8040    5.8752   27.0958 C   0  0  0  0  0  0  0  0  0  0  0  0
   -9.1518    2.6191   25.4170 C   0  0  0  0  0  0  0  0  0  0  0  0
   -8.6413    1.4242   25.8318 C   0  0  0  0  0  0  0  0  0  0  0  0
   -8.0909    1.3192   27.1923 C   0  0  0  0  0  0  0  0  0  0  0  0
   -7.3773    2.6463   27.5106 N   0  0  0  0  0  0  0  0  0  0  0  0
   -9.6638    2.7609   24.1875 C   0  0  0  0  0  0  0  0  0  0  0  0
   -9.8617    1.6704   23.2883 C   0  0  0  0  0  0  0  0  0  0  0  0
  -10.4004    1.8109   22.0438 C   0  0  0  0  0  0  0  0  0  0  0  0
  -10.8441    3.0902   21.6595 C   0  0  0  0  0  0  0  0  0  0  0  0
  -10.7689    4.1786   22.5251 C   0  0  0  0  0  0  0  0  0  0  0  0
  -10.2286    4.0611   23.7539 C   0  0  0  0  0  0  0  0  0  0  0  0
   -7.4184    0.2911   27.5197 O   0  0  0  0  0  0  0  0  0  0  0  0
   -7.1302   -0.6744   26.8088 C   0  0  1  0  0  0  0  0  0  0  0  0
   -5.7468   -0.8783   26.5797 C   0  0  2  0  0  0  0  0  0  0  0  0
   -5.2096   -1.7224   27.2694 O   0  0  0  0  0  0  0  0  0  0  0  0
   -3.9002   -1.8682   27.2961 C   0  0  0  0  0  0  0  0  0  0  0  0
   -3.2320   -0.9805   26.5715 C   0  0  0  0  0  0  0  0  0  0  0  0
   -3.4886    0.1898   26.6559 C   0  0  1  0  0  0  0  0  0  0  0  0
   -5.0506    0.3497   26.4821 C   0  0  0  0  0  0  0  0  0  0  0  0
   -3.0056    0.9692   27.7138 O   0  0  0  0  0  0  0  0  0  0  0  0
   -8.0563   -1.6365   26.6376 C   0  0  0  0  0  0  0  0  0  0  0  0
   -7.8409   -2.8783   26.9293 C   0  0  0  0  0  0  0  0  0  0  0  0
   -8.4678   -3.7862   27.0708 C   0  0  0  0  0  0  0  0  0  0  0  0
   -8.0896   -5.1790   27.3396 C   0  0  0  0  0  0  0  0  0  0  0  0
   -8.9304   -6.2712   27.4823 C   0  0  0  0  0  0  0  0  0  0  0  0
  7 11  1  0
  9 17  1  0
 18 17  1  1
 18 19  1  0
 19 20  1  0
 20 21  1  0
 21 22  2  0
 22 23  1  0
 19 24  1  1
 23 24  1  0
 23 25  1  1
 18 26  1  0
 26 27  2  3
 27 28  1  0
 28 29  2  3
 29 30  1  0
 11 12  2  0
 12 13  1  0
 13 14  2  0
 14 15  1  0
 15 16  2  0
 16 11  1  0
  3  7  1  0
  7  8  2  0
  8  9  1  0
  9 10  2  0
 10  1  1  0
  1  2  2  0
  2  5  1  0
  5  6  2  0
  6  4  1  0
  4  3  2  0
  3  1  1  0
M  END
$$$$
