No_976-complexes_sdf/6BKW-FPZ/2024-09-17-14-21-01/
     RDKit          3D

 36 40  0  0  0  0  0  0  0  0999 V2000
   -7.2496    3.8871   27.4508 C   0  0  0  0  0  0  0  0  0  0  0  0
   -7.6161    2.7143   27.1523 C   0  0  0  0  0  0  0  0  0  0  0  0
   -8.8302    2.4659   26.5056 C   0  0  0  0  0  0  0  0  0  0  0  0
   -8.1584    5.0090   27.3234 C   0  0  0  0  0  0  0  0  0  0  0  0
   -9.3788    4.7965   26.7695 C   0  0  0  0  0  0  0  0  0  0  0  0
   -9.7028    3.5649   26.3276 C   0  0  0  0  0  0  0  0  0  0  0  0
   -6.7182    1.5519   27.3631 C   0  0  0  0  0  0  0  0  0  0  0  0
   -7.0500    0.2083   27.2450 C   0  0  0  0  0  0  0  0  0  0  0  0
   -8.3879    0.0846   26.7095 C   0  0  0  0  0  0  0  0  0  0  0  0
   -9.2609    1.1266   26.3193 C   0  0  0  0  0  0  0  0  0  0  0  0
   -7.6070    6.5719   27.8653 Cl  0  0  0  0  0  0  0  0  0  0  0  0
  -10.9821    3.3954   25.6201 C   0  0  0  0  0  0  0  0  0  0  0  0
  -10.9810    3.6746   24.2205 C   0  0  0  0  0  0  0  0  0  0  0  0
  -12.1709    3.5929   23.4894 C   0  0  0  0  0  0  0  0  0  0  0  0
  -12.1423    3.9441   26.2455 C   0  0  0  0  0  0  0  0  0  0  0  0
  -13.3914    3.9228   25.6153 C   0  0  0  0  0  0  0  0  0  0  0  0
  -13.3591    4.0246   24.1919 C   0  0  0  0  0  0  0  0  0  0  0  0
   -6.2375   -0.8160   27.6151 C   0  0  0  0  0  0  0  0  0  0  0  0
   -6.5441   -1.7684   28.1499 N   0  0  0  0  0  0  0  0  0  0  0  0
   -4.8812   -0.6653   27.3682 N   0  0  0  0  0  0  0  0  0  0  0  0
   -4.1681    0.3279   26.9352 C   0  0  0  0  0  0  0  0  0  0  0  0
   -3.2421    0.9489   28.0219 C   0  0  0  0  0  0  0  0  0  0  0  0
   -5.5911   -2.5885   28.5371 C   0  0  1  0  0  0  0  0  0  0  0  0
   -4.3306   -1.8455   28.0312 C   0  0  0  0  0  0  0  0  0  0  0  0
   -5.4360   -2.9331   30.0150 C   0  0  0  0  0  0  0  0  0  0  0  0
   -6.1869   -3.6424   30.5360 C   0  0  0  0  0  0  0  0  0  0  0  0
   -6.1743   -3.9380   32.0352 C   0  0  0  0  0  0  0  0  0  0  0  0
   -5.1970   -3.3227   32.8178 C   0  0  0  0  0  0  0  0  0  0  0  0
   -4.3200   -2.4189   32.1493 C   0  0  0  0  0  0  0  0  0  0  0  0
   -4.4359   -2.1779   30.8487 C   0  0  0  0  0  0  0  0  0  0  0  0
   -5.5612   -3.8818   27.7578 C   0  0  2  0  0  0  0  0  0  0  0  0
   -6.7085   -4.3841   27.3870 C   0  0  0  0  0  0  0  0  0  0  0  0
   -4.3560   -4.6067   27.5551 C   0  0  0  0  0  0  0  0  0  0  0  0
   -3.3268   -4.4316   27.9678 C   0  0  0  0  0  0  0  0  0  0  0  0
   -2.1058   -5.1306   27.6297 C   0  0  0  0  0  0  0  0  0  0  0  0
   -2.2816   -6.1045   26.7373 C   0  0  0  0  0  0  0  0  0  0  0  0
  4 11  1  0
  6 12  1  0
  8 18  1  0
 18 19  2  0
 18 20  1  0
 20 21  1  0
 21 22  1  0
 19 23  1  0
 20 24  1  0
 23 24  1  0
 23 25  1  1
 23 31  1  0
 31 32  1  1
 31 33  1  0
 33 34  1  0
 34 35  2  3
 35 36  1  0
 12 13  2  0
 13 14  1  0
 14 17  2  0
 17 16  1  0
 16 15  2  0
 15 12  1  0
 25 26  2  0
 26 27  1  0
 27 28  2  0
 28 29  1  0
 29 30  2  0
 30 25  1  0
  1  2  2  0
  3  6  2  0
  6  5  1  0
  5  4  2  0
  4  1  1  0
  2  3  1  0
  3 10  1  0
 10  9  2  0
  9  8  1  0
  8  7  2  0
  7  2  1  0
M  END
$$$$
