No_9709-complexes_sdf/6BKW-FPZ/2024-09-17-14-21-01/
     RDKit          3D

 37 42  0  0  0  0  0  0  0  0999 V2000
   -7.2496    3.8871   27.4508 C   0  0  0  0  0  0  0  0  0  0  0  0
   -7.9379    4.9063   27.8518 C   0  0  0  0  0  0  0  0  0  0  0  0
   -8.7729    5.5444   27.0168 C   0  0  0  0  0  0  0  0  0  0  0  0
   -6.2858    3.2138   28.3467 C   0  0  0  0  0  0  0  0  0  0  0  0
   -9.2459    4.9714   25.8185 C   0  0  0  0  0  0  0  0  0  0  0  0
   -8.7245    3.6550   25.5132 C   0  0  0  0  0  0  0  0  0  0  0  0
   -7.8326    3.1219   26.4052 C   0  0  0  0  0  0  0  0  0  0  0  0
   -5.6873    1.9697   27.9543 C   0  0  0  0  0  0  0  0  0  0  0  0
   -4.5740    1.4852   28.6364 C   0  0  0  0  0  0  0  0  0  0  0  0
   -4.0815    0.2839   28.2880 C   0  0  0  0  0  0  0  0  0  0  0  0
   -4.6252   -0.4581   27.2480 C   0  0  0  0  0  0  0  0  0  0  0  0
   -5.7138   -0.0054   26.5511 C   0  0  0  0  0  0  0  0  0  0  0  0
   -6.2417    1.2362   26.8913 C   0  0  0  0  0  0  0  0  0  0  0  0
   -7.3353    1.8347   26.0664 N   0  0  0  0  0  0  0  0  0  0  0  0
   -2.8852   -0.2696   29.0797 C   0  0  1  0  0  0  0  0  0  0  0  0
   -3.0631   -0.5495   30.4690 C   0  0  0  0  0  0  0  0  0  0  0  0
   -1.6881   -0.6639   28.4248 C   0  0  0  0  0  0  0  0  0  0  0  0
   -3.8678    0.1024   31.2786 C   0  0  0  0  0  0  0  0  0  0  0  0
   -3.9361   -0.2847   32.6688 C   0  0  0  0  0  0  0  0  0  0  0  0
   -3.5311   -1.3417   32.9002 C   0  0  0  0  0  0  0  0  0  0  0  0
   -2.4916   -1.6960   31.1901 C   0  0  0  0  0  0  0  0  0  0  0  0
   -2.5257   -2.0777   32.3237 C   0  0  0  0  0  0  0  0  0  0  0  0
   -3.7034   -1.7094   34.5542 C   0  0  0  0  0  0  0  0  0  0  0  0
   -3.5683   -2.8195   34.8649 N   0  0  0  0  0  0  0  0  0  0  0  0
   -3.8263   -3.2588   36.0557 C   0  0  0  0  0  0  0  0  0  0  0  0
   -4.3718   -2.2915   37.0393 C   0  0  0  0  0  0  0  0  0  0  0  0
   -4.2470   -0.7113   35.4233 C   0  0  0  0  0  0  0  0  0  0  0  0
   -4.5704   -1.0058   36.6931 C   0  0  0  0  0  0  0  0  0  0  0  0
   -5.0639    0.0272   37.6422 C   0  0  0  0  0  0  0  0  0  0  0  0
   -4.4729    1.0881   37.9073 O   0  0  0  0  0  0  0  0  0  0  0  0
   -6.2611   -0.1691   38.1970 O   0  0  0  0  0  0  0  0  0  0  0  0
   -8.0198    0.9920   25.1783 C   0  0  0  0  0  0  0  0  0  0  0  0
   -8.8423    0.0285   25.7309 C   0  0  0  0  0  0  0  0  0  0  0  0
   -9.2196   -0.0524   27.0335 C   0  0  0  0  0  0  0  0  0  0  0  0
   -9.9553   -1.1097   27.6073 C   0  0  0  0  0  0  0  0  0  0  0  0
  -10.4346   -1.9714   26.7042 C   0  0  0  0  0  0  0  0  0  0  0  0
   -9.6184   -1.0251   25.2065 C   0  0  0  0  0  0  0  0  0  0  0  0
  1  4  1  0
  7 14  1  0
 13 14  1  0
 10 15  1  0
 15 16  1  0
 15 17  1  6
 20 23  1  0
 28 29  1  0
 29 30  2  0
 29 31  1  0
 14 32  1  0
 32 33  1  0
 33 34  1  0
 34 35  2  0
 35 36  1  0
 33 37  1  0
 36 37  2  0
  4  8  1  0
 16 18  2  0
 18 19  1  0
 19 20  2  0
 20 22  1  0
 22 21  2  0
 21 16  1  0
  1  2  2  0
  2  3  1  0
  3  5  2  0
  5  6  1  0
  6  7  2  0
  7  1  1  0
 23 24  2  0
 24 25  1  0
 25 26  2  0
 26 28  1  0
 28 27  2  0
 27 23  1  0
  8  9  2  0
  9 10  1  0
 10 11  2  0
 11 12  1  0
 12 13  2  0
 13  8  1  0
M  END
$$$$
