No_9004-complexes_sdf/6BKW-FPZ/2024-09-17-14-21-01/
     RDKit          3D

 40 44  0  0  0  0  0  0  0  0999 V2000
   -7.7129    4.2099   27.0854 C   0  0  0  0  0  0  0  0  0  0  0  0
   -7.7814    5.1722   27.8972 C   0  0  0  0  0  0  0  0  0  0  0  0
   -7.3155    2.9700   27.6145 C   0  0  0  0  0  0  0  0  0  0  0  0
   -7.9010    1.7962   27.2023 C   0  0  0  0  0  0  0  0  0  0  0  0
   -7.4186    0.5908   27.4662 C   0  0  0  0  0  0  0  0  0  0  0  0
   -8.5380    6.3719   27.5386 C   0  0  0  0  0  0  0  0  0  0  0  0
   -6.1096    0.4861   28.0096 C   0  0  0  0  0  0  0  0  0  0  0  0
   -5.3301    1.6667   28.1493 C   0  0  0  0  0  0  0  0  0  0  0  0
   -5.8582    2.8450   27.8312 C   0  0  0  0  0  0  0  0  0  0  0  0
   -8.8886    4.2803   26.2467 C   0  0  0  0  0  0  0  0  0  0  0  0
   -9.5209    5.3796   25.7391 C   0  0  0  0  0  0  0  0  0  0  0  0
   -9.2994    6.5322   26.5095 C   0  0  0  0  0  0  0  0  0  0  0  0
   -5.5094   -0.8308   28.2609 C   0  0  0  0  0  0  0  0  0  0  0  0
   -4.2647   -0.9974   28.6108 C   0  0  0  0  0  0  0  0  0  0  0  0
   -3.8038   -2.2587   28.9943 C   0  0  0  0  0  0  0  0  0  0  0  0
   -4.6798   -3.3138   28.9775 C   0  0  0  0  0  0  0  0  0  0  0  0
   -6.2156   -2.0446   28.4226 C   0  0  0  0  0  0  0  0  0  0  0  0
   -5.8680   -3.1787   28.7456 C   0  0  0  0  0  0  0  0  0  0  0  0
   -9.2850    3.1770   25.3917 N   0  0  0  0  0  0  0  0  0  0  0  0
   -8.8151    1.8777   25.9633 C   0  0  0  0  0  0  0  0  0  0  0  0
  -10.3996    3.0243   24.6966 C   0  0  0  0  0  0  0  0  0  0  0  0
   -9.1093    0.8286   25.3235 O   0  0  0  0  0  0  0  0  0  0  0  0
  -10.1130    3.1079   23.2853 C   0  0  0  0  0  0  0  0  0  0  0  0
  -10.9492    3.8873   22.4751 C   0  0  0  0  0  0  0  0  0  0  0  0
  -10.7296    4.0482   21.0763 C   0  0  0  0  0  0  0  0  0  0  0  0
   -9.7237    3.2009   20.5168 C   0  0  0  0  0  0  0  0  0  0  0  0
   -9.0719    2.3243   21.3510 C   0  0  0  0  0  0  0  0  0  0  0  0
   -9.2877    2.2070   22.6670 C   0  0  0  0  0  0  0  0  0  0  0  0
  -11.5329    2.9716   25.1336 O   0  0  0  0  0  0  0  0  0  0  0  0
   -6.8520   -4.3031   28.7587 C   0  0  0  0  0  0  0  0  0  0  0  0
   -6.6515   -5.4042   28.8232 F   0  0  0  0  0  0  0  0  0  0  0  0
   -7.7622   -3.9288   29.8307 F   0  0  0  0  0  0  0  0  0  0  0  0
   -7.6820   -4.0720   27.6487 F   0  0  0  0  0  0  0  0  0  0  0  0
   -2.3039   -2.3877   29.3294 C   0  0  0  0  0  0  0  0  0  0  0  0
   -1.9573   -2.0663   30.6073 C   0  0  0  0  0  0  0  0  0  0  0  0
   -2.6355   -2.4399   31.7110 C   0  0  0  0  0  0  0  0  0  0  0  0
   -2.2842   -1.9586   33.0128 C   0  0  0  0  0  0  0  0  0  0  0  0
   -2.9083   -1.1126   33.6409 C   0  0  0  0  0  0  0  0  0  0  0  0
   -2.4376   -0.4726   34.8920 C   0  0  0  0  0  0  0  0  0  0  0  0
   -1.2208   -0.8276   35.3956 C   0  0  0  0  0  0  0  0  0  0  0  0
  1  3  1  0
  7 13  1  0
 10 19  1  0
  4 20  1  0
 19 20  1  0
 19 21  1  0
 20 22  2  0
 21 23  1  0
 21 29  2  0
 18 30  1  0
 30 31  1  0
 30 32  1  0
 30 33  1  0
 15 34  1  0
 34 35  1  0
 35 36  2  3
 36 37  1  0
 37 38  1  0
 38 39  2  3
 39 40  1  0
 23 24  2  0
 24 25  1  0
 25 26  2  0
 26 27  1  0
 27 28  2  0
 28 23  1  0
  1  2  2  0
  2  6  1  0
  6 12  2  0
 12 11  1  0
 11 10  2  0
 10  1  1  0
  3  4  2  0
  4  5  1  0
  5  7  2  0
  7  8  1  0
  8  9  2  0
  9  3  1  0
 13 14  2  0
 14 15  1  0
 15 16  2  0
 16 18  1  0
 18 17  2  0
 17 13  1  0
M  END
$$$$
