No_9427-complexes_sdf/6BKW-FPZ/2024-09-17-14-21-01/
     RDKit          3D

 10 10  0  0  0  0  0  0  0  0999 V2000
   -7.9040    3.9820   27.1177 C   0  0  0  0  0  0  0  0  0  0  0  0
   -7.8663    4.8694   27.9238 C   0  0  0  0  0  0  0  0  0  0  0  0
   -9.0806    3.1428   27.1220 C   0  0  1  0  0  0  0  0  0  0  0  0
  -10.0909    3.4892   26.5180 C   0  0  0  0  0  0  0  0  0  0  0  0
   -8.8401    5.9983   27.4627 C   0  0  1  0  0  0  0  0  0  0  0  0
  -10.3128    3.5430   25.4641 C   0  0  0  0  0  0  0  0  0  0  0  0
  -11.4895    4.0996   24.7572 C   0  0  0  0  0  0  0  0  0  0  0  0
   -8.3186    7.3586   27.3782 C   0  0  0  0  0  0  0  0  0  0  0  0
   -8.9302    1.7359   27.6021 C   0  0  0  0  0  0  0  0  0  0  0  0
  -10.1156    5.0844   26.9798 C   0  0  0  0  0  0  0  0  0  0  0  0
  1  2  1  0
  1  3  1  0
  3  4  1  0
  2  5  1  0
  4  6  2  3
  6  7  1  0
  5  8  1  6
  3  9  1  6
  4 10  1  0
  5 10  1  0
M  END
$$$$
