No_9369-complexes_sdf/6BKW-FPZ/2024-09-17-14-21-01/
     RDKit          3D

 32 36  0  0  0  0  0  0  0  0999 V2000
   -7.7129    4.2099   27.0854 C   0  0  0  0  0  0  0  0  0  0  0  0
   -8.2112    3.0637   26.9225 C   0  0  0  0  0  0  0  0  0  0  0  0
   -7.5138    1.9223   27.4249 C   0  0  0  0  0  0  0  0  0  0  0  0
   -6.5434    4.4363   27.9024 C   0  0  0  0  0  0  0  0  0  0  0  0
   -8.0049    0.5813   27.2334 C   0  0  0  0  0  0  0  0  0  0  0  0
   -5.7705    3.2822   28.1710 C   0  0  0  0  0  0  0  0  0  0  0  0
   -6.2650    2.0456   28.0026 C   0  0  0  0  0  0  0  0  0  0  0  0
   -9.4342    0.3553   27.3900 C   0  0  0  0  0  0  0  0  0  0  0  0
  -10.3104    1.4250   27.6368 C   0  0  0  0  0  0  0  0  0  0  0  0
   -9.7457    2.8305   27.3216 C   0  0  0  0  0  0  0  0  0  0  0  0
  -10.6711    3.9461   27.3929 C   0  0  0  0  0  0  0  0  0  0  0  0
  -11.5476    4.1186   26.5502 C   0  0  0  0  0  0  0  0  0  0  0  0
  -12.9508    4.1801   27.0092 C   0  0  0  0  0  0  0  0  0  0  0  0
  -13.9904    4.3769   26.0543 C   0  0  0  0  0  0  0  0  0  0  0  0
  -13.6729    4.4210   24.6893 C   0  0  0  0  0  0  0  0  0  0  0  0
  -12.3298    4.3365   24.2757 C   0  0  0  0  0  0  0  0  0  0  0  0
  -11.3028    4.2049   25.1871 C   0  0  0  0  0  0  0  0  0  0  0  0
  -10.0111    4.9980   28.0304 O   0  0  0  0  0  0  0  0  0  0  0  0
   -5.3803    0.9022   28.2366 C   0  0  0  0  0  0  0  0  0  0  0  0
   -5.1204   -0.2276   27.6990 C   0  0  0  0  0  0  0  0  0  0  0  0
   -4.2198   -1.1669   28.0765 C   0  0  0  0  0  0  0  0  0  0  0  0
   -4.4690    1.1235   29.4123 C   0  0  0  0  0  0  0  0  0  0  0  0
   -3.5288    0.1823   29.8346 C   0  0  0  0  0  0  0  0  0  0  0  0
   -3.3942   -0.9658   29.1797 C   0  0  0  0  0  0  0  0  0  0  0  0
  -12.2756    4.4396   22.8231 C   0  0  1  0  0  0  0  0  0  0  0  0
  -13.1268    4.9971   22.2772 F   0  0  0  0  0  0  0  0  0  0  0  0
  -11.1310    3.9402   22.1461 C   0  0  0  0  0  0  0  0  0  0  0  0
  -10.9429    4.1913   20.8916 C   0  0  0  0  0  0  0  0  0  0  0  0
  -10.6072    3.2656   20.0104 C   0  0  0  0  0  0  0  0  0  0  0  0
   -9.9755    2.0997   20.5955 C   0  0  0  0  0  0  0  0  0  0  0  0
   -9.9155    1.9171   21.9712 C   0  0  0  0  0  0  0  0  0  0  0  0
  -10.5360    2.7583   22.7076 C   0  0  0  0  0  0  0  0  0  0  0  0
 10 11  1  0
 11 12  1  0
 11 18  2  0
  7 19  1  0
 16 25  1  0
 25 26  1  1
 25 27  1  0
 12 13  2  0
 13 14  1  0
 14 15  2  0
 15 16  1  0
 16 17  2  0
 17 12  1  0
  3  5  1  0
  5  8  2  0
  8  9  1  0
  9 10  2  0
 10  2  1  0
 27 28  2  0
 28 29  1  0
 29 30  2  0
 30 31  1  0
 31 32  2  0
 32 27  1  0
  1  2  2  0
  2  3  1  0
  3  7  2  0
  7  6  1  0
  6  4  2  0
  4  1  1  0
 19 20  2  0
 20 21  1  0
 21 24  2  0
 24 23  1  0
 23 22  2  0
 22 19  1  0
M  END
$$$$
