No_9607-complexes_sdf/6BKW-FPZ/2024-09-17-14-21-01/
     RDKit          3D

 18 19  0  0  0  0  0  0  0  0999 V2000
   -7.9040    3.9820   27.1177 C   0  0  0  0  0  0  0  0  0  0  0  0
   -9.0711    4.3164   27.0630 C   0  0  0  0  0  0  0  0  0  0  0  0
   -9.9692    3.7224   26.1073 C   0  0  0  0  0  0  0  0  0  0  0  0
   -6.9787    4.6761   28.1003 C   0  0  0  0  0  0  0  0  0  0  0  0
   -9.4538    2.6801   25.3673 C   0  0  0  0  0  0  0  0  0  0  0  0
   -8.1927    2.1957   25.6621 C   0  0  0  0  0  0  0  0  0  0  0  0
   -7.4333    2.8255   26.6299 C   0  0  0  0  0  0  0  0  0  0  0  0
  -10.4304    2.1414   24.3951 C   0  0  0  0  0  0  0  0  0  0  0  0
  -10.1795    1.9563   23.3622 C   0  0  0  0  0  0  0  0  0  0  0  0
  -11.0083    1.3836   22.2285 C   0  0  0  0  0  0  0  0  0  0  0  0
  -12.2837    1.1205   22.6008 C   0  0  0  0  0  0  0  0  0  0  0  0
  -11.7937    1.8613   24.7381 C   0  0  0  0  0  0  0  0  0  0  0  0
  -12.6659    1.3744   23.8740 C   0  0  0  0  0  0  0  0  0  0  0  0
   -7.4294    5.7500   28.6734 O   0  0  0  0  0  0  0  0  0  0  0  0
   -5.7756    4.2701   28.2455 O   0  0  0  0  0  0  0  0  0  0  0  0
  -14.0816    1.0948   24.2377 C   0  0  0  0  0  0  0  0  0  0  0  0
  -14.5398    1.2881   25.4725 C   0  0  0  0  0  0  0  0  0  0  0  0
  -15.8089    1.0119   25.8283 C   0  0  0  0  0  0  0  0  0  0  0  0
  1  4  1  0
  5  8  1  0
  4 14  2  0
  4 15  1  0
 13 16  1  0
 16 17  2  3
 17 18  1  0
  8  9  2  0
  9 10  1  0
 10 11  2  0
 11 13  1  0
 13 12  2  0
 12  8  1  0
  1  2  2  0
  2  3  1  0
  3  5  2  0
  5  6  1  0
  6  7  2  0
  7  1  1  0
M  END
$$$$
