No_9936-complexes_sdf/6BKW-FPZ/2024-09-17-14-21-01/
     RDKit          3D

  8  7  0  0  0  0  0  0  0  0999 V2000
   -7.9040    3.9820   27.1177 C   0  0  1  0  0  0  0  0  0  0  0  0
   -7.8663    4.8694   27.9238 C   0  0  0  0  0  0  0  0  0  0  0  0
   -7.4547    2.7080   27.4594 C   0  0  0  0  0  0  0  0  0  0  0  0
   -8.7044    6.0412   27.8492 C   0  0  0  0  0  0  0  0  0  0  0  0
   -8.0057    1.5433   26.9789 C   0  0  0  0  0  0  0  0  0  0  0  0
   -9.0030    1.6624   26.5119 C   0  0  0  0  0  0  0  0  0  0  0  0
   -9.0437    3.7637   26.2604 C   0  0  0  0  0  0  0  0  0  0  0  0
   -9.6147    5.1186   25.8545 C   0  0  0  0  0  0  0  0  0  0  0  0
  1  2  1  1
  1  3  1  0
  2  4  1  0
  3  5  2  3
  5  6  1  0
  1  7  1  0
  7  8  2  0
M  END
$$$$
