No_9411-complexes_sdf/6BKW-FPZ/2024-09-17-14-21-01/
     RDKit          3D

 23 25  0  0  0  0  0  0  0  0999 V2000
   -7.7129    4.2099   27.0854 C   0  0  0  0  0  0  0  0  0  0  0  0
   -7.7814    5.1722   27.8972 C   0  0  0  0  0  0  0  0  0  0  0  0
   -8.7889    3.2468   27.2220 C   0  0  0  0  0  0  0  0  0  0  0  0
   -8.5940    1.9755   26.6525 C   0  0  0  0  0  0  0  0  0  0  0  0
   -9.4990    1.3567   25.9026 C   0  0  0  0  0  0  0  0  0  0  0  0
   -9.0214    5.8041   28.2929 C   0  0  0  0  0  0  0  0  0  0  0  0
   -9.8944    3.6512   27.9113 C   0  0  0  0  0  0  0  0  0  0  0  0
  -10.0302    4.8964   28.4608 C   0  0  0  0  0  0  0  0  0  0  0  0
   -9.2307    0.1444   25.2955 C   0  0  0  0  0  0  0  0  0  0  0  0
   -7.9858   -0.4240   25.4273 C   0  0  0  0  0  0  0  0  0  0  0  0
   -7.1879    0.0254   26.2989 C   0  0  0  0  0  0  0  0  0  0  0  0
   -7.3069    1.3018   26.9316 C   0  0  0  0  0  0  0  0  0  0  0  0
  -11.0561    2.6767   27.9979 C   0  0  0  0  0  0  0  0  0  0  0  0
  -12.3438    3.0433   27.5380 C   0  0  0  0  0  0  0  0  0  0  0  0
  -12.5021    3.9444   26.8544 C   0  0  0  0  0  0  0  0  0  0  0  0
  -13.8028    4.4008   26.3099 C   0  0  0  0  0  0  0  0  0  0  0  0
  -14.8853    3.7910   26.7502 C   0  0  0  0  0  0  0  0  0  0  0  0
  -13.4518    2.2492   27.9468 C   0  0  0  0  0  0  0  0  0  0  0  0
  -14.7509    2.6407   27.5578 C   0  0  0  0  0  0  0  0  0  0  0  0
  -10.7993    1.5359   28.5683 O   0  0  0  0  0  0  0  0  0  0  0  0
  -10.2509   -0.4101   24.3588 C   0  0  0  0  0  0  0  0  0  0  0  0
  -10.8201    0.0946   23.6114 C   0  0  0  0  0  0  0  0  0  0  0  0
  -11.9396   -0.4836   22.7945 C   0  0  0  0  0  0  0  0  0  0  0  0
  3  4  1  0
  7 13  1  0
 13 14  1  0
 13 20  2  0
  9 21  1  0
 21 22  2  3
 22 23  1  0
  4  5  2  0
  5  9  1  0
  9 10  2  0
 10 11  1  0
 11 12  2  0
 12  4  1  0
 14 15  2  0
 15 16  1  0
 16 17  2  0
 17 19  1  0
 19 18  2  0
 18 14  1  0
  1  2  2  0
  2  6  1  0
  6  8  2  0
  8  7  1  0
  7  3  2  0
  3  1  1  0
M  END
$$$$
