No_9192-complexes_sdf/6BKW-FPZ/2024-09-17-14-21-01/
     RDKit          3D

 17 19  0  0  0  0  0  0  0  0999 V2000
   -7.7129    4.2099   27.0854 C   0  0  0  0  0  0  0  0  0  0  0  0
   -8.9133    4.4736   27.0998 C   0  0  0  0  0  0  0  0  0  0  0  0
   -9.4616    5.6470   27.6290 C   0  0  0  0  0  0  0  0  0  0  0  0
   -6.8722    5.1130   27.9248 C   0  0  0  0  0  0  0  0  0  0  0  0
   -7.3801    6.2535   28.4126 C   0  0  0  0  0  0  0  0  0  0  0  0
   -8.6734    6.5530   28.2150 C   0  0  0  0  0  0  0  0  0  0  0  0
   -9.7626    3.4440   26.3353 C   0  0  0  0  0  0  0  0  0  0  0  0
  -10.3745    2.5456   27.1033 C   0  0  0  0  0  0  0  0  0  0  0  0
  -10.8267    2.6931   28.3449 C   0  0  0  0  0  0  0  0  0  0  0  0
  -10.4748    1.1193   26.6093 C   0  0  0  0  0  0  0  0  0  0  0  0
  -10.8949    0.2192   27.1626 C   0  0  0  0  0  0  0  0  0  0  0  0
  -10.9788    4.0707   28.8995 C   0  0  0  0  0  0  0  0  0  0  0  0
  -11.5844    0.4574   28.5304 C   0  0  0  0  0  0  0  0  0  0  0  0
  -11.6059    1.6508   29.0175 C   0  0  0  0  0  0  0  0  0  0  0  0
  -10.5395    5.0833   28.7640 C   0  0  0  0  0  0  0  0  0  0  0  0
  -10.7552    4.2221   25.4531 C   0  0  0  0  0  0  0  0  0  0  0  0
   -8.7105    2.7752   25.2898 C   0  0  0  0  0  0  0  0  0  0  0  0
  2  7  1  0
  7  8  1  0
  9 12  1  0
  3 15  1  0
 12 15  2  0
  7 16  1  0
  7 17  1  0
  1  2  2  0
  2  3  1  0
  3  6  2  0
  6  5  1  0
  5  4  2  0
  4  1  1  0
  8  9  2  0
  9 14  1  0
 14 13  2  0
 13 11  1  0
 11 10  2  0
 10  8  1  0
M  END
$$$$
