No_9846-complexes_sdf/6BKW-FPZ/2024-09-17-14-21-01/
     RDKit          3D

 23 25  0  0  0  0  0  0  0  0999 V2000
   -7.7129    4.2099   27.0854 C   0  0  0  0  0  0  0  0  0  0  0  0
   -8.2112    3.0637   26.9225 C   0  0  0  0  0  0  0  0  0  0  0  0
   -8.5108    5.3904   26.9436 C   0  0  0  0  0  0  0  0  0  0  0  0
   -7.9752    6.6981   27.2112 C   0  0  0  0  0  0  0  0  0  0  0  0
   -9.5213    2.8208   26.4688 C   0  0  0  0  0  0  0  0  0  0  0  0
  -10.2979    3.9327   26.2378 C   0  0  0  0  0  0  0  0  0  0  0  0
   -9.7894    5.2123   26.4395 C   0  0  0  0  0  0  0  0  0  0  0  0
   -7.3451    1.8185   27.1796 C   0  0  0  0  0  0  0  0  0  0  0  0
   -7.7334    0.5959   26.9376 N   0  0  0  0  0  0  0  0  0  0  0  0
   -6.2056    1.9217   27.9207 N   0  0  0  0  0  0  0  0  0  0  0  0
   -6.6683   -0.1338   27.3903 C   0  0  0  0  0  0  0  0  0  0  0  0
   -5.7249    0.6847   27.9728 C   0  0  2  0  0  0  0  0  0  0  0  0
   -4.4245    0.3684   28.6276 C   0  0  1  0  0  0  0  0  0  0  0  0
   -4.4179   -0.3224   29.7030 C   0  0  0  0  0  0  0  0  0  0  0  0
   -5.2149   -1.0089   30.3312 C   0  0  0  0  0  0  0  0  0  0  0  0
   -4.9964   -1.6216   31.6328 C   0  0  0  0  0  0  0  0  0  0  0  0
   -3.7757   -1.4021   32.2546 C   0  0  0  0  0  0  0  0  0  0  0  0
   -2.7741   -0.6419   31.6077 C   0  0  0  0  0  0  0  0  0  0  0  0
   -3.0308   -0.0516   30.4624 C   0  0  0  0  0  0  0  0  0  0  0  0
   -3.3022    0.6821   27.6974 C   0  0  0  0  0  0  0  0  0  0  0  0
   -6.9297    6.8661   27.8890 N   0  0  0  0  0  0  0  0  0  0  0  0
   -8.5363    7.9057   26.5798 C   0  0  0  0  0  0  0  0  0  0  0  0
   -3.1286    1.6533   27.1083 O   0  0  0  0  0  0  0  0  0  0  0  0
  3  4  1  0
  2  8  1  0
  8  9  2  0
  8 10  1  0
  9 11  1  0
 10 12  1  0
 12 11  1  1
 12 13  1  0
 13 14  1  0
 13 20  1  6
  4 21  2  0
  4 22  1  0
 20 23  2  0
 14 15  2  0
 15 16  1  0
 16 17  2  0
 17 18  1  0
 18 19  2  0
 19 14  1  0
  1  2  2  0
  2  5  1  0
  5  6  2  0
  6  7  1  0
  7  3  2  0
  3  1  1  0
M  END
$$$$
