No_9517-complexes_sdf/6BKW-FPZ/2024-09-17-14-21-01/
     RDKit          3D

 27 28  0  0  0  0  0  0  0  0999 V2000
   -7.9040    3.9820   27.1177 C   0  0  0  0  0  0  0  0  0  0  0  0
   -7.8663    4.8694   27.9238 C   0  0  0  0  0  0  0  0  0  0  0  0
   -9.0501    3.8017   26.2617 C   0  0  0  0  0  0  0  0  0  0  0  0
  -10.0189    4.7608   26.3707 C   0  0  0  0  0  0  0  0  0  0  0  0
   -8.6770    5.9780   27.9222 C   0  0  0  0  0  0  0  0  0  0  0  0
   -9.8040    5.8752   27.0958 C   0  0  0  0  0  0  0  0  0  0  0  0
   -9.1518    2.6191   25.4170 C   0  0  0  0  0  0  0  0  0  0  0  0
   -8.6334    1.5019   25.7883 N   0  0  0  0  0  0  0  0  0  0  0  0
   -8.4825    0.4466   24.9836 C   0  0  0  0  0  0  0  0  0  0  0  0
   -9.7093    2.7772   24.2998 O   0  0  0  0  0  0  0  0  0  0  0  0
   -8.9428   -0.8070   25.5070 C   0  0  0  0  0  0  0  0  0  0  0  0
  -10.1419   -0.7392   26.0841 C   0  0  0  0  0  0  0  0  0  0  0  0
  -10.2065   -1.4420   27.2240 C   0  0  0  0  0  0  0  0  0  0  0  0
   -9.3275   -2.4788   27.6201 C   0  0  0  0  0  0  0  0  0  0  0  0
   -8.1564   -2.5211   26.9141 C   0  0  0  0  0  0  0  0  0  0  0  0
   -7.9219   -1.6181   25.9521 C   0  0  0  0  0  0  0  0  0  0  0  0
   -6.6297   -1.7007   25.2337 C   0  0  0  0  0  0  0  0  0  0  0  0
   -5.9105   -2.8133   25.1444 C   0  0  0  0  0  0  0  0  0  0  0  0
   -4.6731   -2.8103   24.5052 C   0  0  0  0  0  0  0  0  0  0  0  0
   -4.0082   -3.9711   24.6033 N   0  0  0  0  0  0  0  0  0  0  0  0
   -2.7074   -3.9976   24.5183 C   0  0  0  0  0  0  0  0  0  0  0  0
   -2.0955   -4.9544   23.7770 C   0  0  0  0  0  0  0  0  0  0  0  0
   -2.5630   -5.5790   22.9216 C   0  0  0  0  0  0  0  0  0  0  0  0
   -4.0086   -5.6097   22.8595 C   0  0  0  0  0  0  0  0  0  0  0  0
   -4.6697   -4.6010   23.5631 C   0  0  0  0  0  0  0  0  0  0  0  0
   -6.0560   -4.9655   24.0009 C   0  0  0  0  0  0  0  0  0  0  0  0
   -4.9098   -3.5326   22.4570 C   0  0  0  0  0  0  0  0  0  0  0  0
  3  7  1  0
  7  8  1  0
  8  9  1  0
  7 10  2  0
  9 11  1  0
 16 17  1  0
 17 18  2  3
 18 19  1  0
 19 20  1  0
 20 21  2  3
 21 22  1  0
 22 23  2  3
 23 24  1  0
 24 25  1  0
 25 26  1  0
 25 27  1  0
 11 12  2  0
 12 13  1  0
 13 14  2  0
 14 15  1  0
 15 16  2  0
 16 11  1  0
  1  2  2  0
  2  5  1  0
  5  6  2  0
  6  4  1  0
  4  3  2  0
  3  1  1  0
M  END
$$$$
