No_9208-complexes_sdf/6BKW-FPZ/2024-09-17-14-21-01/
     RDKit          3D

 40 45  0  0  0  0  0  0  0  0999 V2000
   -7.9040    3.9820   27.1177 C   0  0  0  0  0  0  0  0  0  0  0  0
   -8.2057    2.8231   26.8733 C   0  0  0  0  0  0  0  0  0  0  0  0
   -8.7695    5.0740   26.7916 C   0  0  0  0  0  0  0  0  0  0  0  0
   -9.9618    4.7598   26.1630 C   0  0  0  0  0  0  0  0  0  0  0  0
   -7.3763    1.7038   27.3414 C   0  0  0  0  0  0  0  0  0  0  0  0
   -9.4562    2.5223   26.2873 C   0  0  0  0  0  0  0  0  0  0  0  0
  -10.2710    3.4837   25.9308 C   0  0  0  0  0  0  0  0  0  0  0  0
   -7.7009    0.3508   27.2385 C   0  0  0  0  0  0  0  0  0  0  0  0
   -6.8765   -0.5900   27.6633 C   0  0  0  0  0  0  0  0  0  0  0  0
   -5.7115   -0.2717   28.0914 C   0  0  0  0  0  0  0  0  0  0  0  0
   -5.2000    1.0634   28.1549 C   0  0  0  0  0  0  0  0  0  0  0  0
   -6.0020    2.0269   27.7714 C   0  0  0  0  0  0  0  0  0  0  0  0
   -8.3884    6.5063   27.0425 C   0  0  0  0  0  0  0  0  0  0  0  0
   -8.0495    7.0405   28.1080 N   0  0  0  0  0  0  0  0  0  0  0  0
   -8.1962    7.2070   25.9425 F   0  0  0  0  0  0  0  0  0  0  0  0
   -4.8910   -1.4666   28.6292 C   0  0  0  0  0  0  0  0  0  0  0  0
   -3.6175   -1.1702   29.0877 C   0  0  2  0  0  0  0  0  0  0  0  0
   -3.0186    0.0574   28.9695 C   0  0  0  0  0  0  0  0  0  0  0  0
   -3.8100    1.1890   28.6314 C   0  0  0  0  0  0  0  0  0  0  0  0
   -2.7602   -2.2951   29.5799 C   0  0  0  0  0  0  0  0  0  0  0  0
   -1.9648   -2.7409   28.8866 C   0  0  0  0  0  0  0  0  0  0  0  0
   -1.0753   -3.8559   29.3289 C   0  0  0  0  0  0  0  0  0  0  0  0
   -1.2637   -4.3746   30.5683 C   0  0  0  0  0  0  0  0  0  0  0  0
   -3.0043   -2.6619   30.9144 C   0  0  0  0  0  0  0  0  0  0  0  0
   -2.2268   -3.7269   31.4553 C   0  0  0  0  0  0  0  0  0  0  0  0
   -3.9481   -2.0186   31.8461 C   0  0  0  0  0  0  0  0  0  0  0  0
   -3.7564   -2.1344   33.0985 C   0  0  0  0  0  0  0  0  0  0  0  0
   -3.6997   -3.3235   33.6061 C   0  0  0  0  0  0  0  0  0  0  0  0
   -2.4267   -4.0584   32.9720 C   0  0  1  0  0  0  0  0  0  0  0  0
   -5.3656   -2.5774   28.6490 O   0  0  0  0  0  0  0  0  0  0  0  0
   -2.4196   -5.5637   33.1240 C   0  0  2  0  0  0  0  0  0  0  0  0
   -1.1162   -3.4135   33.6296 C   0  0  0  0  0  0  0  0  0  0  0  0
   -1.3762   -6.1015   33.4278 C   0  0  0  0  0  0  0  0  0  0  0  0
   -0.0052   -4.1301   33.8738 C   0  0  0  0  0  0  0  0  0  0  0  0
   -0.1655   -5.5112   33.9794 C   0  0  0  0  0  0  0  0  0  0  0  0
   -3.6168   -6.1907   32.7525 C   0  0  0  0  0  0  0  0  0  0  0  0
   -3.6250   -7.1974   31.9146 C   0  0  0  0  0  0  0  0  0  0  0  0
   -4.8032   -7.7993   31.4930 C   0  0  0  0  0  0  0  0  0  0  0  0
   -6.0138   -7.2658   31.9278 C   0  0  0  0  0  0  0  0  0  0  0  0
   -6.0435   -6.1729   32.7948 C   0  0  0  0  0  0  0  0  0  0  0  0
  2  5  1  0
  3 13  1  0
 13 14  2  0
 13 15  1  0
 10 16  1  0
 16 17  1  0
 11 19  1  0
 18 19  1  0
 17 20  1  6
 24 26  1  0
 26 27  1  0
 27 28  1  0
 25 29  1  0
 29 28  1  1
 16 30  2  0
 29 31  1  0
 29 32  1  0
 33 35  1  0
 34 35  1  0
 31 36  1  0
 36 37  2  3
 37 38  1  0
 38 39  2  3
 39 40  1  0
 31 33  1  6
 34 32  1  0
 18 17  1  0
  5  8  2  0
  8  9  1  0
  9 10  2  0
 10 11  1  0
 11 12  2  0
 12  5  1  0
  1  2  2  0
  2  6  1  0
  6  7  2  0
  7  4  1  0
  4  3  2  0
  3  1  1  0
 20 21  2  0
 21 22  1  0
 22 23  2  0
 23 25  1  0
 25 24  2  0
 24 20  1  0
M  END
$$$$
