No_986-complexes_sdf/6BKW-FPZ/2024-09-17-14-21-01/
     RDKit          3D

 21 23  0  0  0  0  0  0  0  0999 V2000
   -7.9040    3.9820   27.1177 C   0  0  0  0  0  0  0  0  0  0  0  0
   -8.2057    2.8231   26.8733 C   0  0  0  0  0  0  0  0  0  0  0  0
   -8.7695    5.0740   26.7916 C   0  0  0  0  0  0  0  0  0  0  0  0
   -8.4337    6.4678   27.0913 C   0  0  0  0  0  0  0  0  0  0  0  0
   -9.3742    2.4311   26.2346 C   0  0  0  0  0  0  0  0  0  0  0  0
  -10.2395    3.4267   25.8887 C   0  0  0  0  0  0  0  0  0  0  0  0
   -9.9567    4.7548   26.1374 C   0  0  0  0  0  0  0  0  0  0  0  0
   -7.9839    7.5474   27.0128 N   0  0  0  0  0  0  0  0  0  0  0  0
   -7.2381    1.6824   27.2965 C   0  0  0  0  0  0  0  0  0  0  0  0
   -7.5394    0.3965   27.2157 N   0  0  0  0  0  0  0  0  0  0  0  0
   -6.0993    2.0222   27.9489 N   0  0  0  0  0  0  0  0  0  0  0  0
   -6.4165   -0.1893   27.7122 C   0  0  1  0  0  0  0  0  0  0  0  0
   -5.5307    0.7609   28.1321 C   0  0  0  0  0  0  0  0  0  0  0  0
   -4.1790    0.6194   28.7460 C   0  0  0  0  0  0  0  0  0  0  0  0
   -3.8718   -0.5069   29.4023 C   0  0  0  0  0  0  0  0  0  0  0  0
   -2.6067   -0.6056   30.0098 C   0  0  0  0  0  0  0  0  0  0  0  0
   -1.9933   -1.6848   30.3933 C   0  0  0  0  0  0  0  0  0  0  0  0
   -2.8171   -2.8428   30.4085 C   0  0  0  0  0  0  0  0  0  0  0  0
   -4.0403   -2.8309   29.8562 C   0  0  0  0  0  0  0  0  0  0  0  0
   -4.5597   -1.6787   29.3275 C   0  0  0  0  0  0  0  0  0  0  0  0
   -6.3232   -1.5897   28.0484 C   0  0  0  0  0  0  0  0  0  0  0  0
  3  4  1  0
  4  8  3  0
  2  9  1  0
  9 10  2  0
  9 11  1  0
 10 12  1  0
 11 13  2  0
 12 13  1  0
 13 14  1  0
 14 15  1  0
 12 21  1  1
 15 16  2  0
 16 17  1  0
 17 18  2  0
 18 19  1  0
 19 20  2  0
 20 15  1  0
  1  2  2  0
  2  5  1  0
  5  6  2  0
  6  7  1  0
  7  3  2  0
  3  1  1  0
M  END
$$$$
