No_9783-complexes_sdf/6BKW-FPZ/2024-09-17-14-21-01/
     RDKit          3D

 28 31  0  0  0  0  0  0  0  0999 V2000
   -7.2496    3.8871   27.4508 C   0  0  0  0  0  0  0  0  0  0  0  0
   -7.9379    4.9063   27.8518 C   0  0  0  0  0  0  0  0  0  0  0  0
   -9.3376    4.8647   27.7795 C   0  0  0  0  0  0  0  0  0  0  0  0
   -7.8544    2.6294   27.0414 C   0  0  0  0  0  0  0  0  0  0  0  0
   -9.2665    2.6175   27.0340 C   0  0  0  0  0  0  0  0  0  0  0  0
   -9.9836    3.7042   27.4150 C   0  0  0  0  0  0  0  0  0  0  0  0
   -9.9053    1.3367   26.6546 C   0  0  0  0  0  0  0  0  0  0  0  0
  -10.5453    0.7121   27.6210 C   0  0  0  0  0  0  0  0  0  0  0  0
  -10.9793   -0.6129   27.5217 C   0  0  0  0  0  0  0  0  0  0  0  0
  -10.7455   -1.2324   26.3464 C   0  0  0  0  0  0  0  0  0  0  0  0
   -9.4914    0.6641   25.5077 C   0  0  0  0  0  0  0  0  0  0  0  0
   -8.8283    1.3340   24.4302 C   0  0  0  0  0  0  0  0  0  0  0  0
  -10.0172   -0.6193   25.2775 C   0  0  0  0  0  0  0  0  0  0  0  0
   -7.1572    6.4017   28.2694 Cl  0  0  0  0  0  0  0  0  0  0  0  0
  -11.4465    3.6717   27.4966 C   0  0  0  0  0  0  0  0  0  0  0  0
  -12.1201    3.8945   28.7582 C   0  0  0  0  0  0  0  0  0  0  0  0
  -13.5046    3.9788   28.9116 C   0  0  0  0  0  0  0  0  0  0  0  0
  -14.2196    4.1075   27.7118 C   0  0  0  0  0  0  0  0  0  0  0  0
  -12.2425    3.7645   26.3318 C   0  0  0  0  0  0  0  0  0  0  0  0
  -13.6047    3.9920   26.4434 C   0  0  0  0  0  0  0  0  0  0  0  0
   -9.7904   -1.3232   24.0304 C   0  0  0  0  0  0  0  0  0  0  0  0
   -9.1449   -0.6090   23.0356 C   0  0  0  0  0  0  0  0  0  0  0  0
   -8.5057    0.6843   23.2012 C   0  0  0  0  0  0  0  0  0  0  0  0
  -11.6174    3.7202   25.0566 C   0  0  0  0  0  0  0  0  0  0  0  0
  -12.2895    3.4109   23.9061 C   0  0  0  0  0  0  0  0  0  0  0  0
  -11.5939    3.6510   22.7827 C   0  0  0  0  0  0  0  0  0  0  0  0
  -11.1741    4.5169   22.3533 C   0  0  0  0  0  0  0  0  0  0  0  0
  -10.3652    4.6790   21.1757 C   0  0  0  0  0  0  0  0  0  0  0  0
  5  7  1  0
  2 14  1  0
  6 15  1  0
 19 24  1  0
 24 25  2  3
 25 26  1  0
 26 27  2  3
 27 28  1  0
 15 16  2  0
 16 17  1  0
 17 18  2  0
 18 20  1  0
 20 19  2  0
 19 15  1  0
 11 12  2  0
 12 23  1  0
 23 22  2  0
 22 21  1  0
 21 13  2  0
  1  2  2  0
  2  3  1  0
  3  6  2  0
  6  5  1  0
  5  4  2  0
  4  1  1  0
  7  8  2  0
  8  9  1  0
  9 10  2  0
 10 13  1  0
 13 11  1  0
 11  7  1  0
M  END
$$$$
