No_9755-complexes_sdf/6BKW-FPZ/2024-09-17-14-21-01/
     RDKit          3D

 23 25  0  0  0  0  0  0  0  0999 V2000
   -7.7129    4.2099   27.0854 C   0  0  0  0  0  0  0  0  0  0  0  0
   -8.2112    3.0637   26.9225 C   0  0  0  0  0  0  0  0  0  0  0  0
   -7.0021    4.5281   28.2396 C   0  0  0  0  0  0  0  0  0  0  0  0
   -7.5497    1.9016   27.4549 C   0  0  0  0  0  0  0  0  0  0  0  0
   -8.0700    0.6173   27.2932 C   0  0  0  0  0  0  0  0  0  0  0  0
   -9.3589    0.5577   26.6828 C   0  0  0  0  0  0  0  0  0  0  0  0
  -10.0040    1.6252   26.1809 C   0  0  0  0  0  0  0  0  0  0  0  0
   -9.4952    2.7907   26.2039 C   0  0  0  0  0  0  0  0  0  0  0  0
   -8.4463    5.3514   26.4830 C   0  0  0  0  0  0  0  0  0  0  0  0
   -8.1621    6.7218   26.8853 C   0  0  0  0  0  0  0  0  0  0  0  0
   -6.8730    5.9234   28.7367 C   0  0  0  0  0  0  0  0  0  0  0  0
   -7.3810    6.9388   27.9936 C   0  0  0  0  0  0  0  0  0  0  0  0
  -11.2929    1.3638   25.4421 C   0  0  0  0  0  0  0  0  0  0  0  0
  -12.3173    1.9310   25.5825 N   0  0  0  0  0  0  0  0  0  0  0  0
  -12.4949    2.6938   26.6107 C   0  0  0  0  0  0  0  0  0  0  0  0
  -13.6684    3.5740   26.6962 C   0  0  0  0  0  0  0  0  0  0  0  0
  -13.7988    4.4181   25.8242 C   0  0  0  0  0  0  0  0  0  0  0  0
  -13.4310    4.1505   24.4411 C   0  0  0  0  0  0  0  0  0  0  0  0
  -12.3900    3.1166   24.4336 C   0  0  2  0  0  0  0  0  0  0  0  0
  -11.3550    0.2498   24.8332 O   0  0  0  0  0  0  0  0  0  0  0  0
  -11.6557    3.0018   23.2393 C   0  0  0  0  0  0  0  0  0  0  0  0
  -11.3659    3.9459   22.5270 C   0  0  0  0  0  0  0  0  0  0  0  0
  -10.8176    5.1023   22.9319 C   0  0  0  0  0  0  0  0  0  0  0  0
  1  2  1  0
  7 13  1  0
 13 14  1  0
 14 15  1  0
 16 17  1  0
 17 18  1  0
 14 19  1  0
 19 18  1  6
 13 20  2  0
 19 21  1  0
 21 22  2  3
 22 23  1  0
 15 16  1  0
  1  3  2  0
  3 11  1  0
 11 12  2  0
 12 10  1  0
 10  9  2  0
  9  1  1  0
  2  4  2  0
  4  5  1  0
  5  6  2  0
  6  7  1  0
  7  8  2  0
  8  2  1  0
M  END
$$$$
