No_9914-complexes_sdf/6BKW-FPZ/2024-09-17-14-21-01/
     RDKit          3D

 19 21  0  0  0  0  0  0  0  0999 V2000
   -7.2496    3.8871   27.4508 C   0  0  0  0  0  0  0  0  0  0  0  0
   -7.6161    2.7143   27.1523 C   0  0  0  0  0  0  0  0  0  0  0  0
   -8.6212    2.2239   26.4074 C   0  0  0  0  0  0  0  0  0  0  0  0
   -8.2540    4.9237   27.1711 C   0  0  0  0  0  0  0  0  0  0  0  0
   -9.3709    4.6018   26.4511 C   0  0  0  0  0  0  0  0  0  0  0  0
   -9.5922    3.3274   26.0949 C   0  0  0  0  0  0  0  0  0  0  0  0
   -7.7258    6.2652   27.5789 C   0  0  0  0  0  0  0  0  0  0  0  0
  -10.7769    2.9999   25.2859 C   0  0  0  0  0  0  0  0  0  0  0  0
  -10.7819    3.4824   24.0174 C   0  0  0  0  0  0  0  0  0  0  0  0
  -11.6744    3.2737   23.0312 C   0  0  0  0  0  0  0  0  0  0  0  0
  -11.8094    2.2871   25.7335 C   0  0  0  0  0  0  0  0  0  0  0  0
  -12.9069    2.0489   24.8326 C   0  0  0  0  0  0  0  0  0  0  0  0
  -12.8373    2.5949   23.5462 C   0  0  0  0  0  0  0  0  0  0  0  0
   -6.5964    1.5137   27.5231 C   0  0  0  0  0  0  0  0  0  0  0  0
   -6.9043    0.1771   27.4423 C   0  0  0  0  0  0  0  0  0  0  0  0
   -6.0243   -0.7675   27.9019 C   0  0  0  0  0  0  0  0  0  0  0  0
   -4.7963   -0.3518   28.5037 C   0  0  0  0  0  0  0  0  0  0  0  0
   -4.5005    1.0159   28.5489 C   0  0  0  0  0  0  0  0  0  0  0  0
   -5.3334    1.9100   28.1328 C   0  0  0  0  0  0  0  0  0  0  0  0
  4  7  1  0
  6  8  1  0
  2 14  1  0
 14 15  2  0
 15 16  1  0
 16 17  2  0
 17 18  1  0
 18 19  2  0
 19 14  1  0
  8  9  2  0
  9 10  1  0
 10 13  2  0
 13 12  1  0
 12 11  2  0
 11  8  1  0
  1  2  2  0
  2  3  1  0
  3  6  2  0
  6  5  1  0
  5  4  2  0
  4  1  1  0
M  END
$$$$
