No_9316-complexes_sdf/6BKW-FPZ/2024-09-17-14-21-01/
     RDKit          3D

  7  6  0  0  0  0  0  0  0  0999 V2000
   -7.2496    3.8871   27.4508 C   0  0  0  0  0  0  0  0  0  0  0  0
   -8.5096    4.0291   27.2770 C   0  0  0  0  0  0  0  0  0  0  0  0
   -9.2669    5.1645   27.5845 C   0  0  0  0  0  0  0  0  0  0  0  0
   -8.4566    6.3212   27.8001 C   0  0  0  0  0  0  0  0  0  0  0  0
   -6.6044    2.5801   27.2072 C   0  0  0  0  0  0  0  0  0  0  0  0
   -5.3630    2.2595   27.8771 C   0  0  0  0  0  0  0  0  0  0  0  0
   -7.0963    6.2342   27.8575 C   0  0  0  0  0  0  0  0  0  0  0  0
  1  2  2  3
  2  3  1  0
  3  4  1  0
  1  5  1  0
  5  6  1  0
  4  7  2  0
M  END
$$$$
