No_9911-complexes_sdf/6BKW-FPZ/2024-09-17-14-21-01/
     RDKit          3D

 17 19  0  0  0  0  0  0  0  0999 V2000
   -7.2496    3.8871   27.4508 C   0  0  0  0  0  0  0  0  0  0  0  0
   -7.6161    2.7143   27.1523 C   0  0  0  0  0  0  0  0  0  0  0  0
   -8.8302    2.4659   26.5056 C   0  0  0  0  0  0  0  0  0  0  0  0
   -8.1584    5.0090   27.3234 C   0  0  0  0  0  0  0  0  0  0  0  0
   -9.3788    4.7965   26.7695 C   0  0  0  0  0  0  0  0  0  0  0  0
   -9.7028    3.5649   26.3276 C   0  0  0  0  0  0  0  0  0  0  0  0
   -6.9225    1.4464   27.3142 C   0  0  0  0  0  0  0  0  0  0  0  0
   -7.3393    0.2628   27.1565 N   0  0  0  0  0  0  0  0  0  0  0  0
   -6.5959   -0.8101   27.4205 C   0  0  0  0  0  0  0  0  0  0  0  0
   -5.5470    1.5411   27.8000 C   0  0  0  0  0  0  0  0  0  0  0  0
   -4.7582    0.4917   28.1119 C   0  0  0  0  0  0  0  0  0  0  0  0
   -5.3322   -0.7337   27.9320 C   0  0  0  0  0  0  0  0  0  0  0  0
   -7.6118    6.5712   27.8823 Cl  0  0  0  0  0  0  0  0  0  0  0  0
   -3.4173    0.6710   28.6393 C   0  0  0  0  0  0  0  0  0  0  0  0
   -2.9890   -0.4161   29.4308 C   0  0  0  0  0  0  0  0  0  0  0  0
   -3.3377   -1.6262   29.2846 C   0  0  0  0  0  0  0  0  0  0  0  0
   -4.6891   -1.8130   28.7045 C   0  0  0  0  0  0  0  0  0  0  0  0
  2  7  1  0
  4 13  1  0
  1  2  2  0
  2  3  1  0
  3  6  2  0
  6  5  1  0
  5  4  2  0
  4  1  1  0
  7  8  2  0
  8  9  1  0
  9 12  2  0
 11 10  2  0
 10  7  1  0
 11 12  1  0
 12 17  1  0
 17 16  2  0
 16 15  1  0
 15 14  2  0
 14 11  1  0
M  END
$$$$
