No_9897-complexes_sdf/6BKW-FPZ/2024-09-17-14-21-01/
     RDKit          3D

 31 34  0  0  0  0  0  0  0  0999 V2000
   -7.9040    3.9820   27.1177 C   0  0  0  0  0  0  0  0  0  0  0  0
   -9.0711    4.3164   27.0630 C   0  0  0  0  0  0  0  0  0  0  0  0
   -9.5294    5.4517   27.7215 C   0  0  0  0  0  0  0  0  0  0  0  0
   -6.9328    4.7309   27.8881 C   0  0  0  0  0  0  0  0  0  0  0  0
   -7.3377    5.8421   28.5537 C   0  0  0  0  0  0  0  0  0  0  0  0
   -8.6411    6.2609   28.3972 C   0  0  0  0  0  0  0  0  0  0  0  0
  -10.0493    3.4953   26.2711 C   0  0  0  0  0  0  0  0  0  0  0  0
  -10.7037    2.5794   26.7787 C   0  0  0  0  0  0  0  0  0  0  0  0
  -11.4636    1.7148   26.2848 C   0  0  0  0  0  0  0  0  0  0  0  0
  -10.1921    3.7906   24.8835 C   0  0  0  0  0  0  0  0  0  0  0  0
  -10.9765    2.9747   24.1267 C   0  0  0  0  0  0  0  0  0  0  0  0
  -11.6772    1.9311   24.8363 C   0  0  0  0  0  0  0  0  0  0  0  0
  -11.2035    3.2158   22.7277 C   0  0  0  0  0  0  0  0  0  0  0  0
  -11.9581    4.2457   22.3024 C   0  0  0  0  0  0  0  0  0  0  0  0
  -10.5711    2.3992   21.8131 C   0  0  0  0  0  0  0  0  0  0  0  0
  -10.6304    2.6425   20.4279 C   0  0  0  0  0  0  0  0  0  0  0  0
  -11.4144    3.7459   19.9965 C   0  0  0  0  0  0  0  0  0  0  0  0
  -12.5681    5.0511   23.3401 C   0  0  0  0  0  0  0  0  0  0  0  0
  -12.0649    4.5334   20.9212 C   0  0  0  0  0  0  0  0  0  0  0  0
   -5.6737    4.2175   28.0580 O   0  0  0  0  0  0  0  0  0  0  0  0
   -9.7254    1.3845   22.2324 O   0  0  0  0  0  0  0  0  0  0  0  0
   -9.8433    0.1290   21.7000 C   0  0  0  0  0  0  0  0  0  0  0  0
   -8.7590   -0.6645   22.1873 C   0  0  0  0  0  0  0  0  0  0  0  0
   -8.0651   -0.2744   23.2905 C   0  0  0  0  0  0  0  0  0  0  0  0
   -8.6433    0.1589   24.4494 C   0  0  0  0  0  0  0  0  0  0  0  0
   -7.7699    0.3445   25.6484 C   0  0  0  0  0  0  0  0  0  0  0  0
   -6.6900   -0.4687   25.8151 C   0  0  0  0  0  0  0  0  0  0  0  0
   -6.0616   -0.9895   24.6067 C   0  0  0  0  0  0  0  0  0  0  0  0
   -6.6911   -0.9626   23.3963 C   0  0  0  0  0  0  0  0  0  0  0  0
   -8.5017   -1.8142   21.3782 C   0  0  0  0  0  0  0  0  0  0  0  0
   -7.3605   -2.2434   21.5459 F   0  0  0  0  0  0  0  0  0  0  0  0
  2  7  1  0
 11 13  1  0
 14 18  1  0
  4 20  1  0
 15 21  1  0
 21 22  1  0
 22 23  1  0
 23 24  1  0
 23 30  1  0
 30 31  1  0
 24 25  2  0
 25 26  1  0
 26 27  2  0
 27 28  1  0
 28 29  2  0
 29 24  1  0
  1  2  2  0
  2  3  1  0
  3  6  2  0
  6  5  1  0
  5  4  2  0
  4  1  1  0
 13 14  2  0
 14 19  1  0
 19 17  2  0
 17 16  1  0
 16 15  2  0
 15 13  1  0
  7  8  2  0
  8  9  1  0
  9 12  2  0
 12 11  1  0
 11 10  2  0
 10  7  1  0
M  END
$$$$
