No_9932-complexes_sdf/6BKW-FPZ/2024-09-17-14-21-01/
     RDKit          3D

 19 21  0  0  0  0  0  0  0  0999 V2000
   -7.9040    3.9820   27.1177 C   0  0  0  0  0  0  0  0  0  0  0  0
   -7.8663    4.8694   27.9238 C   0  0  0  0  0  0  0  0  0  0  0  0
   -7.4698    2.6989   27.4277 C   0  0  0  0  0  0  0  0  0  0  0  0
   -7.9683    1.5964   26.8266 C   0  0  0  0  0  0  0  0  0  0  0  0
   -8.9447    1.7923   25.8533 C   0  0  0  0  0  0  0  0  0  0  0  0
   -9.4405    2.9988   25.5757 C   0  0  1  0  0  0  0  0  0  0  0  0
   -8.9424    4.1117   26.2388 C   0  0  0  0  0  0  0  0  0  0  0  0
   -8.2460    6.2906   27.6575 C   0  0  0  0  0  0  0  0  0  0  0  0
   -9.1845    6.5830   26.6401 C   0  0  0  0  0  0  0  0  0  0  0  0
   -9.5389    5.3912   25.8820 C   0  0  0  0  0  0  0  0  0  0  0  0
   -7.5536    0.2424   27.0688 C   0  0  0  0  0  0  0  0  0  0  0  0
   -6.2261    0.0064   27.5661 C   0  0  0  0  0  0  0  0  0  0  0  0
   -5.8013   -1.1902   28.0251 C   0  0  0  0  0  0  0  0  0  0  0  0
   -6.7311   -2.2141   27.9837 C   0  0  0  0  0  0  0  0  0  0  0  0
   -8.3324   -0.8847   27.2341 C   0  0  0  0  0  0  0  0  0  0  0  0
   -7.9666   -1.7902   27.6928 C   0  0  0  0  0  0  0  0  0  0  0  0
  -10.3995    3.1146   24.4506 C   0  0  0  0  0  0  0  0  0  0  0  0
  -11.5125    3.8688   24.6172 C   0  0  0  0  0  0  0  0  0  0  0  0
  -10.1268    2.5110   23.2422 C   0  0  0  0  0  0  0  0  0  0  0  0
  1  3  1  0
  3  4  1  0
  4  5  1  0
  5  6  1  0
  6  7  1  0
  4 11  1  0
  6 17  1  6
 17 18  1  0
 17 19  1  0
  1  2  2  0
  2  8  1  0
  8  9  2  0
  9 10  1  0
 10  7  2  0
  7  1  1  0
 11 12  2  0
 12 13  1  0
 13 14  2  0
 14 16  1  0
 16 15  2  0
 15 11  1  0
M  END
$$$$
