No_9372-complexes_sdf/6BKW-FPZ/2024-09-17-14-21-01/
     RDKit          3D

 28 33  0  0  0  0  0  0  0  0999 V2000
   -7.9040    3.9820   27.1177 C   0  0  0  0  0  0  0  0  0  0  0  0
   -7.8663    4.8694   27.9238 C   0  0  0  0  0  0  0  0  0  0  0  0
   -7.4547    2.7080   27.4594 C   0  0  0  0  0  0  0  0  0  0  0  0
   -7.9337    1.5946   26.8372 C   0  0  0  0  0  0  0  0  0  0  0  0
   -7.4947    0.3059   27.1189 C   0  0  0  0  0  0  0  0  0  0  0  0
   -8.6696    6.0289   27.7710 C   0  0  0  0  0  0  0  0  0  0  0  0
   -8.6919    1.8586   25.5811 C   0  0  1  0  0  0  0  0  0  0  0  0
   -9.1584    0.6657   24.9332 C   0  0  0  0  0  0  0  0  0  0  0  0
   -8.0292   -0.7823   26.4783 C   0  0  0  0  0  0  0  0  0  0  0  0
  -10.0187    0.9130   23.7474 C   0  0  0  0  0  0  0  0  0  0  0  0
   -8.8340   -0.5365   25.3319 C   0  0  0  0  0  0  0  0  0  0  0  0
  -10.4713    2.1287   23.3893 C   0  0  0  0  0  0  0  0  0  0  0  0
  -10.2678    3.2482   24.2808 C   0  0  0  0  0  0  0  0  0  0  0  0
   -9.2936    3.1183   25.3394 C   0  0  0  0  0  0  0  0  0  0  0  0
   -8.8663    4.2147   26.1361 C   0  0  1  0  0  0  0  0  0  0  0  0
   -9.4385    5.4110   26.0435 C   0  0  0  0  0  0  0  0  0  0  0  0
   -9.2393    6.5298   26.6555 C   0  0  0  0  0  0  0  0  0  0  0  0
   -9.2396   -1.7602   24.5860 C   0  0  0  0  0  0  0  0  0  0  0  0
   -9.0763   -1.8885   23.5056 C   0  0  0  0  0  0  0  0  0  0  0  0
   -9.0282   -1.1608   22.5679 C   0  0  0  0  0  0  0  0  0  0  0  0
   -9.8589    0.0894   22.5368 C   0  0  0  0  0  0  0  0  0  0  0  0
  -11.3659    2.4091   22.3173 C   0  0  0  0  0  0  0  0  0  0  0  0
  -12.3054    2.9503   22.2863 N   0  0  0  0  0  0  0  0  0  0  0  0
  -12.7286    3.6009   23.3544 C   0  0  0  0  0  0  0  0  0  0  0  0
  -13.9562    4.4288   23.4554 C   0  0  0  0  0  0  0  0  0  0  0  0
  -11.9576    3.9111   24.5830 C   0  0  0  0  0  0  0  0  0  0  0  0
  -14.1946    4.9245   24.5172 F   0  0  0  0  0  0  0  0  0  0  0  0
  -14.9951    3.6159   23.0958 F   0  0  0  0  0  0  0  0  0  0  0  0
  1  2  1  0
  1  3  2  0
  3  4  1  0
  4  5  2  0
  2  6  1  0
  4  7  1  0
  7  8  1  1
  5  9  1  0
  8 10  1  0
  8 11  1  0
  9 11  2  0
 10 12  2  0
 12 13  1  0
  7 14  1  0
 13 14  2  0
  1 15  1  0
 14 15  1  0
 15 16  1  1
  6 17  1  0
 16 17  1  0
 11 18  1  0
 18 19  2  0
 19 20  1  0
 10 21  1  0
 20 21  2  0
 12 22  1  0
 22 23  1  0
 23 24  1  0
 24 25  2  3
 13 26  1  0
 24 26  1  0
 25 27  1  0
 25 28  1  0
M  END
$$$$
