No_922-complexes_sdf/6BKW-FPZ/2024-09-17-14-21-01/
     RDKit          3D

 31 36  0  0  0  0  0  0  0  0999 V2000
   -7.9040    3.9820   27.1177 C   0  0  0  0  0  0  0  0  0  0  0  0
   -7.8663    4.8694   27.9238 C   0  0  0  0  0  0  0  0  0  0  0  0
   -7.4698    2.6989   27.4277 C   0  0  1  0  0  0  0  0  0  0  0  0
   -7.9683    1.5964   26.8266 C   0  0  1  0  0  0  0  0  0  0  0  0
   -8.9447    1.7923   25.8533 C   0  0  0  0  0  0  0  0  0  0  0  0
   -9.4405    2.9988   25.5757 C   0  0  2  0  0  0  0  0  0  0  0  0
  -10.4397    3.2630   24.6146 C   0  0  0  0  0  0  0  0  0  0  0  0
   -8.9100    4.1245   26.1959 C   0  0  0  0  0  0  0  0  0  0  0  0
   -8.1498    6.2592   27.6587 N   0  0  0  0  0  0  0  0  0  0  0  0
   -9.1628    6.6323   26.8618 C   0  0  0  0  0  0  0  0  0  0  0  0
   -9.5241    5.4416   25.9620 C   0  0  0  0  0  0  0  0  0  0  0  0
  -10.0870    3.5321   23.2966 C   0  0  0  0  0  0  0  0  0  0  0  0
  -11.7644    3.1501   24.9526 C   0  0  0  0  0  0  0  0  0  0  0  0
  -10.9456    3.8381   22.2743 C   0  0  0  0  0  0  0  0  0  0  0  0
  -12.7807    3.5153   23.9471 C   0  0  0  0  0  0  0  0  0  0  0  0
  -12.3499    3.8436   22.6544 C   0  0  0  0  0  0  0  0  0  0  0  0
   -7.4115    0.2274   27.0144 C   0  0  0  0  0  0  0  0  0  0  0  0
   -6.0852    0.1093   27.5161 C   0  0  0  0  0  0  0  0  0  0  0  0
   -5.5839   -1.0299   27.9767 C   0  0  0  0  0  0  0  0  0  0  0  0
   -4.2813   -1.0112   28.5796 C   0  0  0  0  0  0  0  0  0  0  0  0
   -3.5259    0.1849   28.6619 C   0  0  0  0  0  0  0  0  0  0  0  0
   -4.1304    1.3675   28.2487 C   0  0  0  0  0  0  0  0  0  0  0  0
   -5.3490    1.3377   27.7386 C   0  0  0  0  0  0  0  0  0  0  0  0
   -6.0861    2.5719   27.6266 N   0  0  0  0  0  0  0  0  0  0  0  0
   -8.1077   -0.7576   26.7535 O   0  0  0  0  0  0  0  0  0  0  0  0
  -12.2666    2.9538   26.3052 C   0  0  0  0  0  0  0  0  0  0  0  0
  -12.5914    2.2873   26.9789 C   0  0  0  0  0  0  0  0  0  0  0  0
  -12.9333    1.9791   28.0695 C   0  0  0  0  0  0  0  0  0  0  0  0
  -12.8800    3.0814   29.0899 C   0  0  0  0  0  0  0  0  0  0  0  0
  -12.0771    4.2972   27.1843 C   0  0  0  0  0  0  0  0  0  0  0  0
  -12.4084    4.2715   28.5029 C   0  0  0  0  0  0  0  0  0  0  0  0
  1  3  1  0
  3  4  1  0
  4  5  1  6
  5  6  1  0
  6  7  1  6
  6  8  1  0
  4 17  1  0
 17 18  1  0
  3 24  1  6
 23 24  1  0
 17 25  2  0
 13 26  1  0
 18 19  2  0
 19 20  1  0
 20 21  2  0
 21 22  1  0
 22 23  2  0
 23 18  1  0
  7 12  2  0
 12 14  1  0
 14 16  2  0
 16 15  1  0
 15 13  2  0
 13  7  1  0
 26 27  2  0
 27 28  1  0
 28 29  2  0
 29 31  1  0
 31 30  2  0
 30 26  1  0
  1  2  2  0
  2  9  1  0
  9 10  2  0
 10 11  1  0
 11  8  2  0
  8  1  1  0
M  END
$$$$
