No_9635-complexes_sdf/6BKW-FPZ/2024-09-17-14-21-01/
     RDKit          3D

 18 19  0  0  0  0  0  0  0  0999 V2000
   -7.2496    3.8871   27.4508 C   0  0  0  0  0  0  0  0  0  0  0  0
   -7.6161    2.7143   27.1523 C   0  0  0  0  0  0  0  0  0  0  0  0
   -8.6212    2.2239   26.4074 C   0  0  0  0  0  0  0  0  0  0  0  0
   -8.2540    4.9237   27.1711 C   0  0  0  0  0  0  0  0  0  0  0  0
   -9.3729    4.5806   26.4433 C   0  0  0  0  0  0  0  0  0  0  0  0
   -9.5830    3.2969   26.1026 C   0  0  0  0  0  0  0  0  0  0  0  0
   -7.9478    6.2272   27.5121 N   0  0  0  0  0  0  0  0  0  0  0  0
   -8.8625    0.8952   26.0570 C   0  0  2  0  0  0  0  0  0  0  0  0
   -9.3240    0.5576   24.7110 S   0  0  0  0  0  0  0  0  0  0  0  0
   -8.8558   -0.9659   24.4669 C   0  0  1  0  0  0  0  0  0  0  0  0
   -9.7087    0.1554   27.0918 C   0  0  0  0  0  0  0  0  0  0  0  0
   -8.7817    7.3002   27.1146 C   0  0  0  0  0  0  0  0  0  0  0  0
   -9.2875   -1.2074   27.3390 C   0  0  0  0  0  0  0  0  0  0  0  0
   -8.6589   -1.7575   26.6910 C   0  0  0  0  0  0  0  0  0  0  0  0
   -9.1216   -2.0140   25.2391 C   0  0  0  0  0  0  0  0  0  0  0  0
   -8.2888   -1.2568   23.0960 C   0  0  0  0  0  0  0  0  0  0  0  0
   -7.4136   -0.5752   22.5399 F   0  0  0  0  0  0  0  0  0  0  0  0
   -9.3825   -1.4906   22.2662 F   0  0  0  0  0  0  0  0  0  0  0  0
  4  7  1  0
  8  3  1  1
  8  9  1  0
  9 10  1  0
  8 11  1  0
  7 12  1  0
 11 13  2  0
 13 14  1  0
 10 15  1  0
 14 15  1  0
 10 16  1  6
 16 17  1  0
 16 18  1  0
  1  2  2  0
  2  3  1  0
  3  6  2  0
  6  5  1  0
  5  4  2  0
  4  1  1  0
M  END
$$$$
