No_9271-complexes_sdf/6BKW-FPZ/2024-09-17-14-21-01/
     RDKit          3D

 33 38  0  0  0  0  0  0  0  0999 V2000
   -7.2496    3.8871   27.4508 C   0  0  0  0  0  0  0  0  0  0  0  0
   -7.6161    2.7143   27.1523 C   0  0  1  0  0  0  0  0  0  0  0  0
   -7.1618    1.8631   27.5232 C   0  0  0  0  0  0  0  0  0  0  0  0
   -8.0384    5.0866   27.3232 C   0  0  0  0  0  0  0  0  0  0  0  0
   -9.1224    5.1097   26.4856 C   0  0  0  0  0  0  0  0  0  0  0  0
   -8.8783    2.5973   26.4116 C   0  0  0  0  0  0  0  0  0  0  0  0
   -9.5900    3.8077   26.0949 C   0  0  2  0  0  0  0  0  0  0  0  0
   -5.7143    1.8525   28.0345 C   0  0  0  0  0  0  0  0  0  0  0  0
   -5.0324    0.5436   28.3021 C   0  0  0  0  0  0  0  0  0  0  0  0
   -5.7315   -0.5826   28.2061 C   0  0  0  0  0  0  0  0  0  0  0  0
   -7.5406    0.4151   27.6255 C   0  0  0  0  0  0  0  0  0  0  0  0
   -6.9766   -0.6514   27.9242 C   0  0  0  0  0  0  0  0  0  0  0  0
   -7.5216    6.2650   27.7543 F   0  0  0  0  0  0  0  0  0  0  0  0
   -3.6183    0.5291   28.7648 C   0  0  0  0  0  0  0  0  0  0  0  0
   -2.9240   -0.6756   28.7180 C   0  0  0  0  0  0  0  0  0  0  0  0
   -3.5436   -1.8391   28.6651 C   0  0  0  0  0  0  0  0  0  0  0  0
   -4.9127   -1.8282   28.4088 C   0  0  0  0  0  0  0  0  0  0  0  0
  -10.7842    3.7263   25.2298 C   0  0  1  0  0  0  0  0  0  0  0  0
  -11.9729    3.5126   25.7967 C   0  0  0  0  0  0  0  0  0  0  0  0
  -13.1595    3.6580   25.1433 C   0  0  0  0  0  0  0  0  0  0  0  0
  -10.6884    4.0085   23.8725 C   0  0  0  0  0  0  0  0  0  0  0  0
  -11.7941    4.2044   23.0980 C   0  0  0  0  0  0  0  0  0  0  0  0
  -13.0602    4.0356   23.7407 C   0  0  0  0  0  0  0  0  0  0  0  0
   -5.6301   -3.1295   28.2746 C   0  0  0  0  0  0  0  0  0  0  0  0
   -6.8972   -3.0065   27.8016 C   0  0  0  0  0  0  0  0  0  0  0  0
   -7.6514   -1.8448   27.6701 C   0  0  0  0  0  0  0  0  0  0  0  0
  -12.1126    3.2796   27.2886 C   0  0  0  0  0  0  0  0  0  0  0  0
  -13.0919    3.4599   27.9650 C   0  0  0  0  0  0  0  0  0  0  0  0
  -13.1554    3.1564   29.3879 C   0  0  0  0  0  0  0  0  0  0  0  0
  -14.1921    3.4169   30.2378 C   0  0  0  0  0  0  0  0  0  0  0  0
  -15.2283    4.2271   29.6948 C   0  0  0  0  0  0  0  0  0  0  0  0
  -15.2136    4.6306   28.4071 C   0  0  0  0  0  0  0  0  0  0  0  0
  -14.1753    4.3662   27.5640 C   0  0  0  0  0  0  0  0  0  0  0  0
  1  2  1  0
  2  3  1  1
  1  4  2  0
  4  5  1  0
  2  6  1  0
  7  5  1  6
  6  7  1  0
  3  8  1  0
  8  9  2  0
  9 10  1  0
  3 11  1  0
 10 12  1  0
 11 12  2  0
  4 13  1  0
  9 14  1  0
 14 15  1  0
 15 16  2  0
 10 17  1  0
 16 17  1  0
  7 18  1  0
 18 19  1  0
 19 20  2  0
 18 21  1  1
 21 22  2  0
 20 23  1  0
 22 23  1  0
 17 24  1  0
 24 25  2  0
 12 26  1  0
 25 26  1  0
 19 27  1  0
 27 28  2  3
 28 29  1  0
 29 30  2  0
 30 31  1  0
 31 32  2  0
 28 33  1  0
 32 33  1  0
M  END
$$$$
