No_9087-complexes_sdf/6BKW-FPZ/2024-09-17-14-21-01/
     RDKit          3D

 23 25  0  0  0  0  0  0  0  0999 V2000
   -7.2496    3.8871   27.4508 C   0  0  0  0  0  0  0  0  0  0  0  0
   -7.9379    4.9063   27.8518 C   0  0  0  0  0  0  0  0  0  0  0  0
   -9.3460    4.8223   27.8695 C   0  0  0  0  0  0  0  0  0  0  0  0
   -7.8628    2.6163   27.1065 C   0  0  0  0  0  0  0  0  0  0  0  0
   -9.2787    2.5744   27.1970 C   0  0  0  0  0  0  0  0  0  0  0  0
  -10.0108    3.6770   27.6340 C   0  0  0  0  0  0  0  0  0  0  0  0
  -11.4855    3.5731   27.7420 C   0  0  0  0  0  0  0  0  0  0  0  0
  -11.9299    2.8562   28.8221 C   0  0  0  0  0  0  0  0  0  0  0  0
  -13.2938    2.7194   29.1618 C   0  0  0  0  0  0  0  0  0  0  0  0
  -14.1926    3.3847   28.3454 C   0  0  0  0  0  0  0  0  0  0  0  0
  -13.7349    4.1610   27.2718 C   0  0  0  0  0  0  0  0  0  0  0  0
  -12.3654    4.3305   26.9983 C   0  0  0  0  0  0  0  0  0  0  0  0
   -7.1785    1.5872   26.8000 F   0  0  0  0  0  0  0  0  0  0  0  0
   -7.3148    6.0830   28.0970 O   0  0  0  0  0  0  0  0  0  0  0  0
  -13.5934    1.7140   30.0951 C   0  0  0  0  0  0  0  0  0  0  0  0
  -14.0125    2.1476   31.2891 N   0  0  0  0  0  0  0  0  0  0  0  0
  -15.1080    2.5709   31.6162 C   0  0  0  0  0  0  0  0  0  0  0  0
  -15.4930    3.4703   31.9903 C   0  0  0  0  0  0  0  0  0  0  0  0
  -16.8728    3.9301   32.2567 C   0  0  0  0  0  0  0  0  0  0  0  0
  -16.1727    1.4674   31.3362 C   0  0  0  0  0  0  0  0  0  0  0  0
  -17.5202    1.7992   31.5610 C   0  0  0  0  0  0  0  0  0  0  0  0
  -17.8314    3.0302   32.0951 C   0  0  0  0  0  0  0  0  0  0  0  0
  -13.9158    0.5401   29.7230 O   0  0  0  0  0  0  0  0  0  0  0  0
  6  7  1  0
  4 13  1  0
  2 14  1  0
  9 15  1  0
 15 16  1  0
 16 17  1  0
 15 23  2  0
 17 18  2  0
 18 19  1  0
 19 22  2  0
 22 21  1  0
 21 20  2  0
 20 17  1  0
  1  2  2  0
  2  3  1  0
  3  6  2  0
  6  5  1  0
  5  4  2  0
  4  1  1  0
  7  8  2  0
  8  9  1  0
  9 10  2  0
 10 11  1  0
 11 12  2  0
 12  7  1  0
M  END
$$$$
