No_9407-complexes_sdf/6BKW-FPZ/2024-09-17-14-21-01/
     RDKit          3D

 32 36  0  0  0  0  0  0  0  0999 V2000
   -7.7129    4.2099   27.0854 C   0  0  0  0  0  0  0  0  0  0  0  0
   -8.2112    3.0637   26.9225 C   0  0  0  0  0  0  0  0  0  0  0  0
   -8.5108    5.3904   26.9436 C   0  0  0  0  0  0  0  0  0  0  0  0
   -7.9752    6.6981   27.2112 C   0  0  0  0  0  0  0  0  0  0  0  0
   -9.5213    2.8208   26.4688 C   0  0  0  0  0  0  0  0  0  0  0  0
  -10.2979    3.9327   26.2378 C   0  0  0  0  0  0  0  0  0  0  0  0
   -9.7894    5.2123   26.4395 C   0  0  0  0  0  0  0  0  0  0  0  0
   -7.5808    1.7032   27.1517 C   0  0  0  0  0  0  0  0  0  0  0  0
   -7.0903    0.9275   26.5140 C   0  0  0  0  0  0  0  0  0  0  0  0
   -6.3840   -0.2461   26.9725 C   0  0  0  0  0  0  0  0  0  0  0  0
   -5.6740   -0.1544   28.1137 C   0  0  0  0  0  0  0  0  0  0  0  0
   -5.7233    1.0739   28.8384 C   0  0  0  0  0  0  0  0  0  0  0  0
   -6.5138    2.0848   28.3545 C   0  0  0  0  0  0  0  0  0  0  0  0
   -6.9014    6.7847   27.8420 O   0  0  0  0  0  0  0  0  0  0  0  0
   -8.3143    7.8359   26.4647 N   0  0  0  0  0  0  0  0  0  0  0  0
   -4.7777   -1.2356   28.5993 C   0  0  0  0  0  0  0  0  0  0  0  0
   -4.7016   -2.2861   28.2453 C   0  0  0  0  0  0  0  0  0  0  0  0
   -5.5890   -2.6869   27.1265 C   0  0  0  0  0  0  0  0  0  0  0  0
   -6.3230   -1.6050   26.3953 C   0  0  0  0  0  0  0  0  0  0  0  0
   -3.9789   -0.8212   29.9180 C   0  0  0  0  0  0  0  0  0  0  0  0
   -2.7992   -1.3013   29.9586 C   0  0  0  0  0  0  0  0  0  0  0  0
   -2.2894   -1.9454   29.3648 C   0  0  0  0  0  0  0  0  0  0  0  0
   -2.5274   -2.9556   28.3612 C   0  0  0  0  0  0  0  0  0  0  0  0
   -3.6616   -2.8863   27.7291 C   0  0  0  0  0  0  0  0  0  0  0  0
  -11.6416    3.8029   25.6516 C   0  0  2  0  0  0  0  0  0  0  0  0
  -12.5684    3.3883   26.2764 O   0  0  0  0  0  0  0  0  0  0  0  0
  -11.6811    3.6568   24.2324 N   0  0  0  0  0  0  0  0  0  0  0  0
  -12.8892    3.5009   23.5392 C   0  0  0  0  0  0  0  0  0  0  0  0
  -10.5242    3.9396   23.3962 C   0  0  0  0  0  0  0  0  0  0  0  0
  -10.5684    3.5376   22.0966 C   0  0  0  0  0  0  0  0  0  0  0  0
  -11.6292    3.7589   21.3288 C   0  0  0  0  0  0  0  0  0  0  0  0
  -12.8883    3.5470   22.0961 C   0  0  0  0  0  0  0  0  0  0  0  0
  3  4  1  0
  2  8  1  0
  4 14  2  0
  4 15  1  0
 16 20  1  0
 20 21  1  0
 21 22  2  0
 22 23  1  0
 17 24  1  0
 23 24  2  0
  6 25  1  0
 25 26  1  1
 25 27  1  0
 27 28  1  0
 27 29  1  0
 30 31  1  0
 31 32  1  0
 28 32  1  0
 30 29  1  0
 11 16  2  0
 16 17  1  0
 17 18  2  0
 18 19  1  0
 19 10  2  0
  8  9  2  0
  9 10  1  0
 10 11  1  0
 11 12  1  0
 12 13  2  0
 13  8  1  0
  1  2  2  0
  2  5  1  0
  5  6  2  0
  6  7  1  0
  7  3  2  0
  3  1  1  0
M  END
$$$$
