No_9967-complexes_sdf/6BKW-FPZ/2024-09-17-14-21-01/
     RDKit          3D

 10 10  0  0  0  0  0  0  0  0999 V2000
   -7.2496    3.8871   27.4508 C   0  0  0  0  0  0  0  0  0  0  0  0
   -7.9379    4.9063   27.8518 C   0  0  0  0  0  0  0  0  0  0  0  0
   -8.9501    5.3664   27.1340 C   0  0  0  0  0  0  0  0  0  0  0  0
   -7.8297    2.9727   26.4637 C   0  0  0  0  0  0  0  0  0  0  0  0
   -9.6373    4.6098   26.1956 C   0  0  0  0  0  0  0  0  0  0  0  0
   -9.0235    3.4546   25.8531 C   0  0  0  0  0  0  0  0  0  0  0  0
   -9.7212    2.4289   24.7090 Cl  0  0  0  0  0  0  0  0  0  0  0  0
   -6.1785    3.3978   28.0792 F   0  0  0  0  0  0  0  0  0  0  0  0
   -9.5710    6.5744   27.5074 F   0  0  0  0  0  0  0  0  0  0  0  0
   -7.3468    5.7389   28.7806 F   0  0  0  0  0  0  0  0  0  0  0  0
  6  7  1  0
  1  8  1  0
  3  9  1  0
  2 10  1  0
  1  2  2  0
  2  3  1  0
  3  5  2  0
  5  6  1  0
  6  4  2  0
  4  1  1  0
M  END
$$$$
