No_9288-complexes_sdf/6BKW-FPZ/2024-09-17-14-21-01/
     RDKit          3D

 34 38  0  0  0  0  0  0  0  0999 V2000
   -7.7129    4.2099   27.0854 C   0  0  0  0  0  0  0  0  0  0  0  0
   -7.7814    5.1722   27.8972 C   0  0  0  0  0  0  0  0  0  0  0  0
   -7.3155    2.9699   27.6145 C   0  0  0  0  0  0  0  0  0  0  0  0
   -7.6814    1.8188   26.9581 C   0  0  0  0  0  0  0  0  0  0  0  0
   -8.6377    1.9131   25.9324 C   0  0  0  0  0  0  0  0  0  0  0  0
   -9.1866    3.0673   25.6037 C   0  0  0  0  0  0  0  0  0  0  0  0
   -8.8394    4.1752   26.2513 C   0  0  0  0  0  0  0  0  0  0  0  0
   -8.2486    6.4747   27.5719 N   0  0  0  0  0  0  0  0  0  0  0  0
   -9.0953    6.6391   26.5260 C   0  0  0  0  0  0  0  0  0  0  0  0
   -9.4505    5.4775   25.8556 C   0  0  0  0  0  0  0  0  0  0  0  0
   -7.0267    0.5350   27.2749 C   0  0  0  0  0  0  0  0  0  0  0  0
   -5.8116    0.4718   27.9554 C   0  0  0  0  0  0  0  0  0  0  0  0
   -5.2741   -0.7395   28.3747 C   0  0  0  0  0  0  0  0  0  0  0  0
   -5.9973   -1.8684   28.0777 C   0  0  0  0  0  0  0  0  0  0  0  0
   -7.5906   -0.7459   27.1889 C   0  0  0  0  0  0  0  0  0  0  0  0
   -7.1747   -1.8581   27.5774 C   0  0  0  0  0  0  0  0  0  0  0  0
   -3.9185   -0.7108   29.0553 C   0  0  2  0  0  0  0  0  0  0  0  0
   -2.7801   -1.2570   28.6050 C   0  0  1  0  0  0  0  0  0  0  0  0
   -3.8518   -0.0795   30.4171 C   0  0  0  0  0  0  0  0  0  0  0  0
   -3.9171   -0.9103   31.6053 C   0  0  0  0  0  0  0  0  0  0  0  0
   -4.3329   -1.9799   31.5724 C   0  0  0  0  0  0  0  0  0  0  0  0
   -5.1788   -2.4030   32.2244 C   0  0  0  0  0  0  0  0  0  0  0  0
   -5.7232   -3.7862   32.3704 C   0  0  0  0  0  0  0  0  0  0  0  0
   -2.4040   -0.9899   27.5096 C   0  0  0  0  0  0  0  0  0  0  0  0
   -2.2103    0.3283   27.0760 C   0  0  0  0  0  0  0  0  0  0  0  0
   -2.3290   -2.0065   26.4572 C   0  0  0  0  0  0  0  0  0  0  0  0
   -5.1639   -4.5936   31.4303 C   0  0  0  0  0  0  0  0  0  0  0  0
   -4.2089   -4.1898   30.5866 C   0  0  0  0  0  0  0  0  0  0  0  0
   -3.7331   -2.9329   30.6845 C   0  0  0  0  0  0  0  0  0  0  0  0
   -1.9242   -2.0052   29.5189 C   0  0  0  0  0  0  0  0  0  0  0  0
   -2.4424   -2.7549   30.1572 C   0  0  0  0  0  0  0  0  0  0  0  0
   -3.6402   -5.2184   29.6784 C   0  0  0  0  0  0  0  0  0  0  0  0
   -4.2551   -5.4075   28.4527 C   0  0  0  0  0  0  0  0  0  0  0  0
   -5.3071   -5.7089   28.2387 C   0  0  0  0  0  0  0  0  0  0  0  0
  4 11  1  0
 17 13  1  1
 17 18  1  0
 17 19  1  0
 19 20  1  0
 20 21  1  0
 18 24  1  1
 24 25  1  0
 24 26  1  0
 18 30  1  0
 29 31  1  0
 30 31  1  0
 28 32  1  0
 32 33  1  0
 33 34  2  0
  1  2  2  0
  2  8  1  0
  8  9  2  0
  9 10  1  0
 10  7  2  0
 11 12  2  0
 12 13  1  0
 13 14  2  0
 14 16  1  0
 16 15  2  0
 15 11  1  0
 21 22  2  0
 22 23  1  0
 23 27  2  0
 27 28  1  0
 28 29  2  0
 29 21  1  0
  1  3  1  0
  3  4  2  0
  4  5  1  0
  5  6  2  0
  6  7  1  0
  7  1  1  0
M  END
$$$$
