No_9942-complexes_sdf/6BKW-FPZ/2024-09-17-14-21-01/
     RDKit          3D

 33 39  0  0  0  0  0  0  0  0999 V2000
   -7.7129    4.2099   27.0854 C   0  0  0  0  0  0  0  0  0  0  0  0
   -8.9133    4.4736   27.0998 C   0  0  0  0  0  0  0  0  0  0  0  0
   -9.4643    5.5426   27.7628 C   0  0  0  0  0  0  0  0  0  0  0  0
   -7.2009    2.9448   26.6134 C   0  0  0  0  0  0  0  0  0  0  0  0
   -8.0533    1.9370   26.8587 C   0  0  0  0  0  0  0  0  0  0  0  0
   -9.4086    2.0889   26.9556 C   0  0  0  0  0  0  0  0  0  0  0  0
   -9.8568    3.3588   26.9690 C   0  0  0  0  0  0  0  0  0  0  0  0
   -7.5008    0.5460   26.5828 C   0  0  0  0  0  0  0  0  0  0  0  0
   -7.8501   -0.3741   26.8072 C   0  0  0  0  0  0  0  0  0  0  0  0
   -9.2643   -0.5749   27.3773 C   0  0  0  0  0  0  0  0  0  0  0  0
  -10.1091    0.8708   27.3321 C   0  0  0  0  0  0  0  0  0  0  0  0
  -11.4424    0.8553   27.8041 C   0  0  0  0  0  0  0  0  0  0  0  0
  -12.0451    1.9934   27.9869 C   0  0  0  0  0  0  0  0  0  0  0  0
  -11.2686    3.3246   27.6199 C   0  0  0  0  0  0  0  0  0  0  0  0
  -11.8620    4.6412   27.9995 C   0  0  0  0  0  0  0  0  0  0  0  0
  -10.9374    5.7657   27.8204 N   0  0  0  0  0  0  0  0  0  0  0  0
  -12.9646    4.8670   28.2183 F   0  0  0  0  0  0  0  0  0  0  0  0
  -12.3215    0.0347   26.8045 C   0  0  2  0  0  0  0  0  0  0  0  0
  -13.6660    0.1920   26.9496 C   0  0  1  0  0  0  0  0  0  0  0  0
  -14.3045    0.3051   28.0016 C   0  0  0  0  0  0  0  0  0  0  0  0
  -14.2657    1.6342   28.7180 C   0  0  0  0  0  0  0  0  0  0  0  0
  -13.3769    2.3946   28.5293 C   0  0  0  0  0  0  0  0  0  0  0  0
   -9.9829   -1.6761   27.7703 C   0  0  0  0  0  0  0  0  0  0  0  0
   -9.2362   -2.3776   28.7017 C   0  0  0  0  0  0  0  0  0  0  0  0
   -9.9546   -3.3578   29.5376 C   0  0  0  0  0  0  0  0  0  0  0  0
  -11.2611   -3.5744   29.2105 C   0  0  0  0  0  0  0  0  0  0  0  0
  -11.9361   -2.8427   28.2655 C   0  0  0  0  0  0  0  0  0  0  0  0
  -11.2775   -1.8564   27.5973 C   0  0  0  0  0  0  0  0  0  0  0  0
  -11.7563   -1.8192   26.1772 C   0  0  0  0  0  0  0  0  0  0  0  0
  -11.8465   -1.1443   25.9568 C   0  0  0  0  0  0  0  0  0  0  0  0
  -14.4050    0.3474   25.6709 C   0  0  0  0  0  0  0  0  0  0  0  0
  -14.4158   -0.1271   24.7895 C   0  0  0  0  0  0  0  0  0  0  0  0
  -15.1951    0.0761   23.5952 C   0  0  0  0  0  0  0  0  0  0  0  0
 15 17  1  0
 12 18  1  0
 18 19  1  0
 19 20  1  1
 20 21  1  0
 13 22  1  0
 21 22  2  0
 10 23  1  0
 28 29  1  0
 18 30  1  1
 29 30  1  0
 19 31  1  0
 31 32  2  3
 32 33  1  0
 23 24  2  0
 24 25  1  0
 25 26  2  0
 26 27  1  0
 27 28  2  0
 28 23  1  0
  1  2  2  0
  5  4  2  0
  4  1  1  0
  2  3  1  0
  3 16  2  0
 16 15  1  0
 15 14  2  0
  7  2  1  0
  5  6  1  0
 11 10  2  0
 10  9  1  0
  9  8  2  0
  8  5  1  0
  6  7  2  0
  7 14  1  0
 14 13  1  0
 13 12  2  0
 12 11  1  0
 11  6  1  0
M  END
$$$$
