No_913-complexes_sdf/6BKW-FPZ/2024-09-17-14-21-01/
     RDKit          3D

 16 17  0  0  0  0  0  0  0  0999 V2000
   -7.9040    3.9820   27.1177 C   0  0  0  0  0  0  0  0  0  0  0  0
   -8.2057    2.8231   26.8733 C   0  0  0  0  0  0  0  0  0  0  0  0
   -8.7695    5.0740   26.7916 C   0  0  0  0  0  0  0  0  0  0  0  0
   -9.9618    4.7598   26.1630 C   0  0  0  0  0  0  0  0  0  0  0  0
   -9.4200    2.4524   26.2849 C   0  0  0  0  0  0  0  0  0  0  0  0
  -10.2590    3.4815   25.9250 C   0  0  0  0  0  0  0  0  0  0  0  0
   -8.4259    6.3307   27.0704 F   0  0  0  0  0  0  0  0  0  0  0  0
   -7.2911    1.3711   27.3107 Cl  0  0  0  0  0  0  0  0  0  0  0  0
  -11.5357    3.3992   25.1226 C   0  0  0  0  0  0  0  0  0  0  0  0
  -12.6439    3.3389   25.8307 C   0  0  0  0  0  0  0  0  0  0  0  0
  -12.6108    3.5491   27.2951 C   0  0  0  0  0  0  0  0  0  0  0  0
  -13.8443    3.6786   28.0642 C   0  0  0  0  0  0  0  0  0  0  0  0
  -13.6578    3.7424   29.4641 C   0  0  0  0  0  0  0  0  0  0  0  0
  -12.3772    3.4991   30.0502 C   0  0  0  0  0  0  0  0  0  0  0  0
  -11.4891    3.3489   28.1389 C   0  0  0  0  0  0  0  0  0  0  0  0
  -11.4372    3.2984   29.4745 C   0  0  0  0  0  0  0  0  0  0  0  0
  3  7  1  0
  2  8  1  0
  6  9  1  0
  9 10  2  3
 10 11  1  0
 11 12  2  0
 12 13  1  0
 13 14  2  0
 14 16  1  0
 16 15  2  0
 15 11  1  0
  1  2  2  0
  2  5  1  0
  5  6  2  0
  6  4  1  0
  4  3  2  0
  3  1  1  0
M  END
$$$$
