No_9968-complexes_sdf/6BKW-FPZ/2024-09-17-14-21-01/
     RDKit          3D

 16 18  0  0  0  0  0  0  0  0999 V2000
   -7.9040    3.9820   27.1177 C   0  0  0  0  0  0  0  0  0  0  0  0
   -9.0711    4.3164   27.0630 C   0  0  0  0  0  0  0  0  0  0  0  0
   -9.5182    5.5541   27.5777 C   0  0  0  0  0  0  0  0  0  0  0  0
   -6.9424    4.7983   27.8424 C   0  0  0  0  0  0  0  0  0  0  0  0
   -7.3526    5.9739   28.3909 C   0  0  0  0  0  0  0  0  0  0  0  0
   -8.6479    6.3742   28.2170 C   0  0  0  0  0  0  0  0  0  0  0  0
  -10.0793    3.4689   26.3368 C   0  0  0  0  0  0  0  0  0  0  0  0
   -9.6567    2.5965   25.4484 C   0  0  0  0  0  0  0  0  0  0  0  0
  -10.5006    1.9727   24.5071 C   0  0  0  0  0  0  0  0  0  0  0  0
   -9.9741    1.1029   23.5107 C   0  0  0  0  0  0  0  0  0  0  0  0
  -10.6752    0.7998   22.3915 C   0  0  0  0  0  0  0  0  0  0  0  0
  -12.0056    1.2060   22.2944 C   0  0  0  0  0  0  0  0  0  0  0  0
  -12.5220    2.0279   23.2162 C   0  0  0  0  0  0  0  0  0  0  0  0
  -11.7347    2.4872   24.2870 C   0  0  0  0  0  0  0  0  0  0  0  0
  -11.4642    3.7902   26.4123 C   0  0  0  0  0  0  0  0  0  0  0  0
  -12.2880    3.3500   25.2886 C   0  0  0  0  0  0  0  0  0  0  0  0
  2  7  1  0
  1  2  2  0
  2  3  1  0
  3  6  2  0
  6  5  1  0
  5  4  2  0
  4  1  1  0
  9 10  2  0
 10 11  1  0
 11 12  2  0
 12 13  1  0
 13 14  2  0
  7  8  2  0
  8  9  1  0
  9 14  1  0
 14 16  1  0
 16 15  2  0
 15  7  1  0
M  END
$$$$
