No_9234-complexes_sdf/6BKW-FPZ/2024-09-17-14-21-01/
     RDKit          3D

 10 10  0  0  0  0  0  0  0  0999 V2000
   -7.7129    4.2099   27.0854 C   0  0  0  0  0  0  0  0  0  0  0  0
   -8.9133    4.4736   27.0998 C   0  0  0  0  0  0  0  0  0  0  0  0
   -9.4643    5.5426   27.7628 C   0  0  0  0  0  0  0  0  0  0  0  0
   -7.2009    2.9448   26.6134 C   0  0  0  0  0  0  0  0  0  0  0  0
   -8.0533    1.9370   26.8587 C   0  0  0  0  0  0  0  0  0  0  0  0
   -9.4086    2.0889   26.9556 C   0  0  0  0  0  0  0  0  0  0  0  0
   -9.8568    3.3588   26.9690 C   0  0  0  0  0  0  0  0  0  0  0  0
   -7.4909    0.5406   26.5985 C   0  0  0  0  0  0  0  0  0  0  0  0
   -6.5264    0.2141   27.2086 O   0  0  0  0  0  0  0  0  0  0  0  0
   -8.1943   -0.2730   25.9507 O   0  0  0  0  0  0  0  0  0  0  0  0
  1  2  1  0
  2  3  2  0
  1  4  1  0
  4  5  1  0
  5  6  1  0
  2  7  1  0
  6  7  1  0
  5  8  1  0
  8  9  2  0
  8 10  1  0
M  END
$$$$
