No_991-complexes_sdf/6BKW-FPZ/2024-09-17-14-21-01/
     RDKit          3D

 40 45  0  0  0  0  0  0  0  0999 V2000
   -7.9040    3.9820   27.1177 C   0  0  0  0  0  0  0  0  0  0  0  0
   -7.8663    4.8694   27.9238 C   0  0  0  0  0  0  0  0  0  0  0  0
   -7.4698    2.6989   27.4277 C   0  0  0  0  0  0  0  0  0  0  0  0
   -7.9683    1.5964   26.8266 C   0  0  1  0  0  0  0  0  0  0  0  0
   -8.9447    1.7923   25.8533 C   0  0  0  0  0  0  0  0  0  0  0  0
   -9.4405    2.9988   25.5757 C   0  0  1  0  0  0  0  0  0  0  0  0
   -8.9424    4.1117   26.2388 C   0  0  0  0  0  0  0  0  0  0  0  0
   -8.2732    6.2141   27.6484 N   0  0  0  0  0  0  0  0  0  0  0  0
   -9.1540    6.5068   26.6734 C   0  0  0  0  0  0  0  0  0  0  0  0
   -9.5312    5.3927   25.9147 C   0  0  0  0  0  0  0  0  0  0  0  0
   -7.3887    0.2740   27.0971 C   0  0  0  0  0  0  0  0  0  0  0  0
   -6.0711    0.1202   27.4872 C   0  0  0  0  0  0  0  0  0  0  0  0
   -5.5432   -1.1090   27.8369 C   0  0  0  0  0  0  0  0  0  0  0  0
   -6.3820   -2.1976   27.7621 C   0  0  0  0  0  0  0  0  0  0  0  0
   -7.9843   -0.9964   27.1431 C   0  0  0  0  0  0  0  0  0  0  0  0
   -7.6024   -2.1179   27.4498 C   0  0  0  0  0  0  0  0  0  0  0  0
   -4.0895   -1.1330   28.2751 C   0  0  0  0  0  0  0  0  0  0  0  0
   -3.2487   -0.1597   27.7882 C   0  0  0  0  0  0  0  0  0  0  0  0
   -3.8850    1.0829   27.3643 C   0  0  0  0  0  0  0  0  0  0  0  0
   -5.1410    1.2136   27.1958 C   0  0  0  0  0  0  0  0  0  0  0  0
  -10.4109    3.0978   24.4666 C   0  0  0  0  0  0  0  0  0  0  0  0
  -11.5296    3.7197   24.6409 C   0  0  0  0  0  0  0  0  0  0  0  0
  -10.0854    2.5250   23.2528 C   0  0  0  0  0  0  0  0  0  0  0  0
  -10.8704    2.6571   22.1648 C   0  0  0  0  0  0  0  0  0  0  0  0
  -12.4315    3.9162   23.5205 C   0  0  0  0  0  0  0  0  0  0  0  0
  -12.0640    3.3374   22.2851 C   0  0  0  0  0  0  0  0  0  0  0  0
  -10.4310    1.8919   20.7000 Cl  0  0  0  0  0  0  0  0  0  0  0  0
   -3.5567   -2.2754   28.7538 O   0  0  0  0  0  0  0  0  0  0  0  0
   -2.6481   -2.1065   29.5596 C   0  0  0  0  0  0  0  0  0  0  0  0
   -2.6094   -2.9002   30.6046 C   0  0  0  0  0  0  0  0  0  0  0  0
   -2.9771   -2.7502   31.5411 C   0  0  0  0  0  0  0  0  0  0  0  0
   -3.6044   -1.8761   32.1069 C   0  0  0  0  0  0  0  0  0  0  0  0
   -4.2298   -1.6152   33.4047 C   0  0  0  0  0  0  0  0  0  0  0  0
   -5.2564   -2.0078   33.7566 C   0  0  0  0  0  0  0  0  0  0  0  0
   -6.0270   -2.7844   32.8948 C   0  0  0  0  0  0  0  0  0  0  0  0
   -5.7543   -3.4115   32.1064 C   0  0  0  0  0  0  0  0  0  0  0  0
   -6.5987   -4.3914   31.3814 C   0  0  0  0  0  0  0  0  0  0  0  0
   -7.9444   -4.1104   31.3630 C   0  0  0  0  0  0  0  0  0  0  0  0
   -8.4487   -3.1724   32.2952 C   0  0  0  0  0  0  0  0  0  0  0  0
   -7.6149   -2.5178   33.1317 C   0  0  0  0  0  0  0  0  0  0  0  0
  1  3  1  0
  3  4  1  0
  4  5  1  0
  5  6  1  0
  6  7  1  0
  4 11  1  6
  6 21  1  6
 24 27  1  0
 17 28  1  0
 28 29  1  0
 29 30  2  3
 30 31  1  0
 31 32  2  3
 32 33  1  0
 33 34  2  3
 34 35  1  0
  1  2  2  0
  2  8  1  0
  8  9  2  0
  9 10  1  0
 10  7  2  0
  7  1  1  0
 35 36  2  0
 36 37  1  0
 37 38  2  0
 38 39  1  0
 39 40  2  0
 40 35  1  0
 11 12  2  0
 13 14  2  0
 14 16  1  0
 16 15  2  0
 15 11  1  0
 12 13  1  0
 13 17  1  0
 17 18  2  0
 18 19  1  0
 19 20  2  0
 20 12  1  0
 21 22  2  0
 22 25  1  0
 25 26  2  0
 26 24  1  0
 24 23  2  0
 23 21  1  0
M  END
$$$$
