No_9699-complexes_sdf/6BKW-FPZ/2024-09-17-14-21-01/
     RDKit          3D

 26 29  0  0  0  0  0  0  0  0999 V2000
   -7.7129    4.2099   27.0854 C   0  0  0  0  0  0  0  0  0  0  0  0
   -7.7814    5.1722   27.8972 C   0  0  0  0  0  0  0  0  0  0  0  0
   -8.7889    3.2468   27.2220 C   0  0  0  0  0  0  0  0  0  0  0  0
   -8.5940    1.9755   26.6525 C   0  0  0  0  0  0  0  0  0  0  0  0
   -9.4990    1.3566   25.9026 C   0  0  0  0  0  0  0  0  0  0  0  0
   -8.9326    5.8778   28.0043 C   0  0  0  0  0  0  0  0  0  0  0  0
   -9.9704    3.6991   27.7210 C   0  0  0  0  0  0  0  0  0  0  0  0
  -10.1124    5.0409   28.1733 C   0  0  0  0  0  0  0  0  0  0  0  0
   -9.2379    0.1258   25.3247 C   0  0  0  0  0  0  0  0  0  0  0  0
   -7.9998   -0.4521   25.4824 C   0  0  0  0  0  0  0  0  0  0  0  0
   -7.0466    0.0884   26.3174 C   0  0  0  0  0  0  0  0  0  0  0  0
   -7.2848    1.3339   26.9371 C   0  0  0  0  0  0  0  0  0  0  0  0
  -11.0993    2.7770   27.9548 C   0  0  0  0  0  0  0  0  0  0  0  0
  -11.2715    1.7305   28.0622 C   0  0  0  0  0  0  0  0  0  0  0  0
  -12.4058    0.9407   28.4825 C   0  0  0  0  0  0  0  0  0  0  0  0
  -13.4303    1.7216   28.8957 C   0  0  0  0  0  0  0  0  0  0  0  0
  -12.5139    3.4096   28.3814 C   0  0  1  0  0  0  0  0  0  0  0  0
  -12.4345   -0.5231   28.5558 C   0  0  0  0  0  0  0  0  0  0  0  0
  -11.7700   -1.2930   28.0340 N   0  0  0  0  0  0  0  0  0  0  0  0
  -10.9390   -1.3273   27.3625 C   0  0  0  0  0  0  0  0  0  0  0  0
  -10.1048   -2.3154   27.0598 C   0  0  0  0  0  0  0  0  0  0  0  0
  -10.5166   -3.2499   27.9548 C   0  0  0  0  0  0  0  0  0  0  0  0
  -11.6100   -2.6495   28.6215 C   0  0  0  0  0  0  0  0  0  0  0  0
  -13.5181   -0.8634   29.3484 O   0  0  0  0  0  0  0  0  0  0  0  0
  -13.4753    2.9427   28.8690 C   0  0  0  0  0  0  0  0  0  0  0  0
  -14.6253    3.8042   29.3320 C   0  0  0  0  0  0  0  0  0  0  0  0
  3  4  1  0
  7 13  1  0
 13 14  2  0
 14 15  1  0
 15 16  2  0
 13 17  1  0
 16 17  1  0
 15 18  1  0
 18 19  1  0
 19 20  1  0
 20 21  2  0
 21 22  1  0
 19 23  1  0
 22 23  2  0
 18 24  2  0
 17 25  1  1
 25 26  1  0
  4  5  2  0
  5  9  1  0
  9 10  2  0
 10 11  1  0
 11 12  2  0
 12  4  1  0
  1  2  2  0
  2  6  1  0
  6  8  2  0
  8  7  1  0
  7  3  2  0
  3  1  1  0
M  END
$$$$
