No_9165-complexes_sdf/6BKW-FPZ/2024-09-17-14-21-01/
     RDKit          3D

 20 21  0  0  0  0  0  0  0  0999 V2000
   -7.7129    4.2099   27.0854 C   0  0  0  0  0  0  0  0  0  0  0  0
   -7.7814    5.1722   27.8972 C   0  0  0  0  0  0  0  0  0  0  0  0
   -8.8998    3.8713   26.3707 C   0  0  0  0  0  0  0  0  0  0  0  0
   -8.9563    2.6796   25.5490 C   0  0  0  0  0  0  0  0  0  0  0  0
   -8.8131    6.1334   27.9344 C   0  0  0  0  0  0  0  0  0  0  0  0
   -9.9804    5.8121   27.1929 C   0  0  0  0  0  0  0  0  0  0  0  0
   -9.9861    4.6836   26.4532 C   0  0  0  0  0  0  0  0  0  0  0  0
   -9.8352    2.5435   24.5126 C   0  0  0  0  0  0  0  0  0  0  0  0
   -9.8680    1.4156   23.7412 C   0  0  0  0  0  0  0  0  0  0  0  0
   -8.8988    0.3731   23.9922 C   0  0  0  0  0  0  0  0  0  0  0  0
   -8.0409    0.4782   25.0443 C   0  0  0  0  0  0  0  0  0  0  0  0
   -8.0131    1.6137   25.8514 C   0  0  0  0  0  0  0  0  0  0  0  0
  -10.6766    1.2827   22.7117 F   0  0  0  0  0  0  0  0  0  0  0  0
   -6.6651    5.5679   28.6383 O   0  0  0  0  0  0  0  0  0  0  0  0
   -6.9346   -0.7870   25.3523 Cl  0  0  0  0  0  0  0  0  0  0  0  0
   -8.9329   -0.6828   23.1900 F   0  0  0  0  0  0  0  0  0  0  0  0
  -10.6744    3.5265   24.1885 F   0  0  0  0  0  0  0  0  0  0  0  0
   -7.2085    1.6591   26.9159 O   0  0  0  0  0  0  0  0  0  0  0  0
   -7.3874    0.7262   27.9384 C   0  0  0  0  0  0  0  0  0  0  0  0
   -6.6214   -0.4890   27.7213 C   0  0  0  0  0  0  0  0  0  0  0  0
  3  4  1  0
  9 13  1  0
  2 14  1  0
 11 15  1  0
 10 16  1  0
  8 17  1  0
 12 18  1  0
 18 19  1  0
 19 20  1  0
  4  8  2  0
  8  9  1  0
  9 10  2  0
 10 11  1  0
 11 12  2  0
 12  4  1  0
  1  2  2  0
  2  5  1  0
  5  6  2  0
  6  7  1  0
  7  3  2  0
  3  1  1  0
M  END
$$$$
