No_9901-complexes_sdf/6BKW-FPZ/2024-09-17-14-21-01/
     RDKit          3D

 40 45  0  0  0  0  0  0  0  0999 V2000
   -7.9040    3.9820   27.1177 C   0  0  0  0  0  0  0  0  0  0  0  0
   -7.8663    4.8694   27.9238 C   0  0  0  0  0  0  0  0  0  0  0  0
   -9.0491    3.8523   26.2542 C   0  0  0  0  0  0  0  0  0  0  0  0
   -8.7661    5.9491   27.9690 C   0  0  0  0  0  0  0  0  0  0  0  0
   -9.9295    4.8502   26.2323 C   0  0  0  0  0  0  0  0  0  0  0  0
   -9.8077    5.9288   27.0933 C   0  0  0  0  0  0  0  0  0  0  0  0
   -9.0726    2.7074   25.3087 C   0  0  0  0  0  0  0  0  0  0  0  0
   -8.6026    1.4628   25.7488 C   0  0  0  0  0  0  0  0  0  0  0  0
   -9.8167    2.8097   24.1154 C   0  0  0  0  0  0  0  0  0  0  0  0
   -8.6113    0.3858   24.8930 C   0  0  0  0  0  0  0  0  0  0  0  0
   -9.9022    1.7055   23.2864 C   0  0  0  0  0  0  0  0  0  0  0  0
   -9.2763    0.4929   23.6913 C   0  0  0  0  0  0  0  0  0  0  0  0
   -9.3517   -0.6625   22.7319 C   0  0  0  0  0  0  0  0  0  0  0  0
   -8.2663   -1.3052   22.4570 C   0  0  0  0  0  0  0  0  0  0  0  0
   -7.0242   -0.9882   23.1642 C   0  0  0  0  0  0  0  0  0  0  0  0
   -6.9363   -0.4632   24.1827 C   0  0  0  0  0  0  0  0  0  0  0  0
   -7.3871    0.2307   25.0737 C   0  0  0  0  0  0  0  0  0  0  0  0
   -8.6098    1.1257   27.2305 C   0  0  0  0  0  0  0  0  0  0  0  0
  -10.6032    1.9365   22.0349 C   0  0  2  0  0  0  0  0  0  0  0  0
  -10.7564    1.2330   21.2079 F   0  0  0  0  0  0  0  0  0  0  0  0
  -10.2202    3.2306   21.6126 C   0  0  0  0  0  0  0  0  0  0  0  0
  -10.0103    3.7029   20.4760 C   0  0  0  0  0  0  0  0  0  0  0  0
  -10.0303    5.1514   20.1284 C   0  0  0  0  0  0  0  0  0  0  0  0
  -10.5947    5.8476   21.2135 C   0  0  0  0  0  0  0  0  0  0  0  0
  -10.8695    4.5167   22.3410 C   0  0  0  0  0  0  0  0  0  0  0  0
   -7.8111    0.1869   27.7970 C   0  0  0  0  0  0  0  0  0  0  0  0
   -6.9421   -0.0448   26.6668 C   0  0  0  0  0  0  0  0  0  0  0  0
   -5.5093    0.4431   26.9104 C   0  0  0  0  0  0  0  0  0  0  0  0
   -4.7706   -0.2178   27.9695 C   0  0  0  0  0  0  0  0  0  0  0  0
   -3.9302   -0.8329   27.8331 C   0  0  0  0  0  0  0  0  0  0  0  0
   -3.4043   -1.2405   26.6115 C   0  0  0  0  0  0  0  0  0  0  0  0
   -2.2657   -2.0321   26.4288 C   0  0  0  0  0  0  0  0  0  0  0  0
   -1.5077   -2.3780   27.5191 C   0  0  0  0  0  0  0  0  0  0  0  0
   -1.8532   -1.9709   28.8065 C   0  0  0  0  0  0  0  0  0  0  0  0
   -2.9576   -1.2100   29.0258 C   0  0  0  0  0  0  0  0  0  0  0  0
   -3.3716   -0.7132   30.3310 C   0  0  0  0  0  0  0  0  0  0  0  0
   -2.8388   -0.3353   31.1575 C   0  0  0  0  0  0  0  0  0  0  0  0
   -4.8285   -0.9642   30.5548 C   0  0  0  0  0  0  0  0  0  0  0  0
   -3.2566    0.1191   32.4892 C   0  0  0  0  0  0  0  0  0  0  0  0
   -5.3382   -0.6892   31.8157 C   0  0  0  0  0  0  0  0  0  0  0  0
  3  7  1  0
 12 13  1  0
 13 14  2  0
 14 15  1  0
 15 16  2  0
 16 17  1  0
 11 19  1  0
 19 20  1  6
 19 21  1  0
 21 22  2  0
 22 23  1  0
 23 24  2  0
 21 25  1  0
 24 25  1  0
 27 28  1  0
 28 29  1  0
 35 36  1  0
 36 37  2  3
 36 38  1  0
 37 39  1  0
 38 40  2  0
 29 30  1  0
 10 17  1  0
 17 27  2  0
 27 26  1  0
 26 18  2  0
 18  8  1  0
  1  2  2  0
  2  4  1  0
  4  6  2  0
  6  5  1  0
  5  3  2  0
  3  1  1  0
 30 31  2  0
 31 32  1  0
 32 33  2  0
 33 34  1  0
 34 35  2  0
 35 30  1  0
  7  8  2  0
  8 10  1  0
 10 12  2  0
 12 11  1  0
 11  9  2  0
  9  7  1  0
M  END
$$$$
