No_9274-complexes_sdf/6BKW-FPZ/2024-09-17-14-21-01/
     RDKit          3D

 18 19  0  0  0  0  0  0  0  0999 V2000
   -7.2496    3.8871   27.4508 C   0  0  0  0  0  0  0  0  0  0  0  0
   -7.6161    2.7143   27.1523 C   0  0  0  0  0  0  0  0  0  0  0  0
   -7.1618    1.8631   27.5232 C   0  0  0  0  0  0  0  0  0  0  0  0
   -6.0841    4.1113   28.0941 C   0  0  0  0  0  0  0  0  0  0  0  0
   -5.8038    1.7595   28.0571 C   0  0  0  0  0  0  0  0  0  0  0  0
   -5.3501    3.0307   28.3267 N   0  0  0  0  0  0  0  0  0  0  0  0
   -9.0751    2.5943   26.5457 C   0  0  0  0  0  0  0  0  0  0  0  0
   -9.8973    3.7053   26.4118 C   0  0  0  0  0  0  0  0  0  0  0  0
  -11.1153    3.5951   25.7907 C   0  0  0  0  0  0  0  0  0  0  0  0
  -11.5334    2.4063   25.2769 C   0  0  0  0  0  0  0  0  0  0  0  0
   -9.5945    1.4303   26.0483 C   0  0  0  0  0  0  0  0  0  0  0  0
  -10.6221    1.3839   25.5444 C   0  0  0  0  0  0  0  0  0  0  0  0
   -5.0551    0.7642   28.2982 F   0  0  0  0  0  0  0  0  0  0  0  0
  -12.8311    2.3315   24.6545 C   0  0  0  0  0  0  0  0  0  0  0  0
  -12.9751    1.9965   23.5215 C   0  0  0  0  0  0  0  0  0  0  0  0
  -11.7904    1.6737   22.6743 C   0  0  0  0  0  0  0  0  0  0  0  0
  -10.6483    1.8754   23.0052 C   0  0  0  0  0  0  0  0  0  0  0  0
   -9.7461    2.2318   23.5587 C   0  0  0  0  0  0  0  0  0  0  0  0
  2  7  1  0
  5 13  1  0
 10 14  1  0
 14 15  2  3
 15 16  1  0
 16 17  2  3
 17 18  1  0
  7  8  2  0
  8  9  1  0
  9 10  2  0
 10 12  1  0
 12 11  2  0
 11  7  1  0
  1  2  2  0
  2  3  1  0
  3  5  2  0
  5  6  1  0
  6  4  2  0
  4  1  1  0
M  END
$$$$
