No_9303-complexes_sdf/6BKW-FPZ/2024-09-17-14-21-01/
     RDKit          3D

 40 46  0  0  0  0  0  0  0  0999 V2000
   -7.7129    4.2099   27.0854 C   0  0  0  0  0  0  0  0  0  0  0  0
   -7.7814    5.1722   27.8972 C   0  0  0  0  0  0  0  0  0  0  0  0
   -8.8998    3.8713   26.3707 C   0  0  0  0  0  0  0  0  0  0  0  0
   -9.9938    4.6774   26.5446 C   0  0  0  0  0  0  0  0  0  0  0  0
   -8.7789    6.1536   27.9256 C   0  0  0  0  0  0  0  0  0  0  0  0
   -9.9428    5.8398   27.2296 C   0  0  0  0  0  0  0  0  0  0  0  0
   -8.9119    2.6447   25.5685 C   0  0  0  0  0  0  0  0  0  0  0  0
   -9.7255    1.8263   25.8239 N   0  0  0  0  0  0  0  0  0  0  0  0
  -10.6069    1.6210   26.3234 C   0  0  0  0  0  0  0  0  0  0  0  0
  -11.5820    2.1455   26.5165 C   0  0  0  0  0  0  0  0  0  0  0  0
  -12.7674    1.7185   27.3893 C   0  0  0  0  0  0  0  0  0  0  0  0
  -12.5820    0.4851   28.0209 C   0  0  0  0  0  0  0  0  0  0  0  0
  -11.4496   -0.2609   27.8869 C   0  0  0  0  0  0  0  0  0  0  0  0
  -10.4491    0.2099   27.1575 C   0  0  0  0  0  0  0  0  0  0  0  0
   -9.5098    0.7120   24.6209 C   0  0  1  0  0  0  0  0  0  0  0  0
   -9.9748    1.1848   23.3744 C   0  0  0  0  0  0  0  0  0  0  0  0
  -10.8156    2.0024   23.2221 C   0  0  0  0  0  0  0  0  0  0  0  0
  -11.3123    2.4093   22.1958 C   0  0  0  0  0  0  0  0  0  0  0  0
  -10.6613    1.8925   20.9978 C   0  0  0  0  0  0  0  0  0  0  0  0
   -9.4070    0.7327   22.1688 C   0  0  0  0  0  0  0  0  0  0  0  0
   -9.7267    1.0953   21.0253 C   0  0  0  0  0  0  0  0  0  0  0  0
   -8.2029   -0.2707   22.1380 C   0  0  0  0  0  0  0  0  0  0  0  0
   -7.0867   -0.0352   22.9922 C   0  0  0  0  0  0  0  0  0  0  0  0
   -8.3661   -1.4898   21.4951 C   0  0  0  0  0  0  0  0  0  0  0  0
   -7.2589   -2.3383   21.3296 C   0  0  0  0  0  0  0  0  0  0  0  0
   -5.9912   -0.9603   22.9579 C   0  0  0  0  0  0  0  0  0  0  0  0
   -6.1082   -2.0871   22.1515 C   0  0  0  0  0  0  0  0  0  0  0  0
   -9.2046   -0.5740   27.0614 C   0  0  0  0  0  0  0  0  0  0  0  0
   -8.9492   -1.4915   27.9616 C   0  0  0  0  0  0  0  0  0  0  0  0
   -7.7192   -2.1629   27.9601 C   0  0  0  0  0  0  0  0  0  0  0  0
   -6.7748   -1.7593   27.0414 C   0  0  0  0  0  0  0  0  0  0  0  0
   -6.9893   -0.7482   26.1973 C   0  0  0  0  0  0  0  0  0  0  0  0
   -8.2034   -0.1028   26.2131 C   0  0  0  0  0  0  0  0  0  0  0  0
   -8.4360    0.5929   24.9918 C   0  0  1  0  0  0  0  0  0  0  0  0
   -7.3099    0.6649   24.1558 O   0  0  0  0  0  0  0  0  0  0  0  0
   -5.3954   -2.4219   27.1401 C   0  0  0  0  0  0  0  0  0  0  0  0
   -4.9989   -3.0593   28.1299 C   0  0  0  0  0  0  0  0  0  0  0  0
   -3.7683   -3.4841   28.2556 C   0  0  0  0  0  0  0  0  0  0  0  0
   -4.3511   -1.6263   26.5273 C   0  0  0  0  0  0  0  0  0  0  0  0
   -3.0138   -2.0862   26.4870 C   0  0  0  0  0  0  0  0  0  0  0  0
  3  7  1  0
  7  8  1  0
  8  9  1  0
 15  8  1  1
 15 16  1  0
 20 22  1  0
 14 28  1  0
 15 34  1  0
 33 34  1  0
 23 35  1  0
 34 35  1  6
 31 36  1  0
 36 37  1  0
 37 38  2  0
 36 39  1  0
 39 40  2  0
  9 10  2  0
 10 11  1  0
 11 12  2  0
 12 13  1  0
 13 14  2  0
 14  9  1  0
 22 23  2  0
 23 26  1  0
 26 27  2  0
 27 25  1  0
 25 24  2  0
 24 22  1  0
 16 17  2  0
 17 18  1  0
 18 19  2  0
 19 21  1  0
 21 20  2  0
 20 16  1  0
 28 29  2  0
 29 30  1  0
 30 31  2  0
 31 32  1  0
 32 33  2  0
 33 28  1  0
  1  2  2  0
  2  5  1  0
  5  6  2  0
  6  4  1  0
  4  3  2  0
  3  1  1  0
M  END
$$$$
