No_924-complexes_sdf/6BKW-FPZ/2024-09-17-14-21-01/
     RDKit          3D

 17 19  0  0  0  0  0  0  0  0999 V2000
   -7.2496    3.8871   27.4508 C   0  0  0  0  0  0  0  0  0  0  0  0
   -7.6161    2.7143   27.1523 C   0  0  0  0  0  0  0  0  0  0  0  0
   -8.8302    2.4659   26.5056 C   0  0  0  0  0  0  0  0  0  0  0  0
   -8.1584    5.0090   27.3234 C   0  0  0  0  0  0  0  0  0  0  0  0
   -9.3788    4.7965   26.7695 C   0  0  0  0  0  0  0  0  0  0  0  0
   -9.7028    3.5649   26.3276 C   0  0  0  0  0  0  0  0  0  0  0  0
   -6.7190    1.5585   27.3667 C   0  0  0  0  0  0  0  0  0  0  0  0
   -7.0504    0.2135   27.2455 C   0  0  0  0  0  0  0  0  0  0  0  0
   -5.3579    1.8214   27.8403 C   0  0  0  0  0  0  0  0  0  0  0  0
   -4.4778    0.7869   28.1426 C   0  0  0  0  0  0  0  0  0  0  0  0
   -6.1731   -0.7871   27.5954 C   0  0  0  0  0  0  0  0  0  0  0  0
   -4.8704   -0.4828   28.0687 C   0  0  0  0  0  0  0  0  0  0  0  0
   -7.6087    6.5720   27.8675 Cl  0  0  0  0  0  0  0  0  0  0  0  0
   -3.9642   -1.5893   28.4717 C   0  0  0  0  0  0  0  0  0  0  0  0
   -2.9005   -1.5236   28.2115 C   0  0  0  0  0  0  0  0  0  0  0  0
   -2.2135   -0.1354   27.9422 C   0  0  0  0  0  0  0  0  0  0  0  0
   -3.0461    0.9905   27.9167 C   0  0  0  0  0  0  0  0  0  0  0  0
  2  7  1  0
  4 13  1  0
  7  8  2  0
  8 11  1  0
 11 12  2  0
 10  9  2  0
  9  7  1  0
  1  2  2  0
  2  3  1  0
  3  6  2  0
  6  5  1  0
  5  4  2  0
  4  1  1  0
 10 12  1  0
 12 14  1  0
 14 15  2  0
 15 16  1  0
 16 17  2  0
 17 10  1  0
M  END
$$$$
