No_999-complexes_sdf/6BKW-FPZ/2024-09-17-14-21-01/
     RDKit          3D

 21 22  0  0  0  0  0  0  0  0999 V2000
   -7.9040    3.9820   27.1177 C   0  0  0  0  0  0  0  0  0  0  0  0
   -8.2057    2.8231   26.8733 C   0  0  0  0  0  0  0  0  0  0  0  0
   -7.0130    4.3706   28.1140 C   0  0  0  0  0  0  0  0  0  0  0  0
   -7.4093    1.7370   27.3857 C   0  0  0  0  0  0  0  0  0  0  0  0
   -6.1943    2.1490   28.0403 C   0  0  0  0  0  0  0  0  0  0  0  0
   -5.9708    3.4680   28.3199 C   0  0  0  0  0  0  0  0  0  0  0  0
   -8.9048    5.0960   26.7137 C   0  0  0  0  0  0  0  0  0  0  0  0
   -9.5194    4.9927   25.4434 C   0  0  0  0  0  0  0  0  0  0  0  0
   -5.2450    1.0796   28.4383 C   0  0  0  0  0  0  0  0  0  0  0  0
   -5.5087   -0.2607   28.4556 C   0  0  0  0  0  0  0  0  0  0  0  0
   -4.5836   -1.1442   28.8776 C   0  0  0  0  0  0  0  0  0  0  0  0
   -3.2985   -0.7065   29.2906 C   0  0  0  0  0  0  0  0  0  0  0  0
   -2.9956    0.6326   29.2043 C   0  0  0  0  0  0  0  0  0  0  0  0
   -3.8793    1.5034   28.8320 C   0  0  0  0  0  0  0  0  0  0  0  0
   -8.9378    6.3665   27.3459 C   0  0  0  0  0  0  0  0  0  0  0  0
   -2.5461   -1.7292   29.8301 F   0  0  0  0  0  0  0  0  0  0  0  0
  -10.2534    4.0544   24.9182 C   0  0  0  0  0  0  0  0  0  0  0  0
  -10.7731    4.1424   23.6124 C   0  0  0  0  0  0  0  0  0  0  0  0
  -11.4447    3.1026   23.0083 C   0  0  0  0  0  0  0  0  0  0  0  0
  -11.4980    1.8828   23.5962 C   0  0  0  0  0  0  0  0  0  0  0  0
  -10.9446    1.7039   24.8387 C   0  0  0  0  0  0  0  0  0  0  0  0
  1  7  1  0
  7  8  2  3
  5  9  1  0
  7 15  1  0
 12 16  1  0
  8 17  1  0
 17 18  2  3
 18 19  1  0
 19 20  2  3
 20 21  1  0
  1  2  2  0
  2  4  1  0
  4  5  2  0
  5  6  1  0
  6  3  2  0
  3  1  1  0
  9 10  2  0
 10 11  1  0
 11 12  2  0
 12 13  1  0
 13 14  2  0
 14  9  1  0
M  END
$$$$
