No_9943-complexes_sdf/6BKW-FPZ/2024-09-17-14-21-01/
     RDKit          3D

 11 11  0  0  0  0  0  0  0  0999 V2000
   -7.9040    3.9820   27.1177 C   0  0  0  0  0  0  0  0  0  0  0  0
   -9.0711    4.3164   27.0630 C   0  0  0  0  0  0  0  0  0  0  0  0
   -9.5294    5.4517   27.7215 C   0  0  0  0  0  0  0  0  0  0  0  0
   -7.4336    2.7132   26.5681 C   0  0  0  0  0  0  0  0  0  0  0  0
   -8.3353    1.8569   26.0442 C   0  0  0  0  0  0  0  0  0  0  0  0
   -7.9243    0.5609   25.6726 C   0  0  0  0  0  0  0  0  0  0  0  0
  -10.0396    3.4856   26.3639 C   0  0  1  0  0  0  0  0  0  0  0  0
  -11.3576    3.9363   26.1661 C   0  0  0  0  0  0  0  0  0  0  0  0
   -9.6129    2.3250   25.8459 C   0  0  0  0  0  0  0  0  0  0  0  0
   -8.3217   -0.0566   24.5843 C   0  0  0  0  0  0  0  0  0  0  0  0
   -7.8870   -1.3384   24.2198 C   0  0  0  0  0  0  0  0  0  0  0  0
  1  2  1  0
  2  3  2  0
  1  4  1  0
  4  5  1  0
  5  6  1  0
  2  7  1  0
  7  8  1  6
  5  9  1  0
  7  9  1  0
  6 10  2  3
 10 11  1  0
M  END
$$$$
