No_9686-complexes_sdf/6BKW-FPZ/2024-09-17-14-21-01/
     RDKit          3D

 25 27  0  0  0  0  0  0  0  0999 V2000
   -7.2496    3.8871   27.4508 C   0  0  0  0  0  0  0  0  0  0  0  0
   -7.9379    4.9063   27.8518 C   0  0  0  0  0  0  0  0  0  0  0  0
   -7.4895    6.2027   27.7481 C   0  0  0  0  0  0  0  0  0  0  0  0
   -7.4701    2.5429   27.5231 C   0  0  0  0  0  0  0  0  0  0  0  0
   -8.8176    2.1756   27.8084 C   0  0  0  0  0  0  0  0  0  0  0  0
   -9.7372    3.2213   28.0689 C   0  0  0  0  0  0  0  0  0  0  0  0
   -9.3528    4.6064   28.1440 C   0  0  0  0  0  0  0  0  0  0  0  0
  -11.1399    2.8566   28.4575 C   0  0  0  0  0  0  0  0  0  0  0  0
  -12.0532    2.8360   27.5103 C   0  0  0  0  0  0  0  0  0  0  0  0
  -13.2874    2.9358   27.8342 C   0  0  0  0  0  0  0  0  0  0  0  0
  -11.9116    1.7635   26.4416 C   0  0  0  0  0  0  0  0  0  0  0  0
  -11.2235    1.0184   26.1586 C   0  0  0  0  0  0  0  0  0  0  0  0
  -11.0437    0.1694   25.3728 C   0  0  0  0  0  0  0  0  0  0  0  0
  -11.8235    0.3163   24.1940 C   0  0  0  0  0  0  0  0  0  0  0  0
  -12.7434    1.3574   24.2126 C   0  0  0  0  0  0  0  0  0  0  0  0
  -12.8458    2.1586   25.3211 C   0  0  0  0  0  0  0  0  0  0  0  0
  -13.5751    4.2651   28.4639 C   0  0  0  0  0  0  0  0  0  0  0  0
  -14.8697    4.7455   28.8722 C   0  0  0  0  0  0  0  0  0  0  0  0
  -15.6669    3.9694   29.2139 C   0  0  0  0  0  0  0  0  0  0  0  0
  -14.5025    2.2305   27.8813 C   0  0  0  0  0  0  0  0  0  0  0  0
  -15.6508    2.6067   28.6569 C   0  0  0  0  0  0  0  0  0  0  0  0
   -6.6348    1.6079   27.2037 F   0  0  0  0  0  0  0  0  0  0  0  0
   -7.1758    6.6456   26.6617 F   0  0  0  0  0  0  0  0  0  0  0  0
   -8.5931    7.0192   28.1278 F   0  0  0  0  0  0  0  0  0  0  0  0
   -6.5856    6.3691   28.6516 F   0  0  0  0  0  0  0  0  0  0  0  0
  2  3  1  0
  6  8  1  0
  8  9  1  0
  9 10  1  0
  9 11  1  0
  4 22  1  0
  3 23  1  0
  3 24  1  0
  3 25  1  0
 11 12  2  0
 12 13  1  0
 13 14  2  0
 14 15  1  0
 15 16  2  0
 16 11  1  0
 10 17  2  0
 17 18  1  0
 18 19  2  0
 19 21  1  0
 21 20  2  0
 20 10  1  0
  1  2  2  0
  2  7  1  0
  7  6  2  0
  6  5  1  0
  5  4  2  0
  4  1  1  0
M  END
$$$$
