No_9314-complexes_sdf/6BKW-FPZ/2024-09-17-14-21-01/
     RDKit          3D

 18 19  0  0  0  0  0  0  0  0999 V2000
   -7.9040    3.9820   27.1177 C   0  0  0  0  0  0  0  0  0  0  0  0
   -9.0711    4.3164   27.0630 C   0  0  0  0  0  0  0  0  0  0  0  0
   -9.8698    3.9665   25.9494 C   0  0  0  0  0  0  0  0  0  0  0  0
   -7.4425    3.1935   27.7092 C   0  0  0  0  0  0  0  0  0  0  0  0
  -11.1260    3.4424   26.1567 C   0  0  0  0  0  0  0  0  0  0  0  0
   -5.9846    2.7115   27.5143 C   0  0  0  0  0  0  0  0  0  0  0  0
  -11.8850    3.8856   27.2980 C   0  0  0  0  0  0  0  0  0  0  0  0
  -11.1708    4.4785   28.3824 C   0  0  0  0  0  0  0  0  0  0  0  0
   -9.8314    4.6018   28.3017 C   0  0  0  0  0  0  0  0  0  0  0  0
   -5.6999    1.4222   27.7743 C   0  0  0  0  0  0  0  0  0  0  0  0
   -4.3536    1.2036   28.3148 C   0  0  0  0  0  0  0  0  0  0  0  0
   -6.3595    0.3310   27.1635 C   0  0  0  0  0  0  0  0  0  0  0  0
   -3.9972   -0.1260   28.8461 C   0  0  0  0  0  0  0  0  0  0  0  0
   -5.9509   -0.9924   27.5362 C   0  0  0  0  0  0  0  0  0  0  0  0
   -4.7658   -1.1833   28.3118 C   0  0  0  0  0  0  0  0  0  0  0  0
  -13.3265    3.6816   27.3758 C   0  0  0  0  0  0  0  0  0  0  0  0
  -14.1462    4.0566   28.0456 C   0  0  0  0  0  0  0  0  0  0  0  0
  -15.5679    3.8161   28.0087 C   0  0  0  0  0  0  0  0  0  0  0  0
  1  2  1  0
  1  4  1  0
  4  6  1  0
  6 10  1  0
  7 16  1  0
 16 17  2  3
 17 18  1  0
 10 11  2  0
 11 13  1  0
 13 15  2  0
 15 14  1  0
 14 12  2  0
 12 10  1  0
  2  3  2  0
  3  5  1  0
  5  7  2  0
  7  8  1  0
  8  9  2  0
  9  2  1  0
M  END
$$$$
