No_9007-complexes_sdf/6BKW-FPZ/2024-09-17-14-21-01/
     RDKit          3D

 22 25  0  0  0  0  0  0  0  0999 V2000
   -7.9040    3.9820   27.1177 C   0  0  0  0  0  0  0  0  0  0  0  0
   -8.2057    2.8231   26.8733 C   0  0  0  0  0  0  0  0  0  0  0  0
   -7.4766    1.7477   27.4593 C   0  0  0  0  0  0  0  0  0  0  0  0
   -8.7468    5.1251   26.6967 C   0  0  1  0  0  0  0  0  0  0  0  0
   -8.4775    6.4967   27.1056 C   0  0  0  0  0  0  0  0  0  0  0  0
   -6.1172    2.0790   27.8378 C   0  0  0  0  0  0  0  0  0  0  0  0
   -5.7594    3.4209   27.9937 C   0  0  0  0  0  0  0  0  0  0  0  0
   -6.5892    4.3873   27.6368 C   0  0  0  0  0  0  0  0  0  0  0  0
   -9.6936    4.9253   25.6664 C   0  0  0  0  0  0  0  0  0  0  0  0
   -5.2457    0.9763   28.2975 C   0  0  0  0  0  0  0  0  0  0  0  0
   -4.0738    1.2073   28.8045 N   0  0  0  0  0  0  0  0  0  0  0  0
   -5.6529   -0.3992   28.2336 C   0  0  0  0  0  0  0  0  0  0  0  0
   -4.7674   -1.3360   28.7602 C   0  0  0  0  0  0  0  0  0  0  0  0
   -3.5824   -1.0697   29.2270 C   0  0  0  0  0  0  0  0  0  0  0  0
   -3.2393    0.3514   29.3017 C   0  0  0  0  0  0  0  0  0  0  0  0
  -10.5144    3.8668   25.6089 C   0  0  1  0  0  0  0  0  0  0  0  0
  -11.2964    3.6154   25.0318 C   0  0  0  0  0  0  0  0  0  0  0  0
  -12.1245    2.3912   24.9463 C   0  0  0  0  0  0  0  0  0  0  0  0
  -11.6702    1.4972   25.8401 C   0  0  0  0  0  0  0  0  0  0  0  0
  -10.7160    1.6962   26.7427 C   0  0  0  0  0  0  0  0  0  0  0  0
   -9.5261    2.6337   26.1995 C   0  0  2  0  0  0  0  0  0  0  0  0
   -9.0307    1.7519   24.9005 C   0  0  0  0  0  0  0  0  0  0  0  0
  1  4  1  0
  4  9  1  0
  6 10  1  0
 16  9  1  6
 16 17  1  0
 18 19  1  0
  2 21  1  0
 16 21  1  0
 20 21  1  0
 21 22  1  6
  4  5  1  6
 17 18  1  0
 19 20  1  0
  1  8  1  0
  8  7  2  0
  7  6  1  0
  6  3  2  0
  3  2  1  0
  2  1  2  0
 10 11  2  0
 11 15  1  0
 15 14  2  0
 14 13  1  0
 13 12  2  0
 12 10  1  0
M  END
$$$$
