No_9757-complexes_sdf/6BKW-FPZ/2024-09-17-14-21-01/
     RDKit          3D

 28 31  0  0  0  0  0  0  0  0999 V2000
   -7.9040    3.9820   27.1177 C   0  0  0  0  0  0  0  0  0  0  0  0
   -8.2057    2.8231   26.8733 C   0  0  0  0  0  0  0  0  0  0  0  0
   -8.7695    5.0740   26.7916 C   0  0  0  0  0  0  0  0  0  0  0  0
   -9.9618    4.7598   26.1630 C   0  0  0  0  0  0  0  0  0  0  0  0
   -9.4200    2.4524   26.2849 C   0  0  0  0  0  0  0  0  0  0  0  0
  -10.2590    3.4815   25.9250 C   0  0  0  0  0  0  0  0  0  0  0  0
   -8.3840    6.4693   27.0829 C   0  0  0  0  0  0  0  0  0  0  0  0
   -8.7958    7.4358   26.4217 N   0  0  0  0  0  0  0  0  0  0  0  0
   -7.1186    6.5885   27.6761 N   0  0  0  0  0  0  0  0  0  0  0  0
   -7.2887    1.6540   27.2777 C   0  0  0  0  0  0  0  0  0  0  0  0
   -6.0152    1.9760   27.8000 C   0  0  0  0  0  0  0  0  0  0  0  0
   -5.1198    0.9048   28.1763 C   0  0  0  0  0  0  0  0  0  0  0  0
   -5.5052   -0.3874   28.0649 C   0  0  0  0  0  0  0  0  0  0  0  0
   -7.5883    0.3128   27.1971 C   0  0  0  0  0  0  0  0  0  0  0  0
   -6.7755   -0.6556   27.6312 C   0  0  0  0  0  0  0  0  0  0  0  0
   -4.5887   -1.4271   28.5765 C   0  0  0  0  0  0  0  0  0  0  0  0
   -3.4727   -1.4225   28.3421 C   0  0  0  0  0  0  0  0  0  0  0  0
   -2.5282   -2.4395   28.7932 C   0  0  0  0  0  0  0  0  0  0  0  0
   -1.1463   -2.3155   28.5524 C   0  0  0  0  0  0  0  0  0  0  0  0
   -0.6247   -1.2092   27.8780 C   0  0  0  0  0  0  0  0  0  0  0  0
   -1.4781   -0.1973   27.5039 C   0  0  0  0  0  0  0  0  0  0  0  0
   -2.7613   -0.2191   27.7795 C   0  0  0  0  0  0  0  0  0  0  0  0
   -5.0073   -1.6062   30.0702 C   0  0  0  0  0  0  0  0  0  0  0  0
   -5.9725   -2.6117   30.4385 C   0  0  0  0  0  0  0  0  0  0  0  0
   -6.4147   -2.6173   31.7491 C   0  0  0  0  0  0  0  0  0  0  0  0
   -5.8418   -1.7907   32.7671 C   0  0  0  0  0  0  0  0  0  0  0  0
   -4.8670   -0.8693   32.3861 C   0  0  0  0  0  0  0  0  0  0  0  0
   -4.4710   -0.7351   31.0636 C   0  0  0  0  0  0  0  0  0  0  0  0
  3  7  1  0
  7  8  2  0
  7  9  1  0
  2 10  1  0
 13 16  1  0
 16 23  1  0
 16 17  1  0
 17 18  2  0
 18 19  1  0
 19 20  2  0
 20 21  1  0
 21 22  2  0
 22 17  1  0
 10 11  2  0
 11 12  1  0
 12 13  2  0
 13 15  1  0
 15 14  2  0
 14 10  1  0
 23 24  2  0
 24 25  1  0
 25 26  2  0
 26 27  1  0
 27 28  2  0
 28 23  1  0
  1  2  2  0
  2  5  1  0
  5  6  2  0
  6  4  1  0
  4  3  2  0
  3  1  1  0
M  END
$$$$
