No_9758-complexes_sdf/6BKW-FPZ/2024-09-17-14-21-01/
     RDKit          3D

  9  9  0  0  0  0  0  0  0  0999 V2000
   -7.2496    3.8871   27.4508 C   0  0  0  0  0  0  0  0  0  0  0  0
   -8.5096    4.0291   27.2770 C   0  0  0  0  0  0  0  0  0  0  0  0
   -9.2669    5.1645   27.5845 C   0  0  0  0  0  0  0  0  0  0  0  0
  -10.6621    5.2321   27.4284 C   0  0  0  0  0  0  0  0  0  0  0  0
   -9.2095    2.9872   26.5061 C   0  0  0  0  0  0  0  0  0  0  0  0
   -8.5496    1.7640   26.2865 C   0  0  0  0  0  0  0  0  0  0  0  0
   -6.5314    2.6437   27.3989 C   0  0  0  0  0  0  0  0  0  0  0  0
   -7.2277    1.6269   26.7523 C   0  0  0  0  0  0  0  0  0  0  0  0
   -8.5961    6.4957   27.1400 C   0  0  0  0  0  0  0  0  0  0  0  0
  2  3  1  0
  3  4  1  0
  3  9  1  0
  1  2  2  0
  2  5  1  0
  5  6  2  0
  6  8  1  0
  8  7  2  0
  7  1  1  0
M  END
$$$$
