No_9378-complexes_sdf/6BKW-FPZ/2024-09-17-14-21-01/
     RDKit          3D

 29 31  0  0  0  0  0  0  0  0999 V2000
   -7.2496    3.8871   27.4508 C   0  0  0  0  0  0  0  0  0  0  0  0
   -8.5096    4.0291   27.2770 C   0  0  0  0  0  0  0  0  0  0  0  0
   -9.3502    2.8685   26.8763 C   0  0  0  0  0  0  0  0  0  0  0  0
   -6.6288    2.5513   27.4938 C   0  0  0  0  0  0  0  0  0  0  0  0
   -7.4365    1.4714   27.2032 C   0  0  0  0  0  0  0  0  0  0  0  0
   -8.7772    1.6579   26.9338 C   0  0  0  0  0  0  0  0  0  0  0  0
   -9.1078    5.3660   27.2249 C   0  0  0  0  0  0  0  0  0  0  0  0
   -8.3546    6.4796   26.8735 C   0  0  0  0  0  0  0  0  0  0  0  0
   -8.5735    7.7813   27.3074 C   0  0  0  0  0  0  0  0  0  0  0  0
   -6.6351    0.2013   27.2682 C   0  0  0  0  0  0  0  0  0  0  0  0
   -6.7414   -0.5118   28.0537 C   0  0  0  0  0  0  0  0  0  0  0  0
   -5.9806   -1.8065   28.2121 C   0  0  0  0  0  0  0  0  0  0  0  0
   -5.0944   -2.0651   27.2070 C   0  0  0  0  0  0  0  0  0  0  0  0
   -4.9668   -1.1601   26.1673 C   0  0  0  0  0  0  0  0  0  0  0  0
   -5.7488   -0.0055   26.1582 C   0  0  0  0  0  0  0  0  0  0  0  0
  -10.4963    5.4657   27.5014 C   0  0  0  0  0  0  0  0  0  0  0  0
   -5.3555    2.5371   27.7894 O   0  0  0  0  0  0  0  0  0  0  0  0
   -9.5758    0.4772   26.6195 C   0  0  0  0  0  0  0  0  0  0  0  0
   -9.9638    0.1813   25.7003 O   0  0  0  0  0  0  0  0  0  0  0  0
  -10.1988   -0.0352   27.7582 O   0  0  0  0  0  0  0  0  0  0  0  0
   -7.9485    8.6502   26.3581 C   0  0  0  0  0  0  0  0  0  0  0  0
   -4.1480   -3.4814   27.2098 Cl  0  0  0  0  0  0  0  0  0  0  0  0
  -10.6113   -1.3539   27.8135 C   0  0  0  0  0  0  0  0  0  0  0  0
  -10.8307   -1.7572   29.1202 C   0  0  0  0  0  0  0  0  0  0  0  0
  -10.8780   -3.1337   29.3993 C   0  0  0  0  0  0  0  0  0  0  0  0
  -11.0538   -3.5885   30.6975 C   0  0  0  0  0  0  0  0  0  0  0  0
  -11.2226   -2.6559   31.7591 C   0  0  0  0  0  0  0  0  0  0  0  0
  -11.2071   -1.3025   31.4227 C   0  0  0  0  0  0  0  0  0  0  0  0
  -11.0500   -0.8817   30.2188 C   0  0  0  0  0  0  0  0  0  0  0  0
  2  7  1  0
  7  8  1  0
  8  9  2  3
  5 10  1  0
  7 16  1  0
  4 17  1  0
  6 18  1  0
 18 19  2  0
 18 20  1  0
  9 21  1  0
 13 22  1  0
 20 23  1  0
 23 24  1  0
 24 25  2  0
 25 26  1  0
 26 27  2  0
 27 28  1  0
 28 29  2  0
 29 24  1  0
  1  2  2  0
  2  3  1  0
  3  6  2  0
  6  5  1  0
  5  4  2  0
  4  1  1  0
 10 11  2  0
 11 12  1  0
 12 13  2  0
 13 14  1  0
 14 15  2  0
 15 10  1  0
M  END
$$$$
