No_9279-complexes_sdf/6BKW-FPZ/2024-09-17-14-21-01/
     RDKit          3D

 27 30  0  0  0  0  0  0  0  0999 V2000
   -7.9040    3.9820   27.1177 C   0  0  0  0  0  0  0  0  0  0  0  0
   -7.8663    4.8694   27.9238 C   0  0  0  0  0  0  0  0  0  0  0  0
   -9.0953    3.1697   27.0532 C   0  0  0  0  0  0  0  0  0  0  0  0
   -9.1405    2.0104   26.1761 C   0  0  0  0  0  0  0  0  0  0  0  0
   -6.7288    5.7941   27.9701 C   0  0  0  0  0  0  0  0  0  0  0  0
   -9.9958    0.9743   26.4484 C   0  0  0  0  0  0  0  0  0  0  0  0
  -10.9894    1.1277   27.4301 C   0  0  0  0  0  0  0  0  0  0  0  0
  -10.9467    2.2496   28.2987 C   0  0  0  0  0  0  0  0  0  0  0  0
   -9.9264    3.2216   28.2000 C   0  0  0  0  0  0  0  0  0  0  0  0
  -11.9295    0.0356   27.5713 C   0  0  0  0  0  0  0  0  0  0  0  0
  -11.6507   -1.0363   27.3952 C   0  0  0  0  0  0  0  0  0  0  0  0
  -10.5324   -1.3452   26.4314 C   0  0  0  0  0  0  0  0  0  0  0  0
   -9.7575   -0.3067   25.8952 C   0  0  0  0  0  0  0  0  0  0  0  0
   -8.6666   -0.5775   25.0306 C   0  0  0  0  0  0  0  0  0  0  0  0
   -8.6199   -1.4379   24.0033 C   0  0  0  0  0  0  0  0  0  0  0  0
   -7.5937   -1.4849   23.0820 C   0  0  0  0  0  0  0  0  0  0  0  0
   -6.4970   -0.5418   23.1178 C   0  0  0  0  0  0  0  0  0  0  0  0
   -6.5255    0.3225   24.2334 C   0  0  0  0  0  0  0  0  0  0  0  0
   -7.4609    0.3586   25.0926 C   0  0  0  0  0  0  0  0  0  0  0  0
   -7.5920   -2.4814   21.9897 C   0  0  0  0  0  0  0  0  0  0  0  0
   -7.4489   -3.6564   22.3043 N   0  0  0  0  0  0  0  0  0  0  0  0
   -7.4428   -4.6683   21.6247 C   0  0  0  0  0  0  0  0  0  0  0  0
   -7.7936   -2.0957   20.8275 O   0  0  0  0  0  0  0  0  0  0  0  0
   -7.0596   -5.7523   21.6337 C   0  0  0  0  0  0  0  0  0  0  0  0
   -6.3246   -6.0784   22.9067 C   0  0  0  0  0  0  0  0  0  0  0  0
   -6.2742   -5.0760   23.9000 C   0  0  0  0  0  0  0  0  0  0  0  0
   -6.6619   -3.8753   23.6029 C   0  0  0  0  0  0  0  0  0  0  0  0
  1  2  2  3
  1  3  1  0
  2  5  1  0
 13 14  1  0
 16 20  1  0
 20 21  1  0
 21 22  1  0
 20 23  2  0
 24 25  1  0
 21 27  1  0
 26 27  1  0
 22 24  1  0
 25 26  1  0
  3  4  2  0
  4  6  1  0
  7  8  1  0
  8  9  2  0
  9  3  1  0
  6  7  2  0
  7 10  1  0
 10 11  2  0
 11 12  1  0
 12 13  2  0
 13  6  1  0
 14 15  2  0
 15 16  1  0
 16 17  2  0
 17 18  1  0
 18 19  2  0
 19 14  1  0
M  END
$$$$
