No_9927-complexes_sdf/6BKW-FPZ/2024-09-17-14-21-01/
     RDKit          3D

  7  7  0  0  0  0  0  0  0  0999 V2000
   -7.9040    3.9820   27.1177 C   0  0  0  0  0  0  0  0  0  0  0  0
   -7.8663    4.8694   27.9238 C   0  0  0  0  0  0  0  0  0  0  0  0
   -9.0491    3.8523   26.2542 C   0  0  0  0  0  0  0  0  0  0  0  0
   -6.5926    5.1015   28.6929 C   0  0  0  0  0  0  0  0  0  0  0  0
   -9.8983    4.9345   26.2676 C   0  0  0  0  0  0  0  0  0  0  0  0
   -9.6731    6.0185   26.9992 C   0  0  0  0  0  0  0  0  0  0  0  0
   -8.5866    6.1020   27.8711 C   0  0  0  0  0  0  0  0  0  0  0  0
  2  4  1  0
  1  2  2  0
  2  7  1  0
  7  6  2  0
  6  5  1  0
  5  3  2  0
  3  1  1  0
M  END
$$$$
