No_9961-complexes_sdf/6BKW-FPZ/2024-09-17-14-21-01/
     RDKit          3D

 10 10  0  0  0  0  0  0  0  0999 V2000
   -7.9040    3.9820   27.1177 C   0  0  0  0  0  0  0  0  0  0  0  0
   -8.2057    2.8231   26.8733 C   0  0  0  0  0  0  0  0  0  0  0  0
   -7.0130    4.3706   28.1140 C   0  0  0  0  0  0  0  0  0  0  0  0
   -9.3829    2.4374   26.1668 C   0  0  0  0  0  0  0  0  0  0  0  0
  -10.0975    3.4171   25.5988 C   0  0  0  0  0  0  0  0  0  0  0  0
  -11.1831    3.1293   24.7524 C   0  0  0  0  0  0  0  0  0  0  0  0
   -8.7536    5.0749   26.6443 C   0  0  0  0  0  0  0  0  0  0  0  0
   -9.8126    4.7831   25.8201 C   0  0  0  0  0  0  0  0  0  0  0  0
  -11.2028    3.6478   23.4900 C   0  0  0  0  0  0  0  0  0  0  0  0
  -12.2563    3.4407   22.5518 C   0  0  0  0  0  0  0  0  0  0  0  0
  1  2  1  0
  1  3  2  0
  2  4  1  0
  4  5  1  0
  5  6  2  3
  1  7  1  0
  5  8  1  0
  7  8  1  0
  6  9  1  0
  9 10  2  0
M  END
$$$$
