No_9043-complexes_sdf/6BKW-FPZ/2024-09-17-14-21-01/
     RDKit          3D

 22 24  0  0  0  0  0  0  0  0999 V2000
   -7.7129    4.2099   27.0854 C   0  0  0  0  0  0  0  0  0  0  0  0
   -8.2112    3.0637   26.9225 C   0  0  0  0  0  0  0  0  0  0  0  0
   -7.0021    4.5281   28.2396 C   0  0  0  0  0  0  0  0  0  0  0  0
   -9.4237    2.7810   26.2714 C   0  0  0  0  0  0  0  0  0  0  0  0
   -9.8781    3.7859   25.4663 C   0  0  0  0  0  0  0  0  0  0  0  0
   -9.3689    5.0975   25.5965 C   0  0  0  0  0  0  0  0  0  0  0  0
   -8.4784    5.3402   26.5448 C   0  0  0  0  0  0  0  0  0  0  0  0
  -10.9887    3.5347   24.5135 C   0  0  0  0  0  0  0  0  0  0  0  0
  -10.8789    3.9875   23.2474 C   0  0  0  0  0  0  0  0  0  0  0  0
  -12.0756    2.7879   24.8728 C   0  0  0  0  0  0  0  0  0  0  0  0
  -11.7185    3.7772   22.1934 C   0  0  0  0  0  0  0  0  0  0  0  0
  -12.2298    2.3106   26.1502 C   0  0  0  0  0  0  0  0  0  0  0  0
  -12.8666    3.0561   22.6378 C   0  0  0  0  0  0  0  0  0  0  0  0
  -13.0504    2.5929   23.8853 C   0  0  0  0  0  0  0  0  0  0  0  0
  -12.3488    3.2224   27.2469 C   0  0  0  0  0  0  0  0  0  0  0  0
  -12.2873    2.8844   28.5692 C   0  0  0  0  0  0  0  0  0  0  0  0
  -12.1742    1.4788   28.8477 C   0  0  0  0  0  0  0  0  0  0  0  0
  -11.9236    0.5750   27.8486 C   0  0  0  0  0  0  0  0  0  0  0  0
  -11.9426    1.0088   26.5234 C   0  0  0  0  0  0  0  0  0  0  0  0
  -11.7493    0.0284   25.4866 C   0  0  0  0  0  0  0  0  0  0  0  0
  -12.5378   -0.5994   24.9654 C   0  0  0  0  0  0  0  0  0  0  0  0
  -12.3088   -1.5528   23.9024 C   0  0  0  0  0  0  0  0  0  0  0  0
  5  8  1  0
 10 12  1  0
 19 20  1  0
 20 21  2  3
 21 22  1  0
  3  1  1  0
 12 15  2  0
 15 16  1  0
 16 17  2  0
 17 18  1  0
 18 19  2  0
 19 12  1  0
  1  2  2  0
  2  4  1  0
  4  5  2  0
  5  6  1  0
  6  7  2  0
  7  1  1  0
  8  9  2  0
  9 11  1  0
 11 13  2  0
 13 14  1  0
 14 10  2  0
 10  8  1  0
M  END
$$$$
