No_9160-complexes_sdf/6BKW-FPZ/2024-09-17-14-21-01/
     RDKit          3D

 24 27  0  0  0  0  0  0  0  0999 V2000
   -7.9040    3.9820   27.1177 C   0  0  0  0  0  0  0  0  0  0  0  0
   -7.8663    4.8694   27.9238 C   0  0  0  0  0  0  0  0  0  0  0  0
   -9.0491    3.8523   26.2542 C   0  0  0  0  0  0  0  0  0  0  0  0
   -8.7661    5.9491   27.9690 C   0  0  0  0  0  0  0  0  0  0  0  0
   -9.9295    4.8502   26.2323 C   0  0  0  0  0  0  0  0  0  0  0  0
   -9.8077    5.9288   27.0933 C   0  0  0  0  0  0  0  0  0  0  0  0
   -9.0726    2.7074   25.3087 C   0  0  0  0  0  0  0  0  0  0  0  0
  -10.0632    2.7302   24.3178 C   0  0  0  0  0  0  0  0  0  0  0  0
  -10.9336    3.8766   24.2566 C   0  0  0  0  0  0  0  0  0  0  0  0
  -10.9057    4.8221   25.1699 C   0  0  0  0  0  0  0  0  0  0  0  0
  -11.9566    3.8116   23.1908 C   0  0  2  0  0  0  0  0  0  0  0  0
  -11.5891    3.9005   22.0024 C   0  0  0  0  0  0  0  0  0  0  0  0
  -10.3029    4.1908   21.6845 C   0  0  0  0  0  0  0  0  0  0  0  0
   -9.8825    4.1754   20.2599 C   0  0  0  0  0  0  0  0  0  0  0  0
  -10.8685    3.8671   19.3142 C   0  0  0  0  0  0  0  0  0  0  0  0
  -12.1522    3.6641   19.6293 C   0  0  0  0  0  0  0  0  0  0  0  0
  -12.5727    3.6917   20.9630 C   0  0  0  0  0  0  0  0  0  0  0  0
  -13.3377    3.8126   23.6985 C   0  0  0  0  0  0  0  0  0  0  0  0
  -14.1950    3.1247   24.0737 C   0  0  0  0  0  0  0  0  0  0  0  0
  -13.8163    1.6798   24.3514 C   0  0  0  0  0  0  0  0  0  0  0  0
  -14.7840    0.7414   24.7323 C   0  0  0  0  0  0  0  0  0  0  0  0
  -16.0718    1.2567   24.9309 C   0  0  0  0  0  0  0  0  0  0  0  0
  -16.4647    2.5217   24.7542 C   0  0  0  0  0  0  0  0  0  0  0  0
  -15.5312    3.5100   24.3245 C   0  0  0  0  0  0  0  0  0  0  0  0
  9 11  1  0
 11 12  1  0
 11 18  1  1
 18 19  1  0
 12 13  2  0
 13 14  1  0
 14 15  2  0
 15 16  1  0
 16 17  2  0
 17 12  1  0
  5 10  2  0
 10  9  1  0
  9  8  2  0
  8  7  1  0
  7  3  2  0
  1  2  2  0
  2  4  1  0
  4  6  2  0
  6  5  1  0
  5  3  1  0
  3  1  1  0
 19 20  2  0
 20 21  1  0
 21 22  2  0
 22 23  1  0
 23 24  2  0
 24 19  1  0
M  END
$$$$
