No_9814-complexes_sdf/6BKW-FPZ/2024-09-17-14-21-01/
     RDKit          3D

 32 35  0  0  0  0  0  0  0  0999 V2000
   -7.7129    4.2099   27.0854 C   0  0  0  0  0  0  0  0  0  0  0  0
   -8.2112    3.0637   26.9225 C   0  0  0  0  0  0  0  0  0  0  0  0
   -8.5108    5.3904   26.9436 C   0  0  0  0  0  0  0  0  0  0  0  0
   -9.7256    5.1955   26.3518 C   0  0  0  0  0  0  0  0  0  0  0  0
   -9.4995    2.8258   26.4878 C   0  0  0  0  0  0  0  0  0  0  0  0
  -10.2542    3.9691   26.2055 C   0  0  0  0  0  0  0  0  0  0  0  0
   -7.8138    6.9227   27.2348 Cl  0  0  0  0  0  0  0  0  0  0  0  0
   -7.3349    1.4138   27.3154 Br  0  0  0  0  0  0  0  0  0  0  0  0
  -11.8233    3.8374   25.5303 Cl  0  0  0  0  0  0  0  0  0  0  0  0
  -10.0853    1.5092   26.2254 C   0  0  0  0  0  0  0  0  0  0  0  0
  -10.6977    0.7949   27.1850 C   0  0  0  0  0  0  0  0  0  0  0  0
  -11.1966   -0.5015   27.1042 C   0  0  0  0  0  0  0  0  0  0  0  0
  -11.0225   -1.0926   25.8916 C   0  0  0  0  0  0  0  0  0  0  0  0
  -10.3688   -0.4533   24.8606 C   0  0  0  0  0  0  0  0  0  0  0  0
   -9.8518    0.8484   25.0069 C   0  0  0  0  0  0  0  0  0  0  0  0
  -11.5996   -2.4384   25.6469 C   0  0  0  0  0  0  0  0  0  0  0  0
  -11.7950   -3.2639   26.5490 C   0  0  0  0  0  0  0  0  0  0  0  0
  -11.9216   -2.6949   27.9249 C   0  0  0  0  0  0  0  0  0  0  0  0
  -11.6359   -1.2975   28.2377 C   0  0  0  0  0  0  0  0  0  0  0  0
  -12.4064   -3.5324   29.1000 C   0  0  0  0  0  0  0  0  0  0  0  0
  -12.9366   -3.0173   29.9919 C   0  0  0  0  0  0  0  0  0  0  0  0
  -13.3376   -3.7282   31.2062 C   0  0  0  0  0  0  0  0  0  0  0  0
  -13.1411   -5.0925   31.1589 C   0  0  0  0  0  0  0  0  0  0  0  0
  -12.2573   -4.9497   29.2398 C   0  0  0  0  0  0  0  0  0  0  0  0
  -12.5863   -5.6553   30.1823 C   0  0  0  0  0  0  0  0  0  0  0  0
  -13.7067   -5.9725   32.6040 Cl  0  0  0  0  0  0  0  0  0  0  0  0
  -10.1850   -1.0184   23.5136 C   0  0  1  0  0  0  0  0  0  0  0  0
   -9.1881   -1.7123   23.3501 N   0  0  0  0  0  0  0  0  0  0  0  0
   -8.8069   -2.4664   22.4791 C   0  0  0  0  0  0  0  0  0  0  0  0
   -9.4517   -2.5175   21.3655 C   0  0  0  0  0  0  0  0  0  0  0  0
  -11.1520   -0.9009   22.7346 C   0  0  0  0  0  0  0  0  0  0  0  0
   -9.2278   -3.1742   20.1758 C   0  0  0  0  0  0  0  0  0  0  0  0
  3  7  1  0
  2  8  1  0
  6  9  1  0
  5 10  1  0
 18 20  1  0
 23 26  1  0
 14 27  1  0
 27 28  1  0
 28 29  1  0
 29 30  2  3
 27 31  1  1
 30 32  1  0
 20 21  2  0
 21 22  1  0
 22 23  2  0
 23 25  1  0
 25 24  2  0
 24 20  1  0
  1  2  2  0
  2  5  1  0
  5  6  2  0
  6  4  1  0
  4  3  2  0
  3  1  1  0
 10 11  2  0
 11 12  1  0
 13 14  1  0
 14 15  2  0
 15 10  1  0
 12 13  2  0
 13 16  1  0
 16 17  2  0
 17 18  1  0
 18 19  2  0
 19 12  1  0
M  END
$$$$
