No_9563-complexes_sdf/6BKW-FPZ/2024-09-17-14-21-01/
     RDKit          3D

 25 27  0  0  0  0  0  0  0  0999 V2000
   -7.9040    3.9820   27.1177 C   0  0  0  0  0  0  0  0  0  0  0  0
   -8.2057    2.8231   26.8733 C   0  0  0  0  0  0  0  0  0  0  0  0
   -9.2962    2.4021   26.1155 C   0  0  0  0  0  0  0  0  0  0  0  0
   -8.7358    5.0662   26.5917 C   0  0  0  0  0  0  0  0  0  0  0  0
   -9.7618    4.7023   25.7546 C   0  0  0  0  0  0  0  0  0  0  0  0
  -10.0066    3.4105   25.4922 C   0  0  0  0  0  0  0  0  0  0  0  0
   -8.3936    6.4769   26.8843 C   0  0  0  0  0  0  0  0  0  0  0  0
   -7.3510    6.7077   26.8260 F   0  0  0  0  0  0  0  0  0  0  0  0
   -9.1050    6.7049   28.1740 F   0  0  0  0  0  0  0  0  0  0  0  0
   -8.9925    7.2619   25.9302 F   0  0  0  0  0  0  0  0  0  0  0  0
   -7.5225    1.5490   27.4395 C   0  0  0  0  0  0  0  0  0  0  0  0
   -6.1006    1.6459   27.7095 C   0  0  0  0  0  0  0  0  0  0  0  0
   -5.4081    0.5620   28.2182 C   0  0  0  0  0  0  0  0  0  0  0  0
   -6.0460   -0.6532   28.2759 C   0  0  0  0  0  0  0  0  0  0  0  0
   -8.0100    0.2968   27.4946 C   0  0  0  0  0  0  0  0  0  0  0  0
   -7.3907   -0.7446   27.9801 C   0  0  0  0  0  0  0  0  0  0  0  0
   -3.9605    0.7249   28.5694 C   0  0  0  0  0  0  0  0  0  0  0  0
   -3.2681    1.3933   27.9610 O   0  0  0  0  0  0  0  0  0  0  0  0
   -3.5768    0.3253   29.8122 O   0  0  0  0  0  0  0  0  0  0  0  0
  -11.1234    3.1618   24.5748 C   0  0  0  0  0  0  0  0  0  0  0  0
  -12.3105    2.8891   25.0845 C   0  0  0  0  0  0  0  0  0  0  0  0
  -10.8829    3.1422   23.1820 C   0  0  0  0  0  0  0  0  0  0  0  0
  -11.8332    2.9235   22.2458 C   0  0  0  0  0  0  0  0  0  0  0  0
  -13.4073    2.6895   24.1359 C   0  0  0  0  0  0  0  0  0  0  0  0
  -13.1423    2.7289   22.7723 C   0  0  0  0  0  0  0  0  0  0  0  0
  4  7  1  0
  7  8  1  0
  7  9  1  0
  7 10  1  0
  2 11  1  0
 13 17  1  0
 17 18  2  0
 17 19  1  0
  6 20  1  0
 20 21  2  0
 21 24  1  0
 24 25  2  0
 25 23  1  0
 23 22  2  0
 22 20  1  0
  1  2  2  0
  2  3  1  0
  3  6  2  0
  6  5  1  0
  5  4  2  0
  4  1  1  0
 11 12  2  0
 12 13  1  0
 13 14  2  0
 14 16  1  0
 16 15  2  0
 15 11  1  0
M  END
$$$$
