No_950-complexes_sdf/6BKW-FPZ/2024-09-17-14-21-01/
     RDKit          3D

 20 21  0  0  0  0  0  0  0  0999 V2000
   -7.7129    4.2099   27.0854 C   0  0  0  0  0  0  0  0  0  0  0  0
   -7.7814    5.1722   27.8972 C   0  0  0  0  0  0  0  0  0  0  0  0
   -8.8776    3.8408   26.3416 C   0  0  0  0  0  0  0  0  0  0  0  0
   -8.9136    2.6330   25.5655 C   0  0  0  0  0  0  0  0  0  0  0  0
   -8.8361    6.1389   27.9032 C   0  0  0  0  0  0  0  0  0  0  0  0
   -9.9718    4.7048   26.3433 C   0  0  0  0  0  0  0  0  0  0  0  0
   -9.9205    5.8499   27.1013 C   0  0  0  0  0  0  0  0  0  0  0  0
   -9.6976    1.6828   26.0761 C   0  0  0  0  0  0  0  0  0  0  0  0
   -9.4174    0.4510   25.8123 C   0  0  0  0  0  0  0  0  0  0  0  0
  -10.1067   -0.6222   26.4539 C   0  0  0  0  0  0  0  0  0  0  0  0
  -11.1467   -0.2840   27.3727 C   0  0  0  0  0  0  0  0  0  0  0  0
  -11.3726    1.0260   27.7174 C   0  0  0  0  0  0  0  0  0  0  0  0
  -10.6214    2.0450   27.1686 C   0  0  0  0  0  0  0  0  0  0  0  0
   -8.4222   -0.0115   24.8454 C   0  0  0  0  0  0  0  0  0  0  0  0
   -7.1656    0.1693   25.3254 F   0  0  0  0  0  0  0  0  0  0  0  0
   -8.4895   -1.2854   24.4901 F   0  0  0  0  0  0  0  0  0  0  0  0
   -8.5583    0.7040   23.6901 F   0  0  0  0  0  0  0  0  0  0  0  0
  -12.3866    1.3298   28.7596 C   0  0  0  0  0  0  0  0  0  0  0  0
  -13.3459    1.9709   28.3323 O   0  0  0  0  0  0  0  0  0  0  0  0
  -12.2330    1.0377   29.9958 O   0  0  0  0  0  0  0  0  0  0  0  0
  3  4  1  0
  4  8  1  0
  9 14  1  0
 14 15  1  0
 14 16  1  0
 14 17  1  0
 12 18  1  0
 18 19  2  0
 18 20  1  0
  8  9  2  0
  9 10  1  0
 10 11  2  0
 11 12  1  0
 12 13  2  0
 13  8  1  0
  1  2  2  0
  2  5  1  0
  5  7  2  0
  7  6  1  0
  6  3  2  0
  3  1  1  0
M  END
$$$$
