No_9803-complexes_sdf/6BKW-FPZ/2024-09-17-14-21-01/
     RDKit          3D

 16 17  0  0  0  0  0  0  0  0999 V2000
   -7.7129    4.2099   27.0854 C   0  0  0  0  0  0  0  0  0  0  0  0
   -7.7814    5.1722   27.8972 C   0  0  0  0  0  0  0  0  0  0  0  0
   -8.8998    3.8713   26.3707 C   0  0  0  0  0  0  0  0  0  0  0  0
   -9.9938    4.6774   26.5446 C   0  0  0  0  0  0  0  0  0  0  0  0
   -8.7789    6.1536   27.9256 C   0  0  0  0  0  0  0  0  0  0  0  0
   -9.9428    5.8398   27.2296 C   0  0  0  0  0  0  0  0  0  0  0  0
   -8.9119    2.6447   25.5685 C   0  0  0  0  0  0  0  0  0  0  0  0
   -9.7323    2.5751   24.5467 N   0  0  0  0  0  0  0  0  0  0  0  0
  -10.3399    3.6018   24.0190 C   0  0  0  0  0  0  0  0  0  0  0  0
  -11.2775    3.4632   22.9257 C   0  0  0  0  0  0  0  0  0  0  0  0
   -9.7872    1.3409   23.8090 C   0  0  0  0  0  0  0  0  0  0  0  0
  -10.5725    1.2107   22.6806 C   0  0  0  0  0  0  0  0  0  0  0  0
  -11.2545    2.3243   22.2032 C   0  0  0  0  0  0  0  0  0  0  0  0
   -8.2170    1.6799   25.9805 O   0  0  0  0  0  0  0  0  0  0  0  0
   -6.6430    5.5565   28.6381 O   0  0  0  0  0  0  0  0  0  0  0  0
  -12.2114    2.1444   20.7735 Cl  0  0  0  0  0  0  0  0  0  0  0  0
  3  7  1  0
  7  8  1  0
  8  9  1  0
  8 11  1  0
 10 13  1  0
 12 13  1  0
  7 14  2  0
  2 15  1  0
 13 16  1  0
  9 10  1  0
 12 11  1  0
  1  2  2  0
  2  5  1  0
  5  6  2  0
  6  4  1  0
  4  3  2  0
  3  1  1  0
M  END
$$$$
