No_9565-complexes_sdf/6BKW-FPZ/2024-09-17-14-21-01/
     RDKit          3D

 13 14  0  0  0  0  0  0  0  0999 V2000
   -7.2496    3.8871   27.4508 C   0  0  0  0  0  0  0  0  0  0  0  0
   -7.6161    2.7143   27.1523 C   0  0  0  0  0  0  0  0  0  0  0  0
   -6.9719    1.5838   27.5324 C   0  0  0  0  0  0  0  0  0  0  0  0
   -7.4590    0.2827   27.2615 C   0  0  0  0  0  0  0  0  0  0  0  0
   -8.6787    2.5578   26.1663 C   0  0  0  0  0  0  0  0  0  0  0  0
   -9.1184    1.2615   25.8299 C   0  0  0  0  0  0  0  0  0  0  0  0
   -8.4774    0.1568   26.3866 C   0  0  0  0  0  0  0  0  0  0  0  0
   -8.1741    4.9410   27.6645 C   0  0  0  0  0  0  0  0  0  0  0  0
   -9.3052    5.1357   26.9024 C   0  0  0  0  0  0  0  0  0  0  0  0
   -9.6412    3.7985   26.1951 C   0  0  0  0  0  0  0  0  0  0  0  0
  -10.7746    3.8253   25.2947 C   0  0  0  0  0  0  0  0  0  0  0  0
  -10.6457    4.1574   23.9709 C   0  0  0  0  0  0  0  0  0  0  0  0
  -11.6007    4.1966   23.0378 C   0  0  0  0  0  0  0  0  0  0  0  0
 10 11  1  0
 11 12  2  3
 12 13  1  0
  1  2  2  0
  5 10  2  0
 10  9  1  0
  9  8  2  0
  8  1  1  0
  2  3  1  0
  3  4  2  0
  4  7  1  0
  7  6  2  0
  6  5  1  0
  5  2  1  0
M  END
$$$$
