No_9553-complexes_sdf/6BKW-FPZ/2024-09-17-14-21-01/
     RDKit          3D

 22 24  0  0  0  0  0  0  0  0999 V2000
   -7.7129    4.2099   27.0854 C   0  0  0  0  0  0  0  0  0  0  0  0
   -7.7814    5.1722   27.8972 C   0  0  0  0  0  0  0  0  0  0  0  0
   -7.3155    2.9700   27.6145 C   0  0  0  0  0  0  0  0  0  0  0  0
   -7.6814    1.8188   26.9581 C   0  0  0  0  0  0  0  0  0  0  0  0
   -8.6377    1.9131   25.9324 C   0  0  0  0  0  0  0  0  0  0  0  0
   -9.1866    3.0673   25.6037 C   0  0  0  0  0  0  0  0  0  0  0  0
   -8.8394    4.1752   26.2513 C   0  0  0  0  0  0  0  0  0  0  0  0
   -8.2486    6.4747   27.5719 N   0  0  0  0  0  0  0  0  0  0  0  0
   -9.1525    6.6854   26.5919 C   0  0  0  0  0  0  0  0  0  0  0  0
   -9.4607    5.4864   25.8772 C   0  0  0  0  0  0  0  0  0  0  0  0
   -7.0245    0.5340   27.2725 C   0  0  0  0  0  0  0  0  0  0  0  0
   -7.5780   -0.5705   27.2552 O   0  0  0  0  0  0  0  0  0  0  0  0
   -5.7530    0.5834   27.6368 O   0  0  0  0  0  0  0  0  0  0  0  0
   -4.9709   -0.4068   27.8720 C   0  0  0  0  0  0  0  0  0  0  0  0
   -3.7203   -0.0546   28.5312 C   0  0  2  0  0  0  0  0  0  0  0  0
   -3.6341    0.8906   29.1485 C   0  0  0  0  0  0  0  0  0  0  0  0
   -2.6084   -0.9042   28.1564 C   0  0  0  0  0  0  0  0  0  0  0  0
   -2.5613   -1.4453   27.0389 C   0  0  0  0  0  0  0  0  0  0  0  0
   -1.4063   -1.6676   26.4084 C   0  0  0  0  0  0  0  0  0  0  0  0
   -0.3645   -2.0120   27.2359 C   0  0  0  0  0  0  0  0  0  0  0  0
   -0.3764   -1.5348   28.5980 C   0  0  0  0  0  0  0  0  0  0  0  0
   -1.4373   -0.8862   29.0136 C   0  0  0  0  0  0  0  0  0  0  0  0
  4 11  1  0
 11 12  2  0
 11 13  1  0
 13 14  1  0
 14 15  1  0
 15 16  1  6
 15 17  1  0
 17 18  2  0
 18 19  1  0
 19 20  2  0
 20 21  1  0
 21 22  2  0
 22 17  1  0
  1  2  2  0
  2  8  1  0
  8  9  2  0
  9 10  1  0
 10  7  2  0
  1  3  1  0
  3  4  2  0
  4  5  1  0
  5  6  2  0
  6  7  1  0
  7  1  1  0
M  END
$$$$
