No_9367-complexes_sdf/6BKW-FPZ/2024-09-17-14-21-01/
     RDKit          3D

 14 15  0  0  0  0  0  0  0  0999 V2000
   -7.7129    4.2099   27.0854 C   0  0  0  0  0  0  0  0  0  0  0  0
   -8.2112    3.0637   26.9225 C   0  0  0  0  0  0  0  0  0  0  0  0
   -9.4446    2.8304   26.1868 C   0  0  0  0  0  0  0  0  0  0  0  0
   -8.4697    5.3956   26.7238 C   0  0  0  0  0  0  0  0  0  0  0  0
   -9.6172    5.2111   25.9513 C   0  0  0  0  0  0  0  0  0  0  0  0
  -10.0424    3.9782   25.6873 C   0  0  0  0  0  0  0  0  0  0  0  0
   -7.5056    1.8167   27.4088 C   0  0  0  0  0  0  0  0  0  0  0  0
   -5.9896    1.9668   28.0310 Cl  0  0  0  0  0  0  0  0  0  0  0  0
   -8.0488    0.5256   27.3250 C   0  0  0  0  0  0  0  0  0  0  0  0
   -7.3554   -0.5413   27.2275 C   0  0  0  0  0  0  0  0  0  0  0  0
   -7.9675   -1.7904   27.2692 C   0  0  0  0  0  0  0  0  0  0  0  0
   -9.3829   -1.7951   27.3609 C   0  0  0  0  0  0  0  0  0  0  0  0
  -10.1417   -0.6453   27.4332 C   0  0  0  0  0  0  0  0  0  0  0  0
   -9.4827    0.5686   27.4982 C   0  0  0  0  0  0  0  0  0  0  0  0
  2  7  1  0
  7  8  1  0
  7  9  1  0
  1  2  2  0
  2  3  1  0
  3  6  2  0
  6  5  1  0
  5  4  2  0
  4  1  1  0
  9 10  2  0
 10 11  1  0
 11 12  2  0
 12 13  1  0
 13 14  2  0
 14  9  1  0
M  END
$$$$
