No_9830-complexes_sdf/6BKW-FPZ/2024-09-17-14-21-01/
     RDKit          3D

 22 24  0  0  0  0  0  0  0  0999 V2000
   -7.7129    4.2099   27.0854 C   0  0  0  0  0  0  0  0  0  0  0  0
   -8.2112    3.0637   26.9225 C   0  0  0  0  0  0  0  0  0  0  0  0
   -8.5108    5.3904   26.9436 C   0  0  0  0  0  0  0  0  0  0  0  0
   -9.7256    5.1955   26.3518 C   0  0  0  0  0  0  0  0  0  0  0  0
   -9.4995    2.8258   26.4878 C   0  0  0  0  0  0  0  0  0  0  0  0
  -10.2542    3.9691   26.2055 C   0  0  0  0  0  0  0  0  0  0  0  0
   -8.1407    6.6788   27.2279 N   0  0  0  0  0  0  0  0  0  0  0  0
   -7.3996    1.9250   27.2281 N   0  0  0  0  0  0  0  0  0  0  0  0
   -7.7131    0.6344   27.0515 C   0  0  0  0  0  0  0  0  0  0  0  0
   -6.8029   -0.1578   26.3847 C   0  0  0  0  0  0  0  0  0  0  0  0
   -5.5010   -0.0052   26.6632 C   0  0  0  0  0  0  0  0  0  0  0  0
   -6.0673    2.1931   27.7335 C   0  0  0  0  0  0  0  0  0  0  0  0
   -5.0737    1.1979   27.3443 C   0  0  0  0  0  0  0  0  0  0  0  0
   -8.7497    7.8337   26.8492 C   0  0  0  0  0  0  0  0  0  0  0  0
  -11.5555    3.7744   25.5412 C   0  0  0  0  0  0  0  0  0  0  0  0
  -12.6394    3.5810   26.3128 C   0  0  0  0  0  0  0  0  0  0  0  0
  -12.5381    3.4114   27.6578 C   0  0  0  0  0  0  0  0  0  0  0  0
  -13.6976    3.2799   28.5489 C   0  0  0  0  0  0  0  0  0  0  0  0
  -14.9188    3.3965   27.9282 C   0  0  0  0  0  0  0  0  0  0  0  0
  -13.9870    3.6413   25.7457 C   0  0  0  0  0  0  0  0  0  0  0  0
  -15.0978    3.5606   26.5987 C   0  0  0  0  0  0  0  0  0  0  0  0
  -11.6034    4.1159   24.3173 O   0  0  0  0  0  0  0  0  0  0  0  0
  3  7  1  0
  2  8  1  0
  8  9  1  0
 10 11  1  0
  8 12  1  0
  7 14  1  0
  6 15  1  0
 15 16  1  0
 15 22  2  0
  9 10  1  0
 11 13  1  0
 13 12  1  0
 16 17  2  0
 17 18  1  0
 18 19  2  0
 19 21  1  0
 21 20  2  0
 20 16  1  0
  1  2  2  0
  2  5  1  0
  5  6  2  0
  6  4  1  0
  4  3  2  0
  3  1  1  0
M  END
$$$$
