No_9086-complexes_sdf/6BKW-FPZ/2024-09-17-14-21-01/
     RDKit          3D

 14 15  0  0  0  0  0  0  0  0999 V2000
   -7.7129    4.2099   27.0854 C   0  0  0  0  0  0  0  0  0  0  0  0
   -8.9133    4.4736   27.0998 C   0  0  0  0  0  0  0  0  0  0  0  0
   -9.4616    5.6470   27.6290 C   0  0  0  0  0  0  0  0  0  0  0  0
   -6.8722    5.1130   27.9248 C   0  0  0  0  0  0  0  0  0  0  0  0
   -7.3801    6.2535   28.4126 C   0  0  0  0  0  0  0  0  0  0  0  0
  -10.8738    5.9347   27.4690 C   0  0  0  0  0  0  0  0  0  0  0  0
   -8.6315    6.5055   28.2205 C   0  0  0  0  0  0  0  0  0  0  0  0
   -9.8297    3.5023   26.3661 C   0  0  0  0  0  0  0  0  0  0  0  0
  -10.9188    3.8544   25.9634 N   0  0  0  0  0  0  0  0  0  0  0  0
  -11.6869    4.7354   26.8618 C   0  0  0  0  0  0  0  0  0  0  0  0
  -11.5315    3.7117   24.6921 C   0  0  0  0  0  0  0  0  0  0  0  0
  -11.7287    2.7054   24.2819 C   0  0  0  0  0  0  0  0  0  0  0  0
  -11.6053    1.5988   24.8132 C   0  0  0  0  0  0  0  0  0  0  0  0
  -11.8522    0.2523   24.1961 C   0  0  0  0  0  0  0  0  0  0  0  0
  3  6  1  0
  2  8  1  0
  8  9  1  0
  6 10  1  0
  9 10  1  0
  9 11  1  0
 11 12  2  3
 12 13  1  0
 13 14  2  0
  1  2  2  0
  2  3  1  0
  3  7  2  0
  7  5  1  0
  5  4  2  0
  4  1  1  0
M  END
$$$$
