No_930-complexes_sdf/6BKW-FPZ/2024-09-17-14-21-01/
     RDKit          3D

 27 29  0  0  0  0  0  0  0  0999 V2000
   -7.9040    3.9820   27.1177 C   0  0  0  0  0  0  0  0  0  0  0  0
   -8.2057    2.8231   26.8733 C   0  0  0  0  0  0  0  0  0  0  0  0
   -7.4766    1.7477   27.4593 C   0  0  0  0  0  0  0  0  0  0  0  0
   -8.7468    5.1251   26.6967 C   0  0  0  0  0  0  0  0  0  0  0  0
   -9.7234    4.8589   25.8202 C   0  0  0  0  0  0  0  0  0  0  0  0
   -9.9711    3.5858   25.4266 C   0  0  0  0  0  0  0  0  0  0  0  0
   -9.2266    2.4957   25.9600 C   0  0  0  0  0  0  0  0  0  0  0  0
   -6.1241    1.9216   27.8574 C   0  0  0  0  0  0  0  0  0  0  0  0
   -5.4248    0.7985   28.3602 C   0  0  0  0  0  0  0  0  0  0  0  0
   -5.9324   -0.4517   28.3727 C   0  0  0  0  0  0  0  0  0  0  0  0
   -7.6975    0.3353   27.3839 C   0  0  0  0  0  0  0  0  0  0  0  0
   -7.1413   -0.6404   27.9162 C   0  0  0  0  0  0  0  0  0  0  0  0
   -8.4194    6.5116   27.1046 C   0  0  0  0  0  0  0  0  0  0  0  0
   -7.9212    7.5779   27.0564 N   0  0  0  0  0  0  0  0  0  0  0  0
   -4.0218    1.3245   28.8384 C   0  0  0  0  0  0  0  0  0  0  0  0
   -3.0156    0.3166   28.7564 N   0  0  0  0  0  0  0  0  0  0  0  0
   -2.7901   -0.4701   29.7749 C   0  0  1  0  0  0  0  0  0  0  0  0
   -1.7162   -1.4210   29.6325 C   0  0  0  0  0  0  0  0  0  0  0  0
   -2.3566    0.0687   27.5931 C   0  0  1  0  0  0  0  0  0  0  0  0
   -2.6849    0.9375   26.4163 C   0  0  0  0  0  0  0  0  0  0  0  0
   -1.3422   -0.8204   27.5149 C   0  0  0  0  0  0  0  0  0  0  0  0
   -0.9782   -1.5169   28.5637 C   0  0  0  0  0  0  0  0  0  0  0  0
   -3.5366   -0.2662   31.2929 Cl  0  0  0  0  0  0  0  0  0  0  0  0
  -10.9055    3.3417   24.5283 F   0  0  0  0  0  0  0  0  0  0  0  0
   -7.7017   -1.9961   27.9276 C   0  0  0  0  0  0  0  0  0  0  0  0
   -8.7043   -2.3382   27.5129 N   0  0  0  0  0  0  0  0  0  0  0  0
   -9.2424   -3.5890   27.6165 C   0  0  0  0  0  0  0  0  0  0  0  0
  2  3  1  0
  4 13  1  0
 13 14  3  0
  9 15  1  0
 15 16  1  0
 16 17  1  0
 16 19  1  0
 19 20  1  1
 19 21  1  0
 18 22  1  0
 17 23  1  1
  6 24  1  0
 12 25  1  0
 25 26  2  3
 26 27  1  0
 17 18  1  0
 22 21  1  0
  3  8  2  0
  8  9  1  0
  9 10  2  0
 10 12  1  0
 12 11  2  0
 11  3  1  0
  1  2  2  0
  2  7  1  0
  7  6  2  0
  6  5  1  0
  5  4  2  0
  4  1  1  0
M  END
$$$$
