No_0-complexes_sdf/6BKW-FPZ/2025-05-20-10-43-42/
     RDKit          3D

 17 18  0  0  0  0  0  0  0  0999 V2000
   -7.9040    3.9820   27.1177 C   0  0  0  0  0  0  0  0  0  0  0  0
   -8.2057    2.8231   26.8733 C   0  0  0  0  0  0  0  0  0  0  0  0
   -8.7695    5.0740   26.7916 C   0  0  0  0  0  0  0  0  0  0  0  0
   -9.9618    4.7598   26.1630 C   0  0  0  0  0  0  0  0  0  0  0  0
   -9.4200    2.4524   26.2850 C   0  0  0  0  0  0  0  0  0  0  0  0
  -10.2590    3.4815   25.9250 C   0  0  0  0  0  0  0  0  0  0  0  0
   -8.3840    6.4693   27.0829 C   0  0  0  0  0  0  0  0  0  0  0  0
   -8.4414    7.8023   26.4033 Cl  0  0  0  0  0  0  0  0  0  0  0  0
   -7.2701    1.6612   27.2767 C   0  0  0  0  0  0  0  0  0  0  0  0
   -6.1089    1.9735   27.8349 N   0  0  0  0  0  0  0  0  0  0  0  0
   -5.2600    0.8976   28.1595 C   0  0  0  0  0  0  0  0  0  0  0  0
   -3.9770    1.1135   28.7777 C   0  0  0  0  0  0  0  0  0  0  0  0
   -5.7105   -0.4188   27.9938 C   0  0  0  0  0  0  0  0  0  0  0  0
   -7.9696    0.7112   27.0430 F   0  0  0  0  0  0  0  0  0  0  0  0
   -4.8541   -1.4288   28.4851 C   0  0  0  0  0  0  0  0  0  0  0  0
   -3.3080   -0.0835   29.1333 C   0  0  0  0  0  0  0  0  0  0  0  0
   -3.6919   -1.2712   29.0496 C   0  0  0  0  0  0  0  0  0  0  0  0
  3  7  1  0
  7  8  1  0
  2  9  1  0
  9 10  1  0
  9 14  1  0
 10 11  1  0
 11 12  2  0
 12 16  1  0
 16 17  2  0
 17 15  1  0
 15 13  2  0
 13 11  1  0
  1  2  2  0
  2  5  1  0
  5  6  2  0
  6  4  1  0
  4  3  2  0
  3  1  1  0
M  END

$$$$
No_1-complexes_sdf/6BKW-FPZ/2025-05-20-10-43-42/
     RDKit          3D

 16 18  0  0  0  0  0  0  0  0999 V2000
   -7.7129    4.2099   27.0854 C   0  0  0  0  0  0  0  0  0  0  0  0
   -7.7814    5.1722   27.8972 C   0  0  0  0  0  0  0  0  0  0  0  0
   -8.8776    3.8408   26.3416 C   0  0  0  0  0  0  0  0  0  0  0  0
   -9.9844    4.6492   26.4743 C   0  0  0  0  0  0  0  0  0  0  0  0
   -8.7830    6.1594   27.8870 C   0  0  0  0  0  0  0  0  0  0  0  0
   -9.9269    5.8191   27.1183 C   0  0  0  0  0  0  0  0  0  0  0  0
   -8.8618    2.6242   25.5633 C   0  0  0  0  0  0  0  0  0  0  0  0
   -9.7553    2.4751   24.5392 C   0  0  0  0  0  0  0  0  0  0  0  0
   -9.7633    1.3202   23.7592 C   0  0  0  0  0  0  0  0  0  0  0  0
   -8.7809    0.3063   24.0395 C   0  0  0  0  0  0  0  0  0  0  0  0
   -7.9393    0.4369   25.0994 C   0  0  0  0  0  0  0  0  0  0  0  0
   -7.9393    1.5988   25.9054 C   0  0  0  0  0  0  0  0  0  0  0  0
   -8.7730   -0.8922   23.1963 C   0  0  0  0  0  0  0  0  0  0  0  0
   -7.6415   -1.3618   22.8165 C   0  0  0  0  0  0  0  0  0  0  0  0
   -6.4202   -0.7428   23.3859 C   0  0  0  0  0  0  0  0  0  0  0  0
   -6.5815   -0.0624   24.6455 C   0  0  0  0  0  0  0  0  0  0  0  0
  3  7  1  0
  1  2  2  0
  2  5  1  0
  5  6  2  0
  6  4  1  0
  4  3  2  0
  3  1  1  0
  7  8  2  0
  8  9  1  0
  9 10  2  0
 11 12  2  0
 12  7  1  0
 10 11  1  0
 11 16  1  0
 16 15  2  0
 15 14  1  0
 14 13  2  0
 13 10  1  0
M  END

$$$$
No_2-complexes_sdf/6BKW-FPZ/2025-05-20-10-43-42/
     RDKit          3D

 11 11  0  0  0  0  0  0  0  0999 V2000
   -7.2496    3.8871   27.4508 C   0  0  0  0  0  0  0  0  0  0  0  0
   -8.5096    4.0291   27.2770 C   0  0  0  0  0  0  0  0  0  0  0  0
   -9.3451    2.8786   26.9046 C   0  0  0  0  0  0  0  0  0  0  0  0
   -8.7138    1.7135   26.7541 C   0  0  0  0  0  0  0  0  0  0  0  0
   -6.6024    2.6286   27.4581 C   0  0  0  0  0  0  0  0  0  0  0  0
   -7.3557    1.5598   27.1381 C   0  0  0  0  0  0  0  0  0  0  0  0
   -9.1549    5.3630   27.3415 C   0  0  0  0  0  0  0  0  0  0  0  0
   -8.3885    6.3286   27.0785 F   0  0  0  0  0  0  0  0  0  0  0  0
   -9.7043    5.6692   28.6301 F   0  0  0  0  0  0  0  0  0  0  0  0
  -10.2382    5.4441   26.4827 F   0  0  0  0  0  0  0  0  0  0  0  0
   -4.9665    2.4862   27.8769 Cl  0  0  0  0  0  0  0  0  0  0  0  0
  2  7  1  0
  7  8  1  0
  7  9  1  0
  7 10  1  0
  5 11  1  0
  1  2  2  0
  2  3  1  0
  3  4  2  0
  4  6  1  0
  6  5  2  0
  5  1  1  0
M  END

$$$$
No_3-complexes_sdf/6BKW-FPZ/2025-05-20-10-43-42/
     RDKit          3D

  6  6  0  0  0  0  0  0  0  0999 V2000
   -7.7129    4.2099   27.0854 C   0  0  0  0  0  0  0  0  0  0  0  0
   -7.7814    5.1722   27.8972 C   0  0  0  0  0  0  0  0  0  0  0  0
   -8.8998    3.8713   26.3707 C   0  0  0  0  0  0  0  0  0  0  0  0
   -9.9938    4.6774   26.5446 C   0  0  0  0  0  0  0  0  0  0  0  0
   -8.7789    6.1536   27.9256 C   0  0  0  0  0  0  0  0  0  0  0  0
   -9.9428    5.8398   27.2296 C   0  0  0  0  0  0  0  0  0  0  0  0
  1  2  2  0
  2  5  1  0
  5  6  2  0
  6  4  1  0
  4  3  2  0
  3  1  1  0
M  END

$$$$
No_4-complexes_sdf/6BKW-FPZ/2025-05-20-10-43-42/
     RDKit          3D

 15 16  0  0  0  0  0  0  0  0999 V2000
   -7.9040    3.9820   27.1177 C   0  0  0  0  0  0  0  0  0  0  0  0
   -8.2057    2.8231   26.8733 C   0  0  0  0  0  0  0  0  0  0  0  0
   -9.2962    2.4021   26.1155 C   0  0  0  0  0  0  0  0  0  0  0  0
   -8.7358    5.0662   26.5917 C   0  0  0  0  0  0  0  0  0  0  0  0
   -9.7618    4.7023   25.7546 C   0  0  0  0  0  0  0  0  0  0  0  0
  -10.0066    3.4105   25.4922 C   0  0  0  0  0  0  0  0  0  0  0  0
   -8.3943    6.4760   26.8801 C   0  0  0  0  0  0  0  0  0  0  0  0
   -8.0394    6.8605   28.0789 N   0  0  0  0  0  0  0  0  0  0  0  0
   -8.5968    7.4035   25.9607 N   0  0  0  0  0  0  0  0  0  0  0  0
   -7.1989    1.7923   27.5489 C   0  0  0  0  0  0  0  0  0  0  0  0
   -7.5757    0.4076   27.4960 C   0  0  0  0  0  0  0  0  0  0  0  0
   -6.6686   -0.5062   27.9804 C   0  0  0  0  0  0  0  0  0  0  0  0
   -5.3984   -0.0730   28.4340 C   0  0  0  0  0  0  0  0  0  0  0  0
   -5.0441    1.2982   28.2861 C   0  0  0  0  0  0  0  0  0  0  0  0
   -5.8828    2.1754   27.8061 C   0  0  0  0  0  0  0  0  0  0  0  0
  4  7  1  0
  7  8  2  0
  7  9  1  0
  2 10  1  0
  1  2  2  0
  2  3  1  0
  3  6  2  0
  6  5  1  0
  5  4  2  0
  4  1  1  0
 10 11  2  0
 11 12  1  0
 12 13  2  0
 13 14  1  0
 14 15  2  0
 15 10  1  0
M  END

$$$$
No_5-complexes_sdf/6BKW-FPZ/2025-05-20-10-43-42/
     RDKit          3D

  9  9  0  0  0  0  0  0  0  0999 V2000
   -7.7129    4.2099   27.0854 C   0  0  0  0  0  0  0  0  0  0  0  0
   -7.7814    5.1722   27.8972 C   0  0  0  0  0  0  0  0  0  0  0  0
   -8.7889    3.2468   27.2220 C   0  0  0  0  0  0  0  0  0  0  0  0
   -8.5940    1.9755   26.6525 C   0  0  0  0  0  0  0  0  0  0  0  0
   -8.9923    5.7768   28.3797 C   0  0  0  0  0  0  0  0  0  0  0  0
  -10.1236    4.9428   28.2368 C   0  0  0  0  0  0  0  0  0  0  0  0
   -9.9991    3.6962   27.6536 C   0  0  0  0  0  0  0  0  0  0  0  0
   -7.5011    1.2224   26.9506 C   0  0  0  0  0  0  0  0  0  0  0  0
   -7.2681   -0.0512   26.4820 C   0  0  0  0  0  0  0  0  0  0  0  0
  1  2  1  0
  1  3  1  0
  3  4  2  3
  2  5  1  0
  5  6  1  0
  3  7  1  0
  6  7  1  0
  4  8  1  0
  8  9  2  0
M  END

$$$$
No_6-complexes_sdf/6BKW-FPZ/2025-05-20-10-43-42/
     RDKit          3D

 29 32  0  0  0  0  0  0  0  0999 V2000
   -7.2496    3.8871   27.4508 C   0  0  0  0  0  0  0  0  0  0  0  0
   -8.5096    4.0291   27.2770 C   0  0  0  0  0  0  0  0  0  0  0  0
   -9.3451    2.8786   26.9046 C   0  0  0  0  0  0  0  0  0  0  0  0
   -6.6065    2.5680   27.5073 C   0  0  0  0  0  0  0  0  0  0  0  0
   -7.4233    1.4858   27.2402 C   0  0  0  0  0  0  0  0  0  0  0  0
   -8.7362    1.6525   26.9989 C   0  0  0  0  0  0  0  0  0  0  0  0
   -9.1023    5.3710   27.2131 C   0  0  0  0  0  0  0  0  0  0  0  0
  -10.3323    5.6359   27.5259 N   0  0  0  0  0  0  0  0  0  0  0  0
   -8.3124    6.4371   26.9136 N   0  0  0  0  0  0  0  0  0  0  0  0
   -8.5617    7.7309   26.9889 C   0  0  0  0  0  0  0  0  0  0  0  0
   -6.7963    0.1750   27.2524 C   0  0  0  0  0  0  0  0  0  0  0  0
   -7.4194   -0.9384   27.2191 C   0  0  0  0  0  0  0  0  0  0  0  0
   -6.7694   -2.2084   27.2692 C   0  0  0  0  0  0  0  0  0  0  0  0
   -5.3461    0.1048   27.3236 C   0  0  0  0  0  0  0  0  0  0  0  0
   -4.6762   -1.1070   27.3923 C   0  0  0  0  0  0  0  0  0  0  0  0
   -5.4018   -2.2553   27.3279 C   0  0  0  0  0  0  0  0  0  0  0  0
  -11.1800    4.6197   27.8590 C   0  0  0  0  0  0  0  0  0  0  0  0
  -12.4920    4.6456   27.8971 C   0  0  0  0  0  0  0  0  0  0  0  0
  -13.3542    3.9016   28.1457 C   0  0  0  0  0  0  0  0  0  0  0  0
  -12.8273    2.5620   28.5914 C   0  0  0  0  0  0  0  0  0  0  0  0
  -11.5096    2.3575   28.6638 C   0  0  0  0  0  0  0  0  0  0  0  0
  -10.6009    3.3899   28.3238 C   0  0  0  0  0  0  0  0  0  0  0  0
   -9.7328    3.5519   29.4367 O   0  0  0  0  0  0  0  0  0  0  0  0
  -10.0171    2.9760   25.5794 C   0  0  0  0  0  0  0  0  0  0  0  0
  -10.8657    2.0202   25.1758 C   0  0  0  0  0  0  0  0  0  0  0  0
  -11.5505    2.1449   23.9708 C   0  0  0  0  0  0  0  0  0  0  0  0
  -11.2992    3.2811   23.1724 C   0  0  0  0  0  0  0  0  0  0  0  0
  -10.4681    4.3074   23.5835 C   0  0  0  0  0  0  0  0  0  0  0  0
   -9.8159    4.2194   24.8074 C   0  0  0  0  0  0  0  0  0  0  0  0
  2  7  1  0
  7  8  2  3
  7  9  1  0
  9 10  1  0
  5 11  1  0
  8 17  1  0
 22 23  1  0
  3 24  1  0
 17 18  2  0
 18 19  1  0
 19 20  2  0
 20 21  1  0
 21 22  2  0
 22 17  1  0
 24 25  2  0
 25 26  1  0
 26 27  2  0
 27 28  1  0
 28 29  2  0
 29 24  1  0
  1  2  2  0
  2  3  1  0
  3  6  2  0
  6  5  1  0
  5  4  2  0
  4  1  1  0
 11 12  2  0
 12 13  1  0
 13 16  2  0
 16 15  1  0
 15 14  2  0
 14 11  1  0
M  END

$$$$
No_7-complexes_sdf/6BKW-FPZ/2025-05-20-10-43-42/
     RDKit          3D

 40 43  0  0  0  0  0  0  0  0999 V2000
   -7.9040    3.9820   27.1177 C   0  0  0  0  0  0  0  0  0  0  0  0
   -8.2057    2.8231   26.8733 C   0  0  0  0  0  0  0  0  0  0  0  0
   -7.0130    4.3706   28.1140 C   0  0  0  0  0  0  0  0  0  0  0  0
   -7.4093    1.7370   27.3857 C   0  0  0  0  0  0  0  0  0  0  0  0
   -6.1943    2.1490   28.0403 C   0  0  0  0  0  0  0  0  0  0  0  0
   -5.9708    3.4680   28.3199 C   0  0  0  0  0  0  0  0  0  0  0  0
   -8.8163    5.2629   26.7932 C   0  0  0  0  0  0  0  0  0  0  0  0
  -10.0040    5.2340   27.3453 F   0  0  0  0  0  0  0  0  0  0  0  0
   -8.2212    6.4356   26.9657 F   0  0  0  0  0  0  0  0  0  0  0  0
   -9.0802    5.1659   25.3958 F   0  0  0  0  0  0  0  0  0  0  0  0
   -5.2324    1.0962   28.4031 C   0  0  0  0  0  0  0  0  0  0  0  0
   -3.9364    1.3482   28.7409 C   0  0  0  0  0  0  0  0  0  0  0  0
   -5.7822   -0.2303   28.7495 C   0  0  0  0  0  0  0  0  0  0  0  0
   -4.8627   -1.2044   29.1826 C   0  0  0  0  0  0  0  0  0  0  0  0
   -3.0684    0.3703   29.2150 C   0  0  0  0  0  0  0  0  0  0  0  0
   -3.5546   -0.9041   29.4383 C   0  0  0  0  0  0  0  0  0  0  0  0
   -2.6449   -1.9663   29.9719 C   0  0  0  0  0  0  0  0  0  0  0  0
   -2.4914   -2.0807   31.1542 N   0  0  0  0  0  0  0  0  0  0  0  0
   -2.8295   -2.5777   32.0228 C   0  0  0  0  0  0  0  0  0  0  0  0
   -3.5562   -3.5342   31.8839 O   0  0  0  0  0  0  0  0  0  0  0  0
   -2.4609   -2.1456   33.5640 C   0  0  0  0  0  0  0  0  0  0  0  0
   -2.3559   -1.0068   33.7529 C   0  0  0  0  0  0  0  0  0  0  0  0
   -1.3796   -0.5920   34.5039 O   0  0  0  0  0  0  0  0  0  0  0  0
   -3.1184   -0.0985   33.1904 O   0  0  0  0  0  0  0  0  0  0  0  0
   -5.4228   -2.5123   29.4913 C   0  0  0  0  0  0  0  0  0  0  0  0
   -6.1379   -2.9451   28.8385 C   0  0  0  0  0  0  0  0  0  0  0  0
   -6.7902   -4.3186   29.1067 C   0  0  0  0  0  0  0  0  0  0  0  0
   -6.3611   -4.8953   30.2253 C   0  0  0  0  0  0  0  0  0  0  0  0
   -6.8397   -6.2099   30.4534 C   0  0  0  0  0  0  0  0  0  0  0  0
   -7.7454   -6.7673   29.5689 C   0  0  0  0  0  0  0  0  0  0  0  0
   -8.1825   -6.1493   28.4811 C   0  0  0  0  0  0  0  0  0  0  0  0
   -7.6698   -4.9034   28.2191 C   0  0  0  0  0  0  0  0  0  0  0  0
   -5.9961   -2.9193   27.2870 C   0  0  0  0  0  0  0  0  0  0  0  0
   -4.9455   -3.3438   26.6755 C   0  0  0  0  0  0  0  0  0  0  0  0
   -3.9185   -4.0234   27.1897 C   0  0  0  0  0  0  0  0  0  0  0  0
   -2.7772   -4.4401   26.4777 C   0  0  0  0  0  0  0  0  0  0  0  0
   -2.7675   -4.0601   25.1644 C   0  0  0  0  0  0  0  0  0  0  0  0
   -4.7124   -3.0126   25.2976 C   0  0  0  0  0  0  0  0  0  0  0  0
   -3.6930   -3.3558   24.6034 N   0  0  0  0  0  0  0  0  0  0  0  0
   -7.1285   -2.2527   26.6672 C   0  0  0  0  0  0  0  0  0  0  0  0
  1  7  1  0
  7  8  1  0
  7  9  1  0
  7 10  1  0
  5 11  1  0
 16 17  1  0
 17 18  1  0
 18 19  1  0
 19 20  2  0
 19 21  1  0
 21 22  1  0
 22 23  1  0
 22 24  2  0
 14 25  1  0
 25 26  2  3
 26 27  1  0
 26 33  1  0
 33 34  1  0
 33 40  1  0
  1  2  2  0
  2  4  1  0
  4  5  2  0
  5  6  1  0
  6  3  2  0
  3  1  1  0
 27 28  2  0
 28 29  1  0
 29 30  2  0
 30 31  1  0
 31 32  2  0
 32 27  1  0
 11 12  2  0
 12 15  1  0
 15 16  2  0
 16 14  1  0
 14 13  2  0
 13 11  1  0
 34 35  2  0
 35 36  1  0
 36 37  2  0
 37 39  1  0
 39 38  2  0
 38 34  1  0
M  END

$$$$
No_8-complexes_sdf/6BKW-FPZ/2025-05-20-10-43-42/
     RDKit          3D

 29 33  0  0  0  0  0  0  0  0999 V2000
   -7.7129    4.2099   27.0854 C   0  0  0  0  0  0  0  0  0  0  0  0
   -7.7814    5.1722   27.8972 C   0  0  0  0  0  0  0  0  0  0  0  0
   -7.3155    2.9699   27.6145 C   0  0  0  0  0  0  0  0  0  0  0  0
   -6.0554    2.7539   27.5147 C   0  0  0  0  0  0  0  0  0  0  0  0
   -5.1602    3.9141   27.7918 C   0  0  0  0  0  0  0  0  0  0  0  0
   -8.6926    6.3331   27.4992 C   0  0  0  0  0  0  0  0  0  0  0  0
   -8.8439    4.2567   26.1630 C   0  0  0  0  0  0  0  0  0  0  0  0
   -9.3247    3.0789   25.4240 C   0  0  0  0  0  0  0  0  0  0  0  0
   -9.4909    5.4662   26.0572 C   0  0  0  0  0  0  0  0  0  0  0  0
   -5.4845    1.3983   27.6153 C   0  0  0  0  0  0  0  0  0  0  0  0
   -6.1674    0.3639   27.2663 C   0  0  0  0  0  0  0  0  0  0  0  0
   -5.5806   -0.9437   27.3676 C   0  0  0  0  0  0  0  0  0  0  0  0
   -6.3443   -2.0716   27.0895 C   0  0  0  0  0  0  0  0  0  0  0  0
   -7.6791   -1.8800   26.6356 C   0  0  0  0  0  0  0  0  0  0  0  0
   -8.2774   -0.6365   26.5584 C   0  0  0  0  0  0  0  0  0  0  0  0
   -7.4949    0.4921   26.9011 C   0  0  0  0  0  0  0  0  0  0  0  0
  -10.1697    3.3406   24.3335 C   0  0  0  0  0  0  0  0  0  0  0  0
  -10.9195    4.4347   24.3242 C   0  0  0  0  0  0  0  0  0  0  0  0
  -10.2964    2.3142   23.3703 C   0  0  0  0  0  0  0  0  0  0  0  0
  -10.4483    2.5334   22.0716 C   0  0  0  0  0  0  0  0  0  0  0  0
   -8.1428    1.7859   27.1399 C   0  0  0  0  0  0  0  0  0  0  0  0
   -8.8165    1.8181   25.8602 C   0  0  0  0  0  0  0  0  0  0  0  0
   -9.2625    1.7018   28.2907 C   0  0  0  0  0  0  0  0  0  0  0  0
  -11.5584    2.5006   21.4892 C   0  0  0  0  0  0  0  0  0  0  0  0
  -11.6796    2.7937   20.0611 C   0  0  0  0  0  0  0  0  0  0  0  0
  -12.7709    2.4615   19.3047 C   0  0  0  0  0  0  0  0  0  0  0  0
  -13.9004    2.0104   19.9458 C   0  0  0  0  0  0  0  0  0  0  0  0
  -13.8710    1.7531   21.2574 C   0  0  0  0  0  0  0  0  0  0  0  0
  -12.7323    1.8996   22.0216 C   0  0  0  0  0  0  0  0  0  0  0  0
  1  2  1  0
  1  3  1  0
  4  5  1  0
  2  6  2  0
  1  7  1  0
  7  8  1  0
  6  9  1  0
  7  9  1  0
  4 10  1  0
  8 17  1  0
 17 18  1  0
 17 19  1  0
 19 20  1  0
  3 21  1  0
 16 21  1  0
  8 22  1  0
 21 22  1  0
 21 23  1  0
 20 24  1  0
  3  4  1  0
 10 11  1  0
 11 12  2  0
 12 13  1  0
 13 14  2  0
 14 15  1  0
 15 16  2  0
 16 11  1  0
 24 25  2  0
 25 26  1  0
 26 27  2  0
 27 28  1  0
 28 29  2  0
 29 24  1  0
M  END

$$$$
No_9-complexes_sdf/6BKW-FPZ/2025-05-20-10-43-42/
     RDKit          3D

 10 10  0  0  0  0  0  0  0  0999 V2000
   -7.9040    3.9820   27.1177 C   0  0  0  0  0  0  0  0  0  0  0  0
   -9.0711    4.3164   27.0630 C   0  0  0  0  0  0  0  0  0  0  0  0
   -9.5182    5.5541   27.5777 C   0  0  0  0  0  0  0  0  0  0  0  0
   -6.9424    4.7983   27.8424 C   0  0  0  0  0  0  0  0  0  0  0  0
   -7.3526    5.9739   28.3909 C   0  0  0  0  0  0  0  0  0  0  0  0
   -8.6479    6.3742   28.2169 C   0  0  0  0  0  0  0  0  0  0  0  0
  -10.0793    3.4689   26.3368 C   0  0  0  0  0  0  0  0  0  0  0  0
  -10.8065    3.4472   25.6317 C   0  0  0  0  0  0  0  0  0  0  0  0
  -11.5639    2.3881   25.0153 C   0  0  0  0  0  0  0  0  0  0  0  0
  -11.1431    1.4723   25.1368 C   0  0  0  0  0  0  0  0  0  0  0  0
  2  7  1  0
  7  8  3  0
  8  9  1  0
  9 10  2  0
  1  2  2  0
  2  3  1  0
  3  6  2  0
  6  5  1  0
  5  4  2  0
  4  1  1  0
M  END

$$$$
No_10-complexes_sdf/6BKW-FPZ/2025-05-20-10-43-42/
     RDKit          3D

 22 24  0  0  0  0  0  0  0  0999 V2000
   -7.2496    3.8871   27.4508 C   0  0  0  0  0  0  0  0  0  0  0  0
   -8.5096    4.0291   27.2770 C   0  0  0  0  0  0  0  0  0  0  0  0
   -9.2677    5.1714   27.5773 C   0  0  0  0  0  0  0  0  0  0  0  0
   -6.5711    2.6400   27.2842 C   0  0  0  0  0  0  0  0  0  0  0  0
   -7.2751    1.5612   27.3443 C   0  0  0  0  0  0  0  0  0  0  0  0
   -6.6314    0.3247   27.2302 C   0  0  0  0  0  0  0  0  0  0  0  0
   -5.2683    0.3304   27.4250 C   0  0  0  0  0  0  0  0  0  0  0  0
   -4.8125    0.8756   28.1883 C   0  0  0  0  0  0  0  0  0  0  0  0
   -8.4783    6.3698   27.7648 C   0  0  0  0  0  0  0  0  0  0  0  0
   -5.2624    2.4646   28.0894 C   0  0  0  0  0  0  0  0  0  0  0  0
   -6.5481    5.0894   27.9245 C   0  0  0  0  0  0  0  0  0  0  0  0
   -7.1513    6.2961   27.9398 C   0  0  0  0  0  0  0  0  0  0  0  0
  -10.5495    5.2452   27.3695 F   0  0  0  0  0  0  0  0  0  0  0  0
   -7.4410   -0.7835   26.6158 C   0  0  0  0  0  0  0  0  0  0  0  0
   -8.6810   -0.7462   26.7135 C   0  0  0  0  0  0  0  0  0  0  0  0
   -9.4743   -1.8298   26.2345 C   0  0  0  0  0  0  0  0  0  0  0  0
   -8.8265   -2.8622   25.6647 C   0  0  0  0  0  0  0  0  0  0  0  0
   -7.0127   -2.0269   26.3015 C   0  0  0  0  0  0  0  0  0  0  0  0
   -7.5265   -2.8616   25.8775 C   0  0  0  0  0  0  0  0  0  0  0  0
  -11.0016   -1.7062   26.1517 C   0  0  0  0  0  0  0  0  0  0  0  0
  -11.6668   -0.6924   26.3861 C   0  0  0  0  0  0  0  0  0  0  0  0
  -13.1028   -0.6608   26.4460 C   0  0  0  0  0  0  0  0  0  0  0  0
  1  4  1  0
  3 13  1  0
  6 14  1  0
 16 20  1  0
 20 21  2  3
 21 22  1  0
  4  5  2  0
  5  6  1  0
  6  7  2  0
  7  8  1  0
  8 10  2  0
 10  4  1  0
 14 15  2  0
 15 16  1  0
 16 17  2  0
 17 19  1  0
 19 18  2  0
 18 14  1  0
  1  2  2  0
  2  3  1  0
  3  9  2  0
  9 12  1  0
 12 11  2  0
 11  1  1  0
M  END

$$$$
No_11-complexes_sdf/6BKW-FPZ/2025-05-20-10-43-42/
     RDKit          3D

  7  7  0  0  0  0  0  0  0  0999 V2000
   -7.2496    3.8871   27.4508 C   0  0  0  0  0  0  0  0  0  0  0  0
   -7.9379    4.9063   27.8518 C   0  0  0  0  0  0  0  0  0  0  0  0
   -7.4895    6.2027   27.7481 C   0  0  0  0  0  0  0  0  0  0  0  0
   -7.8057    2.6324   27.3137 C   0  0  0  0  0  0  0  0  0  0  0  0
   -9.1872    2.4678   27.5434 C   0  0  0  0  0  0  0  0  0  0  0  0
   -9.9237    3.5447   27.9999 C   0  0  0  0  0  0  0  0  0  0  0  0
   -9.3832    4.8080   28.1012 C   0  0  0  0  0  0  0  0  0  0  0  0
  2  3  1  0
  1  2  2  0
  2  7  1  0
  7  6  2  0
  6  5  1  0
  5  4  2  0
  4  1  1  0
M  END

$$$$
No_12-complexes_sdf/6BKW-FPZ/2025-05-20-10-43-42/
     RDKit          3D

 22 23  0  0  0  0  0  0  0  0999 V2000
   -7.9040    3.9820   27.1177 C   0  0  0  0  0  0  0  0  0  0  0  0
   -7.8663    4.8694   27.9238 C   0  0  0  0  0  0  0  0  0  0  0  0
   -9.0491    3.8523   26.2542 C   0  0  0  0  0  0  0  0  0  0  0  0
   -8.7661    5.9491   27.9690 C   0  0  0  0  0  0  0  0  0  0  0  0
   -9.9295    4.8502   26.2323 C   0  0  0  0  0  0  0  0  0  0  0  0
   -9.8077    5.9288   27.0933 C   0  0  0  0  0  0  0  0  0  0  0  0
   -6.8002    2.6256   27.2024 Cl  0  0  0  0  0  0  0  0  0  0  0  0
   -9.0975    2.7884   25.3552 O   0  0  0  0  0  0  0  0  0  0  0  0
   -9.2649    1.5771   25.7461 C   0  0  0  0  0  0  0  0  0  0  0  0
   -8.8332    0.6461   24.8220 C   0  0  0  0  0  0  0  0  0  0  0  0
   -8.3759   -0.5596   25.1959 C   0  0  0  0  0  0  0  0  0  0  0  0
   -8.6778   -1.0034   26.5290 C   0  0  0  0  0  0  0  0  0  0  0  0
   -9.1380   -0.0639   27.4714 C   0  0  0  0  0  0  0  0  0  0  0  0
   -9.3581    1.2540   27.0912 C   0  0  0  0  0  0  0  0  0  0  0  0
   -8.4343   -2.3992   26.9156 C   0  0  0  0  0  0  0  0  0  0  0  0
   -9.2933   -3.2285   26.8077 C   0  0  0  0  0  0  0  0  0  0  0  0
  -10.5113   -3.0559   26.5435 C   0  0  0  0  0  0  0  0  0  0  0  0
  -11.1816   -2.1401   26.6452 C   0  0  0  0  0  0  0  0  0  0  0  0
  -12.6944   -2.0100   26.4080 C   0  0  0  0  0  0  0  0  0  0  0  0
  -13.4255   -0.8321   26.6447 C   0  0  0  0  0  0  0  0  0  0  0  0
  -12.7363    0.2629   27.1742 C   0  0  0  0  0  0  0  0  0  0  0  0
  -11.4953    0.1912   27.7177 C   0  0  0  0  0  0  0  0  0  0  0  0
  1  7  1  0
  3  8  1  0
  8  9  1  0
 12 15  1  0
 15 16  1  0
 16 17  1  0
 17 18  2  3
 18 19  1  0
 19 20  2  3
 20 21  1  0
 21 22  2  0
  1  2  2  0
  2  4  1  0
  4  6  2  0
  6  5  1  0
  5  3  2  0
  3  1  1  0
  9 10  2  0
 10 11  1  0
 11 12  2  0
 12 13  1  0
 13 14  2  0
 14  9  1  0
M  END

$$$$
No_13-complexes_sdf/6BKW-FPZ/2025-05-20-10-43-42/
     RDKit          3D

 12 13  0  0  0  0  0  0  0  0999 V2000
   -7.9040    3.9820   27.1177 C   0  0  0  0  0  0  0  0  0  0  0  0
   -7.8663    4.8694   27.9238 C   0  0  0  0  0  0  0  0  0  0  0  0
   -9.0501    3.8017   26.2617 C   0  0  0  0  0  0  0  0  0  0  0  0
  -10.0189    4.7608   26.3707 C   0  0  0  0  0  0  0  0  0  0  0  0
   -8.6770    5.9780   27.9222 C   0  0  0  0  0  0  0  0  0  0  0  0
   -9.8040    5.8752   27.0958 C   0  0  0  0  0  0  0  0  0  0  0  0
   -9.1434    2.6226   25.4210 C   0  0  0  0  0  0  0  0  0  0  0  0
   -8.6414    1.4248   25.8504 C   0  0  0  0  0  0  0  0  0  0  0  0
   -8.7221    0.2951   25.0477 C   0  0  0  0  0  0  0  0  0  0  0  0
   -9.2843    0.4597   23.7792 C   0  0  0  0  0  0  0  0  0  0  0  0
   -9.7683    2.6338   24.1423 C   0  0  0  0  0  0  0  0  0  0  0  0
   -9.7776    1.6198   23.3474 C   0  0  0  0  0  0  0  0  0  0  0  0
  3  7  1  0
  7  8  2  0
  8  9  1  0
  9 10  2  0
 10 12  1  0
 12 11  2  0
 11  7  1  0
  1  2  2  0
  2  5  1  0
  5  6  2  0
  6  4  1  0
  4  3  2  0
  3  1  1  0
M  END

$$$$
