obj01
  PyMOL2.6          3D                             0

 18 19  0  0  0  0  0  0  0  0999 V2000
    9.6011   -1.5082   17.4878 N   0  0  0  0  0  0  0  0  0  0  0  0
   13.0133   -5.1904   12.2529 C   0  0  0  0  0  0  0  0  0  0  0  0
    7.9790   -4.3141   13.2112 Cl  0  0  0  0  0  0  0  0  0  0  0  0
   12.0668   -6.9303   15.5856 Cl  0  0  0  0  0  0  0  0  0  0  0  0
   11.5394   -5.0113   12.0241 C   0  0  0  0  0  0  0  0  0  0  0  0
   10.7223   -6.2764   12.1557 C   0  0  0  0  0  0  0  0  0  0  0  0
   10.6363   -7.1780   11.0979 C   0  0  0  0  0  0  0  0  0  0  0  0
    9.8705   -8.3232   11.2083 C   0  0  0  0  0  0  0  0  0  0  0  0
    9.1894   -8.5886   12.3727 C   0  0  0  0  0  0  0  0  0  0  0  0
    9.2661   -7.7093   13.4387 C   0  0  0  0  0  0  0  0  0  0  0  0
   10.0238   -6.5416   13.3428 C   0  0  0  0  0  0  0  0  0  0  0  0
    9.9965   -5.5742   14.4849 C   0  0  0  0  0  0  0  0  0  0  0  0
    9.0726   -4.5339   14.5364 C   0  0  0  0  0  0  0  0  0  0  0  0
    9.0007   -3.6604   15.6034 C   0  0  0  0  0  0  0  0  0  0  0  0
    9.8666   -3.7944   16.6792 C   0  0  0  0  0  0  0  0  0  0  0  0
    9.7523   -2.9019   17.8869 C   0  0  0  0  0  0  0  0  0  0  0  0
   10.8159   -4.8088   16.6410 C   0  0  0  0  0  0  0  0  0  0  0  0
   10.8702   -5.6753   15.5677 C   0  0  0  0  0  0  0  0  0  0  0  0
  2  5  1  0  0  0  0
  5  6  1  0  0  0  0
  6  7  2  0  0  0  0
  7  8  1  0  0  0  0
  8  9  2  0  0  0  0
  9 10  1  0  0  0  0
  6 11  1  0  0  0  0
 10 11  2  0  0  0  0
 11 12  1  0  0  0  0
  3 13  1  0  0  0  0
 12 13  1  0  0  0  0
 13 14  2  0  0  0  0
 14 15  1  0  0  0  0
  1 16  1  0  0  0  0
 15 16  1  0  0  0  0
 15 17  2  0  0  0  0
  4 18  1  0  0  0  0
 12 18  2  0  0  0  0
 17 18  1  0  0  0  0
M  END
$$$$
