obj01
  PyMOL2.6          3D                             0

 21 22  0  0  0  0  0  0  0  0999 V2000
    3.5741    7.7189  -13.7521 N   0  0  0  0  0  0  0  0  0  0  0  0
    3.0995    7.4408  -14.9434 C   0  0  0  0  0  0  0  0  0  0  0  0
    2.6629    6.3862  -15.3128 O   0  0  0  0  0  0  0  0  0  0  0  0
    2.7799    8.5008  -17.2343 C   0  0  0  0  0  0  0  0  0  0  0  0
    3.0565    8.6953  -11.2966 N   0  0  0  0  0  0  0  0  0  0  0  0
    3.1463    8.5526  -15.8617 O   0  0  0  0  0  0  0  0  0  0  0  0
    3.7493    7.6872  -18.0616 C   0  0  0  0  0  0  0  0  0  0  0  0
    1.2699    8.6985   -9.8564 O   0  0  0  0  0  0  0  0  0  0  0  0
    2.9128    9.9494  -17.7100 C   0  0  0  0  0  0  0  0  0  0  0  0
    1.3767    7.8550  -17.3086 C   0  0  0  0  0  0  0  0  0  0  0  0
    4.1706    9.0261  -13.5907 C   0  0  0  0  0  0  0  0  0  0  0  0
    3.9151    9.5263  -12.2047 C   0  0  0  0  0  0  0  0  0  0  0  0
    2.2208    9.2883  -10.3815 C   0  0  0  0  0  0  0  0  0  0  0  0
    2.3572   10.7627   -9.9972 C   0  0  0  0  0  0  0  0  0  0  0  0
    3.4330   11.2205   -8.9504 C   0  0  0  0  0  0  0  0  0  0  0  0
    3.1790    7.2962  -11.3686 C   0  0  0  0  0  0  0  0  0  0  0  0
    3.5195    6.7628  -12.6978 C   0  0  0  0  0  0  0  0  0  0  0  0
    3.7267    5.3674  -12.8347 C   0  0  0  0  0  0  0  0  0  0  0  0
    3.6173    4.5105  -11.7216 C   0  0  0  0  0  0  0  0  0  0  0  0
    3.3287    5.0117  -10.4523 C   0  0  0  0  0  0  0  0  0  0  0  0
    3.0920    6.3993  -10.2651 C   0  0  0  0  0  0  0  0  0  0  0  0
  1  2  1  0  0  0  0
  2  3  2  0  0  0  0
  2  6  1  0  0  0  0
  4  6  1  0  0  0  0
  4  7  1  0  0  0  0
  4  9  1  0  0  0  0
  4 10  1  0  0  0  0
  1 11  1  0  0  0  0
  5 12  1  0  0  0  0
 11 12  1  0  0  0  0
  5 13  1  0  0  0  0
  8 13  2  0  0  0  0
 13 14  1  0  0  0  0
 14 15  1  0  0  0  0
  5 16  1  0  0  0  0
  1 17  1  0  0  0  0
 16 17  2  0  0  0  0
 17 18  1  0  0  0  0
 18 19  2  0  0  0  0
 19 20  1  0  0  0  0
 16 21  1  0  0  0  0
 20 21  2  0  0  0  0
M  END
$$$$
