obj01
  PyMOL2.6          3D                             0

 34 37  0  0  0  0  0  0  0  0999 V2000
   -2.7237   17.4289   31.6499 N   0  0  0  0  0  0  0  0  0  0  0  0
   -3.0553   18.6294   34.2371 C   0  0  0  0  0  0  0  0  0  0  0  0
   -1.8680   18.0097   33.6862 O   0  0  0  0  0  0  0  0  0  0  0  0
   -1.7053   17.9603   32.3614 C   0  0  0  0  0  0  0  0  0  0  0  0
    3.4970   21.1549   27.2971 N   0  0  0  0  0  0  0  0  0  0  0  0
    1.0877   18.7384   33.1239 O   0  0  0  0  0  0  0  0  0  0  0  0
   -2.3626   17.3900   30.3136 C   0  0  0  0  0  0  0  0  0  0  0  0
    5.2455   22.9803   24.5074 N   0  0  0  0  0  0  0  0  0  0  0  0
    1.3491   19.4886   31.0240 O   0  0  0  0  0  0  0  0  0  0  0  0
   -3.0777   16.9333   29.2102 C   0  0  0  0  0  0  0  0  0  0  0  0
    5.4146   23.7455   22.1914 O   0  0  0  0  0  0  0  0  0  0  0  0
   -2.5069   17.0342   27.9520 C   0  0  0  0  0  0  0  0  0  0  0  0
    3.5717   22.2470   22.8649 O   0  0  0  0  0  0  0  0  0  0  0  0
   -1.2532   17.5965   27.8394 C   0  0  0  0  0  0  0  0  0  0  0  0
   -0.4993   18.0239   28.9147 C   0  0  0  0  0  0  0  0  0  0  0  0
   -1.0657   17.9274   30.1874 C   0  0  0  0  0  0  0  0  0  0  0  0
   -0.6315   18.2968   31.5322 C   0  0  0  0  0  0  0  0  0  0  0  0
    0.6753   18.8473   31.9947 C   0  0  0  0  0  0  0  0  0  0  0  0
    2.6657   19.9911   31.3734 C   0  0  0  0  0  0  0  0  0  0  0  0
    3.4298   20.4713   30.1531 C   0  0  0  0  0  0  0  0  0  0  0  0
    3.5169   19.4162   29.0452 C   0  0  0  0  0  0  0  0  0  0  0  0
    4.1884   19.9526   27.7756 C   0  0  0  0  0  0  0  0  0  0  0  0
    3.8037   21.5668   25.9112 C   0  0  0  0  0  0  0  0  0  0  0  0
    5.2355   21.9819   25.5917 C   0  0  0  0  0  0  0  0  0  0  0  0
    5.9329   21.2346   22.5258 C   0  0  0  0  0  0  0  0  0  0  0  0
    5.3224   20.1010   22.0087 C   0  0  0  0  0  0  0  0  0  0  0  0
    6.1090   19.0230   21.6370 C   0  0  0  0  0  0  0  0  0  0  0  0
    7.4841   19.0738   21.7872 C   0  0  0  0  0  0  0  0  0  0  0  0
    8.0809   20.2080   22.3106 C   0  0  0  0  0  0  0  0  0  0  0  0
    7.3101   21.2970   22.6835 C   0  0  0  0  0  0  0  0  0  0  0  0
    3.5814   22.2142   28.3070 C   0  0  0  0  0  0  0  0  0  0  0  0
    2.8646   21.7756   29.5892 C   0  0  0  0  0  0  0  0  0  0  0  0
   -0.7693   17.8338   26.5962 F   0  0  0  0  0  0  0  0  0  0  0  0
    4.9481   22.6303   22.9566 S   0  0  0  0  0  0  0  0  0  0  0  0
  2  3  1  0  0  0  0
  1  4  1  0  0  0  0
  3  4  1  0  0  0  0
  1  7  1  0  0  0  0
  7 10  1  0  0  0  0
 10 12  2  0  0  0  0
 12 14  1  0  0  0  0
 14 15  2  0  0  0  0
  7 16  2  0  0  0  0
 15 16  1  0  0  0  0
  4 17  2  0  0  0  0
 16 17  1  0  0  0  0
  6 18  2  0  0  0  0
  9 18  1  0  0  0  0
 17 18  1  0  0  0  0
  9 19  1  0  0  0  0
 19 20  1  0  0  0  0
 20 21  1  0  0  0  0
  5 22  1  0  0  0  0
 21 22  1  0  0  0  0
  5 23  1  0  0  0  0
  8 24  1  0  0  0  0
 23 24  1  0  0  0  0
 25 26  2  0  0  0  0
 26 27  1  0  0  0  0
 27 28  2  0  0  0  0
 28 29  1  0  0  0  0
 25 30  1  0  0  0  0
 29 30  2  0  0  0  0
  5 31  1  0  0  0  0
 20 32  1  0  0  0  0
 31 32  1  0  0  0  0
 14 33  1  0  0  0  0
  8 34  1  0  0  0  0
 11 34  2  0  0  0  0
 13 34  2  0  0  0  0
 25 34  1  0  0  0  0
M  END
$$$$
