obj01
  PyMOL2.6          3D                             0

 22 23  0  0  0  0  0  0  0  0999 V2000
   -1.9390   24.5969   16.7349 Cl  0  0  0  0  0  0  0  0  0  0  0  0
   -5.9895   18.3660   15.7487 Cl  0  0  0  0  0  0  0  0  0  0  0  0
   -5.9143   24.3311   17.0807 C   0  0  0  0  0  0  0  0  0  0  0  0
   -6.1933   23.2113   16.3247 C   0  0  0  0  0  0  0  0  0  0  0  0
   -5.1835   22.5113   15.6724 C   0  0  0  0  0  0  0  0  0  0  0  0
   -3.8702   22.9073   15.8014 C   0  0  0  0  0  0  0  0  0  0  0  0
   -3.6109   24.0310   16.5647 C   0  0  0  0  0  0  0  0  0  0  0  0
   -4.6059   24.7477   17.2047 C   0  0  0  0  0  0  0  0  0  0  0  0
   -7.5212   22.7953   16.1663 N   0  0  0  0  0  0  0  0  0  0  0  0
   -8.0117   21.6969   16.5502 C   0  0  0  0  0  0  0  0  0  0  0  0
   -7.2540   20.7757   17.1486 N   0  0  0  0  0  0  0  0  0  0  0  0
   -7.7358   19.6983   17.7832 C   0  0  0  0  0  0  0  0  0  0  0  0
   -6.7660   18.7180   18.2939 C   0  0  0  0  0  0  0  0  0  0  0  0
   -6.7038   18.4239   19.7006 C   0  0  0  0  0  0  0  0  0  0  0  0
   -5.7586   17.4957   20.1156 C   0  0  0  0  0  0  0  0  0  0  0  0
   -4.9043   16.8241   19.2371 C   0  0  0  0  0  0  0  0  0  0  0  0
   -4.9515   17.0728   17.8832 C   0  0  0  0  0  0  0  0  0  0  0  0
   -5.8663   17.9896   17.4277 C   0  0  0  0  0  0  0  0  0  0  0  0
   -8.8950   19.4602   18.0406 O   0  0  0  0  0  0  0  0  0  0  0  0
   -9.6301   21.4513   16.2087 S   0  0  0  0  0  0  0  0  0  0  0  0
  -10.6286   21.6322   17.6565 C   0  0  0  0  0  0  0  0  0  0  0  0
   -7.5562   19.1108   20.4859 F   0  0  0  0  0  0  0  0  0  0  0  0
  3  4  2  0  0  0  0
  4  5  1  0  0  0  0
  5  6  2  0  0  0  0
  1  7  1  0  0  0  0
  6  7  1  0  0  0  0
  3  8  1  0  0  0  0
  7  8  2  0  0  0  0
  4  9  1  0  0  0  0
  9 10  2  0  0  0  0
 10 11  1  0  0  0  0
 11 12  1  0  0  0  0
 12 13  1  0  0  0  0
 13 14  1  0  0  0  0
 14 15  2  0  0  0  0
 15 16  1  0  0  0  0
 16 17  2  0  0  0  0
  2 18  1  0  0  0  0
 13 18  2  0  0  0  0
 17 18  1  0  0  0  0
 12 19  2  0  0  0  0
 10 20  1  0  0  0  0
 20 21  1  0  0  0  0
 14 22  1  0  0  0  0
M  END
$$$$
