obj01
  PyMOL2.6          3D                             0

 14 14  0  0  0  0  0  0  0  0999 V2000
  -11.4165    8.0157    7.1781 Cl  0  0  0  0  0  0  0  0  0  0  0  0
  -11.2659    5.6291    8.3841 C   0  0  0  0  0  0  0  0  0  0  0  0
  -11.4423    4.7476    9.4376 C   0  0  0  0  0  0  0  0  0  0  0  0
  -11.0471    3.3853    9.3467 N   0  0  0  0  0  0  0  0  0  0  0  0
   -9.7132    3.0752    8.9454 C   0  0  0  0  0  0  0  0  0  0  0  0
   -9.2991    1.6249    8.8956 C   0  0  0  0  0  0  0  0  0  0  0  0
   -8.0268    1.2492    9.1759 C   0  0  0  0  0  0  0  0  0  0  0  0
   -6.6230    2.2214    8.6762 S   0  0  0  0  0  0  0  0  0  0  0  0
   -8.9200    3.9604    8.6357 O   0  0  0  0  0  0  0  0  0  0  0  0
  -11.9825    5.2019   10.6326 C   0  0  0  0  0  0  0  0  0  0  0  0
  -12.3660    6.5198   10.7723 C   0  0  0  0  0  0  0  0  0  0  0  0
  -12.2032    7.3965    9.7224 C   0  0  0  0  0  0  0  0  0  0  0  0
  -11.6581    6.9437    8.5282 C   0  0  0  0  0  0  0  0  0  0  0  0
  -10.7295    5.2318    7.2154 F   0  0  0  0  0  0  0  0  0  0  0  0
  2  3  4  0  0  0  0
  3  4  1  0  0  0  0
  4  5  1  0  0  0  0
  5  6  1  0  0  0  0
  5  9  2  0  0  0  0
  6  7  1  0  0  0  0
  7  8  1  0  0  0  0
  3 10  4  0  0  0  0
 10 11  4  0  0  0  0
 11 12  4  0  0  0  0
  1 13  1  0  0  0  0
  2 13  4  0  0  0  0
 12 13  4  0  0  0  0
  2 14  1  0  0  0  0
M  END
$$$$
