obj01
  PyMOL2.6          3D                             0

 34 36  0  0  0  0  0  0  0  0999 V2000
   -8.8628    1.6660   26.0493 P   0  0  0  0  0  0  0  0  0  0  0  0
   -9.3504    6.2940   26.8672 C   0  0  0  0  0  0  0  0  0  0  0  0
   -9.1756    5.3735   27.8892 C   0  0  0  0  0  0  0  0  0  0  0  0
   -9.0412    3.9987   27.6222 C   0  0  0  0  0  0  0  0  0  0  0  0
   -9.0606    3.4848   26.3386 C   0  0  0  0  0  0  0  0  0  0  0  0
   -9.2373    4.4205   25.3218 C   0  0  0  0  0  0  0  0  0  0  0  0
   -9.3745    5.7936   25.5634 C   0  0  0  0  0  0  0  0  0  0  0  0
   -7.3333    1.0650   26.9680 C   0  0  0  0  0  0  0  0  0  0  0  0
   -7.1156   -0.2680   27.3271 C   0  0  0  0  0  0  0  0  0  0  0  0
   -5.9752   -0.7062   28.0229 C   0  0  0  0  0  0  0  0  0  0  0  0
   -4.9846    0.2052   28.4008 C   0  0  0  0  0  0  0  0  0  0  0  0
   -5.1768    1.5371   28.0621 C   0  0  0  0  0  0  0  0  0  0  0  0
   -6.3266    1.9516   27.3668 C   0  0  0  0  0  0  0  0  0  0  0  0
  -10.3292    0.8170   26.7727 C   0  0  0  0  0  0  0  0  0  0  0  0
  -11.2618    0.1128   26.0240 C   0  0  0  0  0  0  0  0  0  0  0  0
  -12.3540   -0.5174   26.6107 C   0  0  0  0  0  0  0  0  0  0  0  0
  -12.5400   -0.4704   27.9889 C   0  0  0  0  0  0  0  0  0  0  0  0
  -11.6153    0.2180   28.7540 C   0  0  0  0  0  0  0  0  0  0  0  0
  -10.5320    0.8480   28.1455 C   0  0  0  0  0  0  0  0  0  0  0  0
   -9.4448    7.2007   27.0495 H   0  0  0  0  0  0  0  0  0  0  0  0
   -9.1581    5.6830   28.7664 H   0  0  0  0  0  0  0  0  0  0  0  0
   -8.9217    3.4155   28.3365 H   0  0  0  0  0  0  0  0  0  0  0  0
   -9.2643    4.1887   24.4223 H   0  0  0  0  0  0  0  0  0  0  0  0
   -9.4940    6.4199   24.8854 H   0  0  0  0  0  0  0  0  0  0  0  0
   -7.7153   -0.9485   27.1226 H   0  0  0  0  0  0  0  0  0  0  0  0
   -5.8252   -1.5939   28.2583 H   0  0  0  0  0  0  0  0  0  0  0  0
   -4.2216   -0.0662   28.8588 H   0  0  0  0  0  0  0  0  0  0  0  0
   -4.5312    2.1629   28.3023 H   0  0  0  0  0  0  0  0  0  0  0  0
   -6.4215    2.8531   27.1582 H   0  0  0  0  0  0  0  0  0  0  0  0
  -11.2170    0.0313   25.0982 H   0  0  0  0  0  0  0  0  0  0  0  0
  -12.9910   -0.9892   26.1257 H   0  0  0  0  0  0  0  0  0  0  0  0
  -13.2655   -0.8895   28.3927 H   0  0  0  0  0  0  0  0  0  0  0  0
  -11.7306    0.2591   29.6762 H   0  0  0  0  0  0  0  0  0  0  0  0
   -9.9226    1.3062   28.6779 H   0  0  0  0  0  0  0  0  0  0  0  0
  2  3  4  0  0  0  0
  2  7  4  0  0  0  0
  2 20  1  0  0  0  0
  3  4  4  0  0  0  0
  3 21  1  0  0  0  0
  4  5  4  0  0  0  0
  4 22  1  0  0  0  0
  1  5  1  0  0  0  0
  5  6  4  0  0  0  0
  6  7  4  0  0  0  0
  6 23  1  0  0  0  0
  7 24  1  0  0  0  0
  1  8  1  0  0  0  0
  8  9  4  0  0  0  0
  8 13  4  0  0  0  0
  9 25  1  0  0  0  0
  9 10  4  0  0  0  0
 10 11  4  0  0  0  0
 10 26  1  0  0  0  0
 11 12  4  0  0  0  0
 11 27  1  0  0  0  0
 12 13  4  0  0  0  0
 12 28  1  0  0  0  0
 13 29  1  0  0  0  0
  1 14  1  0  0  0  0
 14 15  4  0  0  0  0
 14 19  4  0  0  0  0
 15 16  4  0  0  0  0
 15 30  1  0  0  0  0
 16 17  4  0  0  0  0
 16 31  1  0  0  0  0
 17 18  4  0  0  0  0
 17 32  1  0  0  0  0
 18 19  4  0  0  0  0
 18 33  1  0  0  0  0
 19 34  1  0  0  0  0
M  END
$$$$
