obj01
  PyMOL2.6          3D                             0

 17 19  0  0  0  0  0  0  0  0999 V2000
   14.8573   13.3549   34.1261 N   0  0  0  0  0  0  0  0  0  0  0  0
   12.4647   13.5291   33.7439 C   0  0  0  0  0  0  0  0  0  0  0  0
   11.5985   12.6333   31.6873 O   0  0  0  0  0  0  0  0  0  0  0  0
   11.3182   14.0371   34.4255 C   0  0  0  0  0  0  0  0  0  0  0  0
   13.8700   12.5069   32.1027 N   0  0  0  0  0  0  0  0  0  0  0  0
   11.6341   14.5838   35.6479 C   0  0  0  0  0  0  0  0  0  0  0  0
   13.6202   13.7174   34.4841 C   0  0  0  0  0  0  0  0  0  0  0  0
   12.6553   12.8872   32.5251 C   0  0  0  0  0  0  0  0  0  0  0  0
    9.9397   14.1164   34.0162 C   0  0  0  0  0  0  0  0  0  0  0  0
   14.8963   12.7629   32.9237 C   0  0  0  0  0  0  0  0  0  0  0  0
    9.6430   14.6522   32.7765 C   0  0  0  0  0  0  0  0  0  0  0  0
    8.9338   13.7434   34.8952 C   0  0  0  0  0  0  0  0  0  0  0  0
    7.3293   14.4811   33.3160 C   0  0  0  0  0  0  0  0  0  0  0  0
    8.3232   14.8184   32.4216 C   0  0  0  0  0  0  0  0  0  0  0  0
    7.6117   13.9334   34.5494 C   0  0  0  0  0  0  0  0  0  0  0  0
    6.0631   14.6666   32.9444 F   0  0  0  0  0  0  0  0  0  0  0  0
   13.3049   14.4839   35.9865 S   0  0  0  0  0  0  0  0  0  0  0  0
  2  4  1  0  0  0  0
  4  6  2  0  0  0  0
  1  7  1  0  0  0  0
  2  7  2  0  0  0  0
  2  8  1  0  0  0  0
  3  8  2  0  0  0  0
  5  8  1  0  0  0  0
  4  9  1  0  0  0  0
  1 10  2  0  0  0  0
  5 10  1  0  0  0  0
  9 11  2  0  0  0  0
  9 12  1  0  0  0  0
 11 14  1  0  0  0  0
 13 14  2  0  0  0  0
 12 15  2  0  0  0  0
 13 15  1  0  0  0  0
 13 16  1  0  0  0  0
  6 17  1  0  0  0  0
  7 17  1  0  0  0  0
M  END
$$$$
