obj01
  PyMOL2.6          3D                             0

 26 28  0  0  0  0  0  0  0  0999 V2000
   -4.7900    8.3260   13.2590 N   0  0  0  0  0  0  0  0  0  0  0  0
   -5.8870    7.6850   13.7200 N   0  0  0  0  0  0  0  0  0  0  0  0
   -5.4180    6.7590   14.5710 C   0  0  0  0  0  0  0  0  0  0  0  0
   -4.0070    6.8300   14.6500 C   0  0  0  0  0  0  0  0  0  0  0  0
   -3.6160    7.8430   13.7780 C   0  0  0  0  0  0  0  0  0  0  0  0
   -3.1980    6.0030   15.4570 N   0  0  0  0  0  0  0  0  0  0  0  0
   -1.8200    6.1340   15.5350 C   0  0  0  0  0  0  0  0  0  0  0  0
   -1.2790    5.2140   16.4220 N   0  0  0  0  0  0  0  0  0  0  0  0
   -1.1470    6.9620   14.9320 O   0  0  0  0  0  0  0  0  0  0  0  0
   -6.2810    5.8520   15.3020 C   0  0  0  0  0  0  0  0  0  0  0  0
   -7.6240    5.9510   15.0230 N   0  0  0  0  0  0  0  0  0  0  0  0
   -5.8520    5.0360   16.1160 O   0  0  0  0  0  0  0  0  0  0  0  0
   -4.8850    9.4530   12.4010 C   0  0  0  0  0  0  0  0  0  0  0  0
   -4.2140    9.3970   11.1940 C   0  0  0  0  0  0  0  0  0  0  0  0
   -4.3260   10.4620   10.3110 C   0  0  0  0  0  0  0  0  0  0  0  0
   -5.1020   11.5500   10.6670 C   0  0  0  0  0  0  0  0  0  0  0  0
   -5.6370   10.5640   12.7770 C   0  0  0  0  0  0  0  0  0  0  0  0
   -5.7370   11.6230   11.8780 C   0  0  0  0  0  0  0  0  0  0  0  0
   -6.4570   12.7590   12.2080 C   0  0  0  0  0  0  0  0  0  0  0  0
   -7.0910   12.8250   13.4310 C   0  0  0  0  0  0  0  0  0  0  0  0
   -6.9990   11.7690   14.3310 C   0  0  0  0  0  0  0  0  0  0  0  0
   -6.2720   10.6440   14.0070 C   0  0  0  0  0  0  0  0  0  0  0  0
   -7.6610   11.9500   15.5370 O   0  0  0  0  0  0  0  0  0  0  0  0
   -7.6370   10.8220   16.4440 C   0  0  0  0  0  0  0  0  0  0  0  0
   -8.0980   11.3830   17.7700 C   0  0  0  0  0  0  0  0  0  0  0  0
   -8.6390    9.7480   16.0900 C   0  0  0  0  0  0  0  0  0  0  0  0
  1  2  1  0  0  0  0
  2  3  2  0  0  0  0
  3  4  1  0  0  0  0
  1  5  1  0  0  0  0
  4  5  2  0  0  0  0
  4  6  1  0  0  0  0
  6  7  1  0  0  0  0
  7  8  1  0  0  0  0
  7  9  2  0  0  0  0
  3 10  1  0  0  0  0
 10 11  1  0  0  0  0
 10 12  2  0  0  0  0
  1 13  1  0  0  0  0
 13 14  2  0  0  0  0
 14 15  1  0  0  0  0
 15 16  2  0  0  0  0
 13 17  1  0  0  0  0
 16 18  1  0  0  0  0
 17 18  1  0  0  0  0
 18 19  2  0  0  0  0
 19 20  1  0  0  0  0
 20 21  2  0  0  0  0
 17 22  2  0  0  0  0
 21 22  1  0  0  0  0
 21 23  1  0  0  0  0
 23 24  1  0  0  0  0
 24 25  1  0  0  0  0
 24 26  1  0  0  0  0
M  END
$$$$
