obj01
  PyMOL2.6          3D                             0

 18 20  0  0  0  0  0  0  0  0999 V2000
   12.7806    3.2801   -9.4884 C   0  0  0  0  0  0  0  0  0  0  0  0
   13.2136    3.5324  -10.7981 C   0  0  0  0  0  0  0  0  0  0  0  0
   12.3255    3.4479  -11.8570 C   0  0  0  0  0  0  0  0  0  0  0  0
   10.9934    3.1082  -11.6372 C   0  0  0  0  0  0  0  0  0  0  0  0
   10.5210    2.8428  -10.3188 C   0  0  0  0  0  0  0  0  0  0  0  0
   11.4522    2.9413   -9.2583 C   0  0  0  0  0  0  0  0  0  0  0  0
    9.1773    2.4713  -10.0915 C   0  0  0  0  0  0  0  0  0  0  0  0
    7.9315    2.9727  -10.6097 C   0  0  0  0  0  0  0  0  0  0  0  0
    6.9264    2.1243  -10.1109 N   0  0  0  0  0  0  0  0  0  0  0  0
    7.4813    1.1732   -9.3218 N   0  0  0  0  0  0  0  0  0  0  0  0
    8.8251    1.3608   -9.2869 C   0  0  0  0  0  0  0  0  0  0  0  0
    7.6015    4.1117  -11.4300 C   0  0  0  0  0  0  0  0  0  0  0  0
    6.4529    4.0686  -12.2631 C   0  0  0  0  0  0  0  0  0  0  0  0
    6.1129    5.1820  -13.0667 C   0  0  0  0  0  0  0  0  0  0  0  0
    6.8595    6.2881  -13.0527 N   0  0  0  0  0  0  0  0  0  0  0  0
    7.9464    6.3858  -12.2895 C   0  0  0  0  0  0  0  0  0  0  0  0
    8.3686    5.3163  -11.4496 C   0  0  0  0  0  0  0  0  0  0  0  0
   14.5064    3.8568  -11.0250 F   0  0  0  0  0  0  0  0  0  0  0  0
  1  2  1  0  0  0  0
  2  3  2  0  0  0  0
  3  4  1  0  0  0  0
  4  5  2  0  0  0  0
  1  6  2  0  0  0  0
  5  6  1  0  0  0  0
  5  7  1  0  0  0  0
  7  8  1  0  0  0  0
  8  9  2  0  0  0  0
  9 10  1  0  0  0  0
  7 11  2  0  0  0  0
 10 11  1  0  0  0  0
  8 12  1  0  0  0  0
 12 13  2  0  0  0  0
 13 14  1  0  0  0  0
 14 15  2  0  0  0  0
 15 16  1  0  0  0  0
 12 17  1  0  0  0  0
 16 17  2  0  0  0  0
  2 18  1  0  0  0  0
M  END
$$$$
